# DDEC6 charges by PACMAN v1.1 (https://github.com/mtap-research/PACMAN-charge/)
data_2010[Cd][nan]3[FSR]1
_chemical_formula_sum              "Cd12 H48 C114 O54 F36"
_cell_length_a       23.2507
_cell_length_b       23.2507
_cell_length_c       23.2507
_cell_angle_alpha    118.792
_cell_angle_beta     118.792
_cell_angle_gamma    118.792

_symmetry_space_group_name_H-M    "P 1"
_symmetry_Int_Tables_number       1

loop_
  _symmetry_equiv_pos_as_xyz
  'x, y, z'

loop_
  _atom_site_type_symbol
  _atom_site_label
  _atom_site_symmetry_multiplicity
  _atom_site_fract_x
  _atom_site_fract_y
  _atom_site_fract_z
  _atom_site_occupancy
  _atom_site_charge
Cd  Cd1       1.0  0.25437  0.81721  0.77859  1.0000 1.087843208
Cd  Cd2       1.0  0.81721  0.77859  0.25437  1.0000 1.087843208
Cd  Cd3       1.0  0.77859  0.25437  0.81721  1.0000 1.087843208
Cd  Cd4       1.0  0.74563  0.18279  0.22141  1.0000 1.087843208
Cd  Cd5       1.0  0.18279  0.22141  0.74563  1.0000 1.087843208
Cd  Cd6       1.0  0.22141  0.74563  0.18279  1.0000 1.087843208
Cd  Cd7       1.0  0.81703  0.41615  0.29531  1.0000 1.0142039344
Cd  Cd8       1.0  0.41615  0.29531  0.81703  1.0000 1.0142039344
Cd  Cd9       1.0  0.29531  0.81703  0.41615  1.0000 1.0142039344
Cd  Cd10      1.0  0.18297  0.58385  0.70469  1.0000 1.0142039344
Cd  Cd11      1.0  0.58385  0.70469  0.18297  1.0000 1.0142039344
Cd  Cd12      1.0  0.70469  0.18297  0.58385  1.0000 1.0142039344
H   H1        1.0  0.46330  0.16500  0.16750  1.0000 0.1224385336
H   H2        1.0  0.16500  0.16750  0.46330  1.0000 0.1224385336
H   H3        1.0  0.16750  0.46330  0.16500  1.0000 0.1224385336
H   H4        1.0  0.53670  0.83500  0.83250  1.0000 0.1224385336
H   H5        1.0  0.83500  0.83250  0.53670  1.0000 0.1224385336
H   H6        1.0  0.83250  0.53670  0.83500  1.0000 0.1224385336
H   H7        1.0  0.60230  0.36040  0.39440  1.0000 0.1126171969
H   H8        1.0  0.36040  0.39440  0.60230  1.0000 0.1126171969
H   H9        1.0  0.39440  0.60230  0.36040  1.0000 0.1126171969
H   H10       1.0  0.39770  0.63960  0.60560  1.0000 0.1126171969
H   H11       1.0  0.63960  0.60560  0.39770  1.0000 0.1126171969
H   H12       1.0  0.60560  0.39770  0.63960  1.0000 0.1126171969
H   H13       1.0  0.03030  0.64010  0.73070  1.0000 0.1270443683
H   H14       1.0  0.64010  0.73070  0.03030  1.0000 0.1270443683
H   H15       1.0  0.73070  0.03030  0.64010  1.0000 0.1270443683
H   H16       1.0  0.96970  0.35990  0.26930  1.0000 0.1270443683
H   H17       1.0  0.35990  0.26930  0.96970  1.0000 0.1270443683
H   H18       1.0  0.26930  0.96970  0.35990  1.0000 0.1270443683
H   H19       1.0  0.88500  0.50910  0.71510  1.0000 0.1270443683
H   H20       1.0  0.50910  0.71510  0.88500  1.0000 0.1270443683
H   H21       1.0  0.71510  0.88500  0.50910  1.0000 0.1270443683
H   H22       1.0  0.11500  0.49090  0.28490  1.0000 0.1270443683
H   H23       1.0  0.49090  0.28490  0.11500  1.0000 0.1270443683
H   H24       1.0  0.28490  0.11500  0.49090  1.0000 0.1270443683
H   H25       1.0  0.47410  0.11470  0.30630  1.0000 0.1270443683
H   H26       1.0  0.11470  0.30630  0.47410  1.0000 0.1270443683
H   H27       1.0  0.30630  0.47410  0.11470  1.0000 0.1270443683
H   H28       1.0  0.52590  0.88530  0.69370  1.0000 0.1270443683
H   H29       1.0  0.88530  0.69370  0.52590  1.0000 0.1270443683
H   H30       1.0  0.69370  0.52590  0.88530  1.0000 0.1270443683
H   H31       1.0  0.28590  0.00170  0.10560  1.0000 0.1126171969
H   H32       1.0  0.00170  0.10560  0.28590  1.0000 0.1126171969
H   H33       1.0  0.10560  0.28590  0.00170  1.0000 0.1126171969
H   H34       1.0  0.71410  0.99830  0.89440  1.0000 0.1126171969
H   H35       1.0  0.99830  0.89440  0.71410  1.0000 0.1126171969
H   H36       1.0  0.89440  0.71410  0.99830  1.0000 0.1126171969
H   H37       1.0  0.68000  0.24450  0.04380  1.0000 0.3766430651
H   H38       1.0  0.24450  0.04380  0.68000  1.0000 0.3766430651
H   H39       1.0  0.04380  0.68000  0.24450  1.0000 0.3766430651
H   H40       1.0  0.32000  0.75550  0.95620  1.0000 0.3766430651
H   H41       1.0  0.75550  0.95620  0.32000  1.0000 0.3766430651
H   H42       1.0  0.95620  0.32000  0.75550  1.0000 0.3766430651
H   H43       1.0  0.85840  0.40190  0.21650  1.0000 0.3465436086
H   H44       1.0  0.40190  0.21650  0.85840  1.0000 0.3465436086
H   H45       1.0  0.21650  0.85840  0.40190  1.0000 0.3465436086
H   H46       1.0  0.14160  0.59810  0.78350  1.0000 0.3465436086
H   H47       1.0  0.59810  0.78350  0.14160  1.0000 0.3465436086
H   H48       1.0  0.78350  0.14160  0.59810  1.0000 0.3465436086
C   C1        1.0  0.65557  0.27565  0.30648  1.0000 -0.0313500721
C   C2        1.0  0.27565  0.30648  0.65557  1.0000 -0.0313500721
C   C3        1.0  0.30648  0.65557  0.27565  1.0000 -0.0313500721
C   C4        1.0  0.34443  0.72435  0.69352  1.0000 -0.0313500721
C   C5        1.0  0.72435  0.69352  0.34443  1.0000 -0.0313500721
C   C6        1.0  0.69352  0.34443  0.72435  1.0000 -0.0313500721
C   C7        1.0  0.57570  0.25808  0.27972  1.0000 -0.0794046648
C   C8        1.0  0.25808  0.27972  0.57570  1.0000 -0.0794046648
C   C9        1.0  0.27972  0.57570  0.25808  1.0000 -0.0794046648
C   C10       1.0  0.42430  0.74192  0.72028  1.0000 -0.0794046648
C   C11       1.0  0.74192  0.72028  0.42430  1.0000 -0.0794046648
C   C12       1.0  0.72028  0.42430  0.74192  1.0000 -0.0794046648
C   C13       1.0  0.65929  0.37573  0.41598  1.0000 -0.1515287689
C   C14       1.0  0.37573  0.41598  0.65929  1.0000 -0.1515287689
C   C15       1.0  0.41598  0.65929  0.37573  1.0000 -0.1515287689
C   C16       1.0  0.34071  0.62427  0.58402  1.0000 -0.1515287689
C   C17       1.0  0.62427  0.58402  0.34071  1.0000 -0.1515287689
C   C18       1.0  0.58402  0.34071  0.62427  1.0000 -0.1515287689
C   C19       1.0  0.82782  0.42020  0.47778  1.0000 -0.0170693445
C   C20       1.0  0.42020  0.47778  0.82782  1.0000 -0.0170693445
C   C21       1.0  0.47778  0.82782  0.42020  1.0000 -0.0170693445
C   C22       1.0  0.17218  0.57980  0.52222  1.0000 -0.0170693445
C   C23       1.0  0.57980  0.52222  0.17218  1.0000 -0.0170693445
C   C24       1.0  0.52222  0.17218  0.57980  1.0000 -0.0170693445
C   C25       1.0  0.91432  0.54176  0.61652  1.0000 -0.1515287689
C   C26       1.0  0.54176  0.61652  0.91432  1.0000 -0.1515287689
C   C27       1.0  0.61652  0.91432  0.54176  1.0000 -0.1515287689
C   C28       1.0  0.08568  0.45824  0.38348  1.0000 -0.1515287689
C   C29       1.0  0.45824  0.38348  0.08568  1.0000 -0.1515287689
C   C30       1.0  0.38348  0.08568  0.45824  1.0000 -0.1515287689
C   C31       1.0  0.82920  0.51815  0.58665  1.0000 0.0910978899
C   C32       1.0  0.51815  0.58665  0.82920  1.0000 0.0910978899
C   C33       1.0  0.58665  0.82920  0.51815  1.0000 0.0910978899
C   C34       1.0  0.17080  0.48185  0.41335  1.0000 0.0910978899
C   C35       1.0  0.48185  0.41335  0.17080  1.0000 0.0910978899
C   C36       1.0  0.41335  0.17080  0.48185  1.0000 0.0910978899
C   C37       1.0  0.55519  0.14184  0.15067  1.0000 0.5884747987
C   C38       1.0  0.14184  0.15067  0.55519  1.0000 0.5884747987
C   C39       1.0  0.15067  0.55519  0.14184  1.0000 0.5884747987
C   C40       1.0  0.44481  0.85816  0.84933  1.0000 0.5884747987
C   C41       1.0  0.85816  0.84933  0.44481  1.0000 0.5884747987
C   C42       1.0  0.84933  0.44481  0.85816  1.0000 0.5884747987
C   C43       1.0  0.91820  0.44161  0.51479  1.0000 0.5786900108
C   C44       1.0  0.44161  0.51479  0.91820  1.0000 0.5786900108
C   C45       1.0  0.51479  0.91820  0.44161  1.0000 0.5786900108
C   C46       1.0  0.08180  0.55839  0.48521  1.0000 0.5786900108
C   C47       1.0  0.55839  0.48521  0.08180  1.0000 0.5786900108
C   C48       1.0  0.48521  0.08180  0.55839  1.0000 0.5786900108
C   C49       1.0  0.92639  0.65290  0.74141  1.0000 -0.2754918352
C   C50       1.0  0.65290  0.74141  0.92639  1.0000 -0.2754918352
C   C51       1.0  0.74141  0.92639  0.65290  1.0000 -0.2754918352
C   C52       1.0  0.07361  0.34710  0.25859  1.0000 -0.2754918352
C   C53       1.0  0.34710  0.25859  0.07361  1.0000 -0.2754918352
C   C54       1.0  0.25859  0.07361  0.34710  1.0000 -0.2754918352
C   C55       1.0  0.79408  0.56247  0.67705  1.0000 0.6651474521
C   C56       1.0  0.56247  0.67705  0.79408  1.0000 0.6651474521
C   C57       1.0  0.67705  0.79408  0.56247  1.0000 0.6651474521
C   C58       1.0  0.20592  0.43753  0.32295  1.0000 0.6651474521
C   C59       1.0  0.43753  0.32295  0.20592  1.0000 0.6651474521
C   C60       1.0  0.32295  0.20592  0.43753  1.0000 0.6651474521
C   C61       1.0  0.01390  0.78958  0.81422  1.0000 0.6616004094
C   C62       1.0  0.78958  0.81422  0.01390  1.0000 0.6616004094
C   C63       1.0  0.81422  0.01390  0.78958  1.0000 0.6616004094
C   C64       1.0  0.98610  0.21042  0.18578  1.0000 0.6616004094
C   C65       1.0  0.21042  0.18578  0.98610  1.0000 0.6616004094
C   C66       1.0  0.18578  0.98610  0.21042  1.0000 0.6616004094
C   C67       1.0  0.06398  0.74246  0.88746  1.0000 0.0777507856
C   C68       1.0  0.74246  0.88746  0.06398  1.0000 0.0777507856
C   C69       1.0  0.88746  0.06398  0.74246  1.0000 0.0777507856
C   C70       1.0  0.93602  0.25754  0.11254  1.0000 0.0777507856
C   C71       1.0  0.25754  0.11254  0.93602  1.0000 0.0777507856
C   C72       1.0  0.11254  0.93602  0.25754  1.0000 0.0777507856
C   C73       1.0  0.00288  0.63129  0.83473  1.0000 -0.1515287689
C   C74       1.0  0.63129  0.83473  0.00288  1.0000 -0.1515287689
C   C75       1.0  0.83473  0.00288  0.63129  1.0000 -0.1515287689
C   C76       1.0  0.99712  0.36871  0.16527  1.0000 -0.1515287689
C   C77       1.0  0.36871  0.16527  0.99712  1.0000 -0.1515287689
C   C78       1.0  0.16527  0.99712  0.36871  1.0000 -0.1515287689
C   C79       1.0  0.11392  0.69822  0.95676  1.0000 -0.0476999049
C   C80       1.0  0.69822  0.95676  0.11392  1.0000 -0.0476999049
C   C81       1.0  0.95676  0.11392  0.69822  1.0000 -0.0476999049
C   C82       1.0  0.88608  0.30178  0.04324  1.0000 -0.0476999049
C   C83       1.0  0.30178  0.04324  0.88608  1.0000 -0.0476999049
C   C84       1.0  0.04324  0.88608  0.30178  1.0000 -0.0476999049
C   C85       1.0  0.29279  0.88100  0.13601  1.0000 -0.0170693445
C   C86       1.0  0.88100  0.13601  0.29279  1.0000 -0.0170693445
C   C87       1.0  0.13601  0.29279  0.88100  1.0000 -0.0170693445
C   C88       1.0  0.70721  0.11900  0.86399  1.0000 -0.0170693445
C   C89       1.0  0.11900  0.86399  0.70721  1.0000 -0.0170693445
C   C90       1.0  0.86399  0.70721  0.11900  1.0000 -0.0170693445
C   C91       1.0  0.35458  0.99240  0.18782  1.0000 -0.1007932663
C   C92       1.0  0.99240  0.18782  0.35458  1.0000 -0.1007932663
C   C93       1.0  0.18782  0.35458  0.99240  1.0000 -0.1007932663
C   C94       1.0  0.64542  0.00760  0.81218  1.0000 -0.1007932663
C   C95       1.0  0.00760  0.81218  0.64542  1.0000 -0.1007932663
C   C96       1.0  0.81218  0.64542  0.00760  1.0000 -0.1007932663
C   C97       1.0  0.24194  0.92441  0.06665  1.0000 -0.134676227
C   C98       1.0  0.92441  0.06665  0.24194  1.0000 -0.134676227
C   C99       1.0  0.06665  0.24194  0.92441  1.0000 -0.134676227
C   C100      1.0  0.75806  0.07559  0.93335  1.0000 -0.134676227
C   C101      1.0  0.07559  0.93335  0.75806  1.0000 -0.134676227
C   C102      1.0  0.93335  0.75806  0.07559  1.0000 -0.134676227
C   C103      1.0  0.03242  0.56613  0.88655  1.0000 0.5786900108
C   C104      1.0  0.56613  0.88655  0.03242  1.0000 0.5786900108
C   C105      1.0  0.88655  0.03242  0.56613  1.0000 0.5786900108
C   C106      1.0  0.96758  0.43387  0.11345  1.0000 0.5786900108
C   C107      1.0  0.43387  0.11345  0.96758  1.0000 0.5786900108
C   C108      1.0  0.11345  0.96758  0.43387  1.0000 0.5786900108
C   C109      1.0  0.42794  0.97112  0.28094  1.0000 0.5786900108
C   C110      1.0  0.97112  0.28094  0.42794  1.0000 0.5786900108
C   C111      1.0  0.28094  0.42794  0.97112  1.0000 0.5786900108
C   C112      1.0  0.57206  0.02888  0.71906  1.0000 0.5786900108
C   C113      1.0  0.02888  0.71906  0.57206  1.0000 0.5786900108
C   C114      1.0  0.71906  0.57206  0.02888  1.0000 0.5786900108
O   O1        1.0  0.39117  0.98896  0.00167  1.0000 -0.512975724
O   O2        1.0  0.98896  0.00167  0.39117  1.0000 -0.512975724
O   O3        1.0  0.00167  0.39117  0.98896  1.0000 -0.512975724
O   O4        1.0  0.60883  0.01104  0.99833  1.0000 -0.512975724
O   O5        1.0  0.01104  0.99833  0.60883  1.0000 -0.512975724
O   O6        1.0  0.99833  0.60883  0.01104  1.0000 -0.512975724
O   O7        1.0  0.64125  0.19213  0.17632  1.0000 -0.6473206793
O   O8        1.0  0.19213  0.17632  0.64125  1.0000 -0.6473206793
O   O9        1.0  0.17632  0.64125  0.19213  1.0000 -0.6473206793
O   O10       1.0  0.35875  0.80787  0.82368  1.0000 -0.6473206793
O   O11       1.0  0.80787  0.82368  0.35875  1.0000 -0.6473206793
O   O12       1.0  0.82368  0.35875  0.80787  1.0000 -0.6473206793
O   O13       1.0  0.83538  0.31179  0.41603  1.0000 -0.5425722217
O   O14       1.0  0.31179  0.41603  0.83538  1.0000 -0.5425722217
O   O15       1.0  0.41603  0.83538  0.31179  1.0000 -0.5425722217
O   O16       1.0  0.16462  0.68821  0.58397  1.0000 -0.5425722217
O   O17       1.0  0.68821  0.58397  0.16462  1.0000 -0.5425722217
O   O18       1.0  0.58397  0.16462  0.68821  1.0000 -0.5425722217
O   O19       1.0  0.08006  0.59434  0.65050  1.0000 -0.5939576939
O   O20       1.0  0.59434  0.65050  0.08006  1.0000 -0.5939576939
O   O21       1.0  0.65050  0.08006  0.59434  1.0000 -0.5939576939
O   O22       1.0  0.91994  0.40566  0.34950  1.0000 -0.5939576939
O   O23       1.0  0.40566  0.34950  0.91994  1.0000 -0.5939576939
O   O24       1.0  0.34950  0.91994  0.40566  1.0000 -0.5939576939
O   O25       1.0  0.12801  0.62064  0.99145  1.0000 -0.5664175068
O   O26       1.0  0.62064  0.99145  0.12801  1.0000 -0.5664175068
O   O27       1.0  0.99145  0.12801  0.62064  1.0000 -0.5664175068
O   O28       1.0  0.87199  0.37936  0.00855  1.0000 -0.5664175068
O   O29       1.0  0.37936  0.00855  0.87199  1.0000 -0.5664175068
O   O30       1.0  0.00855  0.87199  0.37936  1.0000 -0.5664175068
O   O31       1.0  0.86991  0.40586  0.72273  1.0000 -0.5279653981
O   O32       1.0  0.40586  0.72273  0.86991  1.0000 -0.5279653981
O   O33       1.0  0.72273  0.86991  0.40586  1.0000 -0.5279653981
O   O34       1.0  0.13009  0.59414  0.27727  1.0000 -0.5279653981
O   O35       1.0  0.59414  0.27727  0.13009  1.0000 -0.5279653981
O   O36       1.0  0.27727  0.13009  0.59414  1.0000 -0.5279653981
O   O37       1.0  0.53590  0.03409  0.33981  1.0000 -0.4996686692
O   O38       1.0  0.03409  0.33981  0.53590  1.0000 -0.4996686692
O   O39       1.0  0.33981  0.53590  0.03409  1.0000 -0.4996686692
O   O40       1.0  0.46410  0.96591  0.66019  1.0000 -0.4996686692
O   O41       1.0  0.96591  0.66019  0.46410  1.0000 -0.4996686692
O   O42       1.0  0.66019  0.46410  0.96591  1.0000 -0.4996686692
O   O43       1.0  0.43711  0.99317  0.34962  1.0000 -0.6006763691
O   O44       1.0  0.99317  0.34962  0.43711  1.0000 -0.6006763691
O   O45       1.0  0.34962  0.43711  0.99317  1.0000 -0.6006763691
O   O46       1.0  0.56289  0.00683  0.65038  1.0000 -0.6006763691
O   O47       1.0  0.00683  0.65038  0.56289  1.0000 -0.6006763691
O   O48       1.0  0.65038  0.56289  0.00683  1.0000 -0.6006763691
O   O49       1.0  0.77378  0.35085  0.15147  1.0000 -0.6006763691
O   O50       1.0  0.35085  0.15147  0.77378  1.0000 -0.6006763691
O   O51       1.0  0.15147  0.77378  0.35085  1.0000 -0.6006763691
O   O52       1.0  0.22622  0.64915  0.84853  1.0000 -0.6006763691
O   O53       1.0  0.64915  0.84853  0.22622  1.0000 -0.6006763691
O   O54       1.0  0.84853  0.22622  0.64915  1.0000 -0.6006763691
F   F1        1.0  0.87719  0.66483  0.81168  1.0000 -0.188467908
F   F2        1.0  0.66483  0.81168  0.87719  1.0000 -0.188467908
F   F3        1.0  0.81168  0.87719  0.66483  1.0000 -0.188467908
F   F4        1.0  0.12281  0.33517  0.18832  1.0000 -0.188467908
F   F5        1.0  0.33517  0.18832  0.12281  1.0000 -0.188467908
F   F6        1.0  0.18832  0.12281  0.33517  1.0000 -0.188467908
F   F7        1.0  0.69838  0.52179  0.58873  1.0000 -0.188467908
F   F8        1.0  0.52179  0.58873  0.69838  1.0000 -0.188467908
F   F9        1.0  0.58873  0.69838  0.52179  1.0000 -0.188467908
F   F10       1.0  0.30162  0.47821  0.41127  1.0000 -0.188467908
F   F11       1.0  0.47821  0.41127  0.30162  1.0000 -0.188467908
F   F12       1.0  0.41127  0.30162  0.47821  1.0000 -0.188467908
F   F13       1.0  0.67913  0.41091  0.56916  1.0000 -0.1815129459
F   F14       1.0  0.41091  0.56916  0.67913  1.0000 -0.1815129459
F   F15       1.0  0.56916  0.67913  0.41091  1.0000 -0.1815129459
F   F16       1.0  0.32087  0.58909  0.43084  1.0000 -0.1815129459
F   F17       1.0  0.58909  0.43084  0.32087  1.0000 -0.1815129459
F   F18       1.0  0.43084  0.32087  0.58909  1.0000 -0.1815129459
F   F19       1.0  0.08864  0.90482  0.93894  1.0000 -0.1953800037
F   F20       1.0  0.90482  0.93894  0.08864  1.0000 -0.1953800037
F   F21       1.0  0.93894  0.08864  0.90482  1.0000 -0.1953800037
F   F22       1.0  0.91136  0.09518  0.06106  1.0000 -0.1953800037
F   F23       1.0  0.09518  0.06106  0.91136  1.0000 -0.1953800037
F   F24       1.0  0.06106  0.91136  0.09518  1.0000 -0.1953800037
F   F25       1.0  0.89934  0.71381  0.68805  1.0000 -0.188467908
F   F26       1.0  0.71381  0.68805  0.89934  1.0000 -0.188467908
F   F27       1.0  0.68805  0.89934  0.71381  1.0000 -0.188467908
F   F28       1.0  0.10066  0.28619  0.31195  1.0000 -0.188467908
F   F29       1.0  0.28619  0.31195  0.10066  1.0000 -0.188467908
F   F30       1.0  0.31195  0.10066  0.28619  1.0000 -0.188467908
F   F31       1.0  0.14123  0.88342  0.88645  1.0000 -0.1815129459
F   F32       1.0  0.88342  0.88645  0.14123  1.0000 -0.1815129459
F   F33       1.0  0.88645  0.14123  0.88342  1.0000 -0.1815129459
F   F34       1.0  0.85877  0.11658  0.11355  1.0000 -0.1815129459
F   F35       1.0  0.11658  0.11355  0.85877  1.0000 -0.1815129459
F   F36       1.0  0.11355  0.85877  0.11658  1.0000 -0.1815129459
