# DDEC6 charges by PACMAN v1.1 (https://github.com/mtap-research/PACMAN-charge/)
data_2010[Cd][nan]3[FSR]5
_chemical_formula_sum              "Cd4 H72 C48 N16 O24"
_cell_length_a       17.124
_cell_length_b       17.124
_cell_length_c       5.3921
_cell_angle_alpha    90
_cell_angle_beta     90
_cell_angle_gamma    90

_symmetry_space_group_name_H-M    "P 1"
_symmetry_Int_Tables_number       1

loop_
  _symmetry_equiv_pos_as_xyz
  'x, y, z'

loop_
  _atom_site_type_symbol
  _atom_site_label
  _atom_site_symmetry_multiplicity
  _atom_site_fract_x
  _atom_site_fract_y
  _atom_site_fract_z
  _atom_site_occupancy
  _atom_site_charge
Cd  Cd1       1.0  0.38470  0.38470  0.00000  1.0000 0.8766069996
Cd  Cd2       1.0  0.61530  0.61530  0.00000  1.0000 0.8766069996
Cd  Cd3       1.0  0.88470  0.11530  0.00000  1.0000 0.8766069996
Cd  Cd4       1.0  0.11530  0.88470  0.00000  1.0000 0.8766069996
H   H1        1.0  0.51740  0.45980  0.23260  1.0000 0.2842936652
H   H2        1.0  0.48260  0.54020  0.23260  1.0000 0.2852617937
H   H3        1.0  0.95980  0.98260  0.23260  1.0000 0.2852617937
H   H4        1.0  0.04020  0.01740  0.23260  1.0000 0.2852617937
H   H5        1.0  0.01740  0.04020  0.76740  1.0000 0.2852617937
H   H6        1.0  0.98260  0.95980  0.76740  1.0000 0.2852617937
H   H7        1.0  0.45980  0.51740  0.76740  1.0000 0.2842936652
H   H8        1.0  0.54020  0.48260  0.76740  1.0000 0.2852617937
H   H9        1.0  0.48370  0.41010  0.42250  1.0000 0.3294120791
H   H10       1.0  0.51630  0.58990  0.42250  1.0000 0.3294120791
H   H11       1.0  0.91010  0.01630  0.42250  1.0000 0.3294120791
H   H12       1.0  0.08990  0.98370  0.42250  1.0000 0.3294120791
H   H13       1.0  0.98370  0.08990  0.57750  1.0000 0.3294120791
H   H14       1.0  0.01630  0.91010  0.57750  1.0000 0.3294120791
H   H15       1.0  0.41010  0.48370  0.57750  1.0000 0.3294120791
H   H16       1.0  0.58990  0.51630  0.57750  1.0000 0.3294120791
H   H17       1.0  0.44820  0.20250  0.10580  1.0000 0.1088916647
H   H18       1.0  0.55180  0.79750  0.10580  1.0000 0.1088916647
H   H19       1.0  0.70250  0.05180  0.10580  1.0000 0.1088916647
H   H20       1.0  0.29750  0.94820  0.10580  1.0000 0.1088916647
H   H21       1.0  0.94820  0.29750  0.89420  1.0000 0.1088916647
H   H22       1.0  0.05180  0.70250  0.89420  1.0000 0.1088916647
H   H23       1.0  0.20250  0.44820  0.89420  1.0000 0.1088916647
H   H24       1.0  0.79750  0.55180  0.89420  1.0000 0.1088916647
H   H25       1.0  0.41100  0.10840  0.42080  1.0000 0.1207889483
H   H26       1.0  0.58900  0.89160  0.42080  1.0000 0.1207889483
H   H27       1.0  0.60840  0.08900  0.42080  1.0000 0.1207889483
H   H28       1.0  0.39160  0.91100  0.42080  1.0000 0.1207889483
H   H29       1.0  0.91100  0.39160  0.57920  1.0000 0.1207889483
H   H30       1.0  0.08900  0.60840  0.57920  1.0000 0.1207889483
H   H31       1.0  0.10840  0.41100  0.57920  1.0000 0.1207889483
H   H32       1.0  0.89160  0.58900  0.57920  1.0000 0.1207889483
H   H33       1.0  0.32350  0.13850  0.86990  1.0000 0.0917788955
H   H34       1.0  0.67650  0.86150  0.86990  1.0000 0.0917788955
H   H35       1.0  0.63850  0.17650  0.86990  1.0000 0.0917788955
H   H36       1.0  0.36150  0.82350  0.86990  1.0000 0.0917788955
H   H37       1.0  0.82350  0.36150  0.13010  1.0000 0.0917788955
H   H38       1.0  0.17650  0.63850  0.13010  1.0000 0.0917788955
H   H39       1.0  0.13850  0.32350  0.13010  1.0000 0.0917788955
H   H40       1.0  0.86150  0.67650  0.13010  1.0000 0.0917788955
H   H41       1.0  0.25030  0.19010  0.80570  1.0000 0.0952813389
H   H42       1.0  0.74970  0.80990  0.80570  1.0000 0.0952813389
H   H43       1.0  0.69010  0.24970  0.80570  1.0000 0.0952813389
H   H44       1.0  0.30990  0.75030  0.80570  1.0000 0.0952813389
H   H45       1.0  0.75030  0.30990  0.19430  1.0000 0.0952813389
H   H46       1.0  0.24970  0.69010  0.19430  1.0000 0.0952813389
H   H47       1.0  0.19010  0.25030  0.19430  1.0000 0.0952813389
H   H48       1.0  0.80990  0.74970  0.19430  1.0000 0.0952813389
H   H49       1.0  0.28650  0.04750  0.56580  1.0000 0.1207889483
H   H50       1.0  0.71350  0.95250  0.56580  1.0000 0.1207889483
H   H51       1.0  0.54750  0.21350  0.56580  1.0000 0.1207889483
H   H52       1.0  0.45250  0.78650  0.56580  1.0000 0.1207889483
H   H53       1.0  0.78650  0.45250  0.43420  1.0000 0.1207889483
H   H54       1.0  0.21350  0.54750  0.43420  1.0000 0.1207889483
H   H55       1.0  0.04750  0.28650  0.43420  1.0000 0.1207889483
H   H56       1.0  0.95250  0.71350  0.43420  1.0000 0.1207889483
H   H57       1.0  0.21440  0.09930  0.49560  1.0000 0.1338761138
H   H58       1.0  0.78560  0.90070  0.49560  1.0000 0.1338761138
H   H59       1.0  0.59930  0.28560  0.49560  1.0000 0.1338761138
H   H60       1.0  0.40070  0.71440  0.49560  1.0000 0.1338761138
H   H61       1.0  0.71440  0.40070  0.50440  1.0000 0.1338761138
H   H62       1.0  0.28560  0.59930  0.50440  1.0000 0.1338761138
H   H63       1.0  0.09930  0.21440  0.50440  1.0000 0.1338761138
H   H64       1.0  0.90070  0.78560  0.50440  1.0000 0.1338761138
H   H65       1.0  0.16280  0.04190  0.11450  1.0000 0.3085030864
H   H66       1.0  0.83720  0.95810  0.11450  1.0000 0.3085030864
H   H67       1.0  0.54190  0.33720  0.11450  1.0000 0.3085030864
H   H68       1.0  0.45810  0.66280  0.11450  1.0000 0.3085030864
H   H69       1.0  0.66280  0.45810  0.88550  1.0000 0.3085030864
H   H70       1.0  0.33720  0.54190  0.88550  1.0000 0.3085030864
H   H71       1.0  0.04190  0.16280  0.88550  1.0000 0.3085030864
H   H72       1.0  0.95810  0.83720  0.88550  1.0000 0.3085030864
C   C1        1.0  0.32068  0.26450  0.44840  1.0000 0.1646262655
C   C2        1.0  0.67932  0.73550  0.44840  1.0000 0.1646262655
C   C3        1.0  0.76450  0.17932  0.44840  1.0000 0.1646262655
C   C4        1.0  0.23550  0.82068  0.44840  1.0000 0.1646262655
C   C5        1.0  0.82068  0.23550  0.55160  1.0000 0.1646262655
C   C6        1.0  0.17932  0.76450  0.55160  1.0000 0.1646262655
C   C7        1.0  0.26450  0.32068  0.55160  1.0000 0.1646262655
C   C8        1.0  0.73550  0.67932  0.55160  1.0000 0.1646262655
C   C9        1.0  0.41040  0.21040  0.22710  1.0000 -0.0696314213
C   C10       1.0  0.58960  0.78960  0.22710  1.0000 -0.0696314213
C   C11       1.0  0.71040  0.08960  0.22710  1.0000 -0.0696314213
C   C12       1.0  0.28960  0.91040  0.22710  1.0000 -0.0696314213
C   C13       1.0  0.91040  0.28960  0.77290  1.0000 -0.0696314213
C   C14       1.0  0.08960  0.71040  0.77290  1.0000 -0.0696314213
C   C15       1.0  0.21040  0.41040  0.77290  1.0000 -0.0696314213
C   C16       1.0  0.78960  0.58960  0.77290  1.0000 -0.0696314213
C   C17       1.0  0.39010  0.15810  0.39950  1.0000 -0.1267849796
C   C18       1.0  0.60990  0.84190  0.39950  1.0000 -0.1267849796
C   C19       1.0  0.65810  0.10990  0.39950  1.0000 -0.1267849796
C   C20       1.0  0.34190  0.89010  0.39950  1.0000 -0.1267849796
C   C21       1.0  0.89010  0.34190  0.60050  1.0000 -0.1267849796
C   C22       1.0  0.10990  0.65810  0.60050  1.0000 -0.1267849796
C   C23       1.0  0.15810  0.39010  0.60050  1.0000 -0.1267849796
C   C24       1.0  0.84190  0.60990  0.60050  1.0000 -0.1267849796
C   C25       1.0  0.28840  0.15410  0.73770  1.0000 -0.0852748885
C   C26       1.0  0.71160  0.84590  0.73770  1.0000 -0.0852748885
C   C27       1.0  0.65410  0.21160  0.73770  1.0000 -0.0852748885
C   C28       1.0  0.34590  0.78840  0.73770  1.0000 -0.0852748885
C   C29       1.0  0.78840  0.34590  0.26230  1.0000 -0.0852748885
C   C30       1.0  0.21160  0.65410  0.26230  1.0000 -0.0852748885
C   C31       1.0  0.15410  0.28840  0.26230  1.0000 -0.0852748885
C   C32       1.0  0.84590  0.71160  0.26230  1.0000 -0.0852748885
C   C33       1.0  0.24750  0.08290  0.63200  1.0000 -0.3794905742
C   C34       1.0  0.75250  0.91710  0.63200  1.0000 -0.3794905742
C   C35       1.0  0.58290  0.25250  0.63200  1.0000 -0.3794905742
C   C36       1.0  0.41710  0.74750  0.63200  1.0000 -0.3794905742
C   C37       1.0  0.74750  0.41710  0.36800  1.0000 -0.3794905742
C   C38       1.0  0.25250  0.58290  0.36800  1.0000 -0.3794905742
C   C39       1.0  0.08290  0.24750  0.36800  1.0000 -0.3794905742
C   C40       1.0  0.91710  0.75250  0.36800  1.0000 -0.3794905742
C   C41       1.0  0.19870  0.04000  0.81740  1.0000 0.5530482816
C   C42       1.0  0.80130  0.96000  0.81740  1.0000 0.5530482816
C   C43       1.0  0.54000  0.30130  0.81740  1.0000 0.5530482816
C   C44       1.0  0.46000  0.69870  0.81740  1.0000 0.5530482816
C   C45       1.0  0.69870  0.46000  0.18260  1.0000 0.5530482816
C   C46       1.0  0.30130  0.54000  0.18260  1.0000 0.5530482816
C   C47       1.0  0.04000  0.19870  0.18260  1.0000 0.5530482816
C   C48       1.0  0.96000  0.80130  0.18260  1.0000 0.5530482816
N   N1        1.0  0.36691  0.27801  0.25520  1.0000 -0.3686779079
N   N2        1.0  0.63309  0.72199  0.25520  1.0000 -0.3686779079
N   N3        1.0  0.77801  0.13309  0.25520  1.0000 -0.3686779079
N   N4        1.0  0.22199  0.86691  0.25520  1.0000 -0.3686779079
N   N5        1.0  0.86691  0.22199  0.74480  1.0000 -0.3686779079
N   N6        1.0  0.13309  0.77801  0.74480  1.0000 -0.3686779079
N   N7        1.0  0.27801  0.36691  0.74480  1.0000 -0.3686779079
N   N8        1.0  0.72199  0.63309  0.74480  1.0000 -0.3686779079
N   N9        1.0  0.33264  0.19234  0.53860  1.0000 0.0113934159
N   N10       1.0  0.66736  0.80766  0.53860  1.0000 0.0113934159
N   N11       1.0  0.69234  0.16736  0.53860  1.0000 0.0113934159
N   N12       1.0  0.30766  0.83264  0.53860  1.0000 0.0113934159
N   N13       1.0  0.83264  0.30766  0.46140  1.0000 0.0113934159
N   N14       1.0  0.16736  0.69234  0.46140  1.0000 0.0113934159
N   N15       1.0  0.19234  0.33264  0.46140  1.0000 0.0113934159
N   N16       1.0  0.80766  0.66736  0.46140  1.0000 0.0113934159
O   O1        1.0  0.49270  0.41520  0.26820  1.0000 -0.7056680185
O   O2        1.0  0.50730  0.58480  0.26820  1.0000 -0.7056680185
O   O3        1.0  0.91520  0.00730  0.26820  1.0000 -0.7056680185
O   O4        1.0  0.08480  0.99270  0.26820  1.0000 -0.7056680185
O   O5        1.0  0.99270  0.08480  0.73180  1.0000 -0.7056680185
O   O6        1.0  0.00730  0.91520  0.73180  1.0000 -0.7056680185
O   O7        1.0  0.41520  0.49270  0.73180  1.0000 -0.7056680185
O   O8        1.0  0.58480  0.50730  0.73180  1.0000 -0.7056680185
O   O9        1.0  0.16960  0.97650  0.74910  1.0000 -0.578596921
O   O10       1.0  0.83040  0.02350  0.74910  1.0000 -0.578596921
O   O11       1.0  0.47650  0.33040  0.74910  1.0000 -0.578596921
O   O12       1.0  0.52350  0.66960  0.74910  1.0000 -0.578596921
O   O13       1.0  0.66960  0.52350  0.25090  1.0000 -0.578596921
O   O14       1.0  0.33040  0.47650  0.25090  1.0000 -0.578596921
O   O15       1.0  0.97650  0.16960  0.25090  1.0000 -0.578596921
O   O16       1.0  0.02350  0.83040  0.25090  1.0000 -0.578596921
O   O17       1.0  0.19040  0.07010  0.02870  1.0000 -0.4475875882
O   O18       1.0  0.80960  0.92990  0.02870  1.0000 -0.4475875882
O   O19       1.0  0.57010  0.30960  0.02870  1.0000 -0.4475875882
O   O20       1.0  0.42990  0.69040  0.02870  1.0000 -0.4475875882
O   O21       1.0  0.69040  0.42990  0.97130  1.0000 -0.4475875882
O   O22       1.0  0.30960  0.57010  0.97130  1.0000 -0.4475875882
O   O23       1.0  0.07010  0.19040  0.97130  1.0000 -0.4475875882
O   O24       1.0  0.92990  0.80960  0.97130  1.0000 -0.4475875882
