# DDEC6 charges by PACMAN v1.1 (https://github.com/mtap-research/PACMAN-charge/)
data_2010[YbCo][pth]3[FSR]1
_chemical_formula_sum              "Yb3 Co9 H90 C54 S18 N18 O48"
_cell_length_a       13.5451
_cell_length_b       13.5451
_cell_length_c       23.0394
_cell_angle_alpha    90
_cell_angle_beta     90
_cell_angle_gamma    120

_symmetry_space_group_name_H-M    "P 1"
_symmetry_Int_Tables_number       1

loop_
  _symmetry_equiv_pos_as_xyz
  'x, y, z'

loop_
  _atom_site_type_symbol
  _atom_site_label
  _atom_site_symmetry_multiplicity
  _atom_site_fract_x
  _atom_site_fract_y
  _atom_site_fract_z
  _atom_site_occupancy
  _atom_site_charge
Yb  Yb1       1.0  0.39742  0.39742  0.00000  1.0000 2.0205623736
Yb  Yb2       1.0  0.60258  0.00000  0.33333  1.0000 2.0205623736
Yb  Yb3       1.0  0.00000  0.60258  0.66667  1.0000 2.0205623736
Co  Co1       1.0  0.76815  0.66889  0.20696  1.0000 0.3167185018
Co  Co2       1.0  0.33111  0.09926  0.54029  1.0000 0.3130788734
Co  Co3       1.0  0.90074  0.23185  0.87363  1.0000 0.3167185018
Co  Co4       1.0  0.66889  0.76815  0.79304  1.0000 0.3167185018
Co  Co5       1.0  0.09926  0.33111  0.45971  1.0000 0.3130788734
Co  Co6       1.0  0.23185  0.90074  0.12637  1.0000 0.3130788734
Co  Co7       1.0  0.00000  0.79653  0.16667  1.0000 0.1159596994
Co  Co8       1.0  0.20347  0.20347  0.50000  1.0000 0.1149848133
Co  Co9       1.0  0.79653  0.00000  0.83333  1.0000 0.1159596994
H   H1        1.0  0.61740  0.55730  0.13690  1.0000 0.2913778007
H   H2        1.0  0.44270  0.06010  0.47023  1.0000 0.2913778007
H   H3        1.0  0.93990  0.38260  0.80357  1.0000 0.2913778007
H   H4        1.0  0.55730  0.61740  0.86310  1.0000 0.2913778007
H   H5        1.0  0.06010  0.44270  0.52977  1.0000 0.2913778007
H   H6        1.0  0.38260  0.93990  0.19643  1.0000 0.2913778007
H   H7        1.0  0.57170  0.60730  0.17890  1.0000 0.2913778007
H   H8        1.0  0.39270  0.96440  0.51223  1.0000 0.2913778007
H   H9        1.0  0.03560  0.42830  0.84557  1.0000 0.2913778007
H   H10       1.0  0.60730  0.57170  0.82110  1.0000 0.2913778007
H   H11       1.0  0.96440  0.39270  0.48777  1.0000 0.2913778007
H   H12       1.0  0.42830  0.03560  0.15443  1.0000 0.2913778007
H   H13       1.0  0.68320  0.77180  0.25070  1.0000 0.2913778007
H   H14       1.0  0.22820  0.91140  0.58403  1.0000 0.2913778007
H   H15       1.0  0.08860  0.31680  0.91737  1.0000 0.2913778007
H   H16       1.0  0.77180  0.68320  0.74930  1.0000 0.2913778007
H   H17       1.0  0.91140  0.22820  0.41597  1.0000 0.2913778007
H   H18       1.0  0.31680  0.08860  0.08263  1.0000 0.2913778007
H   H19       1.0  0.63830  0.66160  0.28160  1.0000 0.2913778007
H   H20       1.0  0.33840  0.97670  0.61493  1.0000 0.2913778007
H   H21       1.0  0.02330  0.36170  0.94827  1.0000 0.2913778007
H   H22       1.0  0.66160  0.63830  0.71840  1.0000 0.2913778007
H   H23       1.0  0.97670  0.33840  0.38507  1.0000 0.2913778007
H   H24       1.0  0.36170  0.02330  0.05173  1.0000 0.2913778007
H   H25       1.0  0.73850  0.52070  0.27980  1.0000 0.2913778007
H   H26       1.0  0.47930  0.21780  0.61313  1.0000 0.2913778007
H   H27       1.0  0.78220  0.26150  0.94647  1.0000 0.2913778007
H   H28       1.0  0.52070  0.73850  0.72020  1.0000 0.2913778007
H   H29       1.0  0.21780  0.47930  0.38687  1.0000 0.2913778007
H   H30       1.0  0.26150  0.78220  0.05353  1.0000 0.2913778007
H   H31       1.0  0.62960  0.47850  0.24740  1.0000 0.2913778007
H   H32       1.0  0.52150  0.15110  0.58073  1.0000 0.2913778007
H   H33       1.0  0.84890  0.37040  0.91407  1.0000 0.2913778007
H   H34       1.0  0.47850  0.62960  0.75260  1.0000 0.2913778007
H   H35       1.0  0.15110  0.52150  0.41927  1.0000 0.2913778007
H   H36       1.0  0.37040  0.84890  0.08593  1.0000 0.2913778007
H   H37       1.0  0.78110  0.84310  0.06670  1.0000 0.1397764057
H   H38       1.0  0.15690  0.93800  0.40003  1.0000 0.1397764057
H   H39       1.0  0.06200  0.21890  0.73337  1.0000 0.1397764057
H   H40       1.0  0.84310  0.78110  0.93330  1.0000 0.1397764057
H   H41       1.0  0.93800  0.15690  0.59997  1.0000 0.1397764057
H   H42       1.0  0.21890  0.06200  0.26663  1.0000 0.1397764057
H   H43       1.0  0.79420  0.73160  0.07080  1.0000 0.1397764057
H   H44       1.0  0.26840  0.06260  0.40413  1.0000 0.1397764057
H   H45       1.0  0.93740  0.20580  0.73747  1.0000 0.1397764057
H   H46       1.0  0.73160  0.79420  0.92920  1.0000 0.1397764057
H   H47       1.0  0.06260  0.26840  0.59587  1.0000 0.1397764057
H   H48       1.0  0.20580  0.93740  0.26253  1.0000 0.1397764057
H   H49       1.0  0.62380  0.76200  0.13030  1.0000 0.0990568611
H   H50       1.0  0.23800  0.86180  0.46363  1.0000 0.0990568611
H   H51       1.0  0.13820  0.37620  0.79697  1.0000 0.0990568611
H   H52       1.0  0.76200  0.62380  0.86970  1.0000 0.0990568611
H   H53       1.0  0.86180  0.23800  0.53637  1.0000 0.0990568611
H   H54       1.0  0.37620  0.13820  0.20303  1.0000 0.0990568611
H   H55       1.0  0.95570  0.88230  0.32910  1.0000 0.1397764057
H   H56       1.0  0.11770  0.07340  0.66243  1.0000 0.1397764057
H   H57       1.0  0.92660  0.04430  0.99577  1.0000 0.1397764057
H   H58       1.0  0.88230  0.95570  0.67090  1.0000 0.1397764057
H   H59       1.0  0.07340  0.11770  0.33757  1.0000 0.1397764057
H   H60       1.0  0.04430  0.92660  0.00423  1.0000 0.1397764057
H   H61       1.0  0.91330  0.91030  0.26940  1.0000 0.1397764057
H   H62       1.0  0.08970  0.00300  0.60273  1.0000 0.1397764057
H   H63       1.0  0.99700  0.08670  0.93607  1.0000 0.1397764057
H   H64       1.0  0.91030  0.91330  0.73060  1.0000 0.1397764057
H   H65       1.0  0.00300  0.08970  0.39727  1.0000 0.1397764057
H   H66       1.0  0.08670  0.99700  0.06393  1.0000 0.1397764057
H   H67       1.0  0.77400  0.72400  0.34560  1.0000 0.0990568611
H   H68       1.0  0.27600  0.05000  0.67893  1.0000 0.0990568611
H   H69       1.0  0.95000  0.22600  0.01227  1.0000 0.0990568611
H   H70       1.0  0.72400  0.77400  0.65440  1.0000 0.0990568611
H   H71       1.0  0.05000  0.27600  0.32107  1.0000 0.0990568611
H   H72       1.0  0.22600  0.95000  0.98773  1.0000 0.0990568611
H   H73       1.0  0.87740  0.45960  0.16220  1.0000 0.1397764057
H   H74       1.0  0.54040  0.41780  0.49553  1.0000 0.1397764057
H   H75       1.0  0.58220  0.12260  0.82887  1.0000 0.1397764057
H   H76       1.0  0.45960  0.87740  0.83780  1.0000 0.1397764057
H   H77       1.0  0.41780  0.54040  0.50447  1.0000 0.1397764057
H   H78       1.0  0.12260  0.58220  0.17113  1.0000 0.1397764057
H   H79       1.0  0.91090  0.53910  0.21900  1.0000 0.1323677331
H   H80       1.0  0.46090  0.37180  0.55233  1.0000 0.1323677331
H   H81       1.0  0.62820  0.08910  0.88567  1.0000 0.1323677331
H   H82       1.0  0.53910  0.91090  0.78100  1.0000 0.1323677331
H   H83       1.0  0.37180  0.46090  0.44767  1.0000 0.1323677331
H   H84       1.0  0.08910  0.62820  0.11433  1.0000 0.1323677331
H   H85       1.0  0.68380  0.41300  0.17310  1.0000 0.0990568611
H   H86       1.0  0.58700  0.27080  0.50643  1.0000 0.0990568611
H   H87       1.0  0.72920  0.31620  0.83977  1.0000 0.0990568611
H   H88       1.0  0.41300  0.68380  0.82690  1.0000 0.0990568611
H   H89       1.0  0.27080  0.58700  0.49357  1.0000 0.0990568611
H   H90       1.0  0.31620  0.72920  0.16023  1.0000 0.0990568611
C   C1        1.0  0.77090  0.77990  0.09230  1.0000 -0.2033686037
C   C2        1.0  0.22010  0.99100  0.42563  1.0000 -0.2033686037
C   C3        1.0  0.00900  0.22910  0.75897  1.0000 -0.2033686037
C   C4        1.0  0.77990  0.77090  0.90770  1.0000 -0.2033686037
C   C5        1.0  0.99100  0.22010  0.57437  1.0000 -0.2033686037
C   C6        1.0  0.22910  0.00900  0.24103  1.0000 -0.2033686037
C   C7        1.0  0.64640  0.70930  0.11200  1.0000 0.0225076103
C   C8        1.0  0.29070  0.93710  0.44533  1.0000 0.0225076103
C   C9        1.0  0.06290  0.35360  0.77867  1.0000 0.0225076103
C   C10       1.0  0.70930  0.64640  0.88800  1.0000 0.0225076103
C   C11       1.0  0.93710  0.29070  0.55467  1.0000 0.0225076103
C   C12       1.0  0.35360  0.06290  0.22133  1.0000 0.0225076103
C   C13       1.0  0.56770  0.65140  0.05920  1.0000 0.5723441472
C   C14       1.0  0.34860  0.91630  0.39253  1.0000 0.5723441472
C   C15       1.0  0.08370  0.43230  0.72587  1.0000 0.5723441472
C   C16       1.0  0.65140  0.56770  0.94080  1.0000 0.5723441472
C   C17       1.0  0.91630  0.34860  0.60747  1.0000 0.5723441472
C   C18       1.0  0.43230  0.08370  0.27413  1.0000 0.5723441472
C   C19       1.0  0.90280  0.84830  0.29600  1.0000 -0.213250952
C   C20       1.0  0.15170  0.05450  0.62933  1.0000 -0.213250952
C   C21       1.0  0.94550  0.09720  0.96267  1.0000 -0.213250952
C   C22       1.0  0.84830  0.90280  0.70400  1.0000 -0.213250952
C   C23       1.0  0.05450  0.15170  0.37067  1.0000 -0.213250952
C   C24       1.0  0.09720  0.94550  0.03733  1.0000 -0.213250952
C   C25       1.0  0.78050  0.78280  0.31720  1.0000 0.0225076103
C   C26       1.0  0.21720  0.99770  0.65053  1.0000 0.0225076103
C   C27       1.0  0.00230  0.21950  0.98387  1.0000 0.0225076103
C   C28       1.0  0.78280  0.78050  0.68280  1.0000 0.0225076103
C   C29       1.0  0.99770  0.21720  0.34947  1.0000 0.0225076103
C   C30       1.0  0.21950  0.00230  0.01613  1.0000 0.0225076103
C   C31       1.0  0.74670  0.86090  0.34800  1.0000 0.5723441472
C   C32       1.0  0.13910  0.88580  0.68133  1.0000 0.5723441472
C   C33       1.0  0.11420  0.25330  0.01467  1.0000 0.5723441472
C   C34       1.0  0.86090  0.74670  0.65200  1.0000 0.5723441472
C   C35       1.0  0.88580  0.13910  0.31867  1.0000 0.5723441472
C   C36       1.0  0.25330  0.11420  0.98533  1.0000 0.5723441472
C   C37       1.0  0.85700  0.50750  0.18610  1.0000 -0.2189183273
C   C38       1.0  0.49250  0.34950  0.51943  1.0000 -0.2189183273
C   C39       1.0  0.65050  0.14300  0.85277  1.0000 -0.2189183273
C   C40       1.0  0.50750  0.85700  0.81390  1.0000 -0.2189183273
C   C41       1.0  0.34950  0.49250  0.48057  1.0000 -0.2189183273
C   C42       1.0  0.14300  0.65050  0.14723  1.0000 -0.2189183273
C   C43       1.0  0.73530  0.43880  0.20760  1.0000 0.0225076103
C   C44       1.0  0.56120  0.29650  0.54093  1.0000 0.0225076103
C   C45       1.0  0.70350  0.26470  0.87427  1.0000 0.0225076103
C   C46       1.0  0.43880  0.73530  0.79240  1.0000 0.0225076103
C   C47       1.0  0.29650  0.56120  0.45907  1.0000 0.0225076103
C   C48       1.0  0.26470  0.70350  0.12573  1.0000 0.0225076103
C   C49       1.0  0.72020  0.33200  0.23960  1.0000 0.5304072529
C   C50       1.0  0.66800  0.38820  0.57293  1.0000 0.5304072529
C   C51       1.0  0.61180  0.27980  0.90627  1.0000 0.5304072529
C   C52       1.0  0.33200  0.72020  0.76040  1.0000 0.5304072529
C   C53       1.0  0.38820  0.66800  0.42707  1.0000 0.5304072529
C   C54       1.0  0.27980  0.61180  0.09373  1.0000 0.5304072529
S   S1        1.0  0.85576  0.83595  0.15858  1.0000 -0.122851339
S   S2        1.0  0.16405  0.01981  0.49191  1.0000 -0.126855579
S   S3        1.0  0.98019  0.14424  0.82525  1.0000 -0.122851339
S   S4        1.0  0.83595  0.85576  0.84142  1.0000 -0.122851339
S   S5        1.0  0.01981  0.16405  0.50809  1.0000 -0.126855579
S   S6        1.0  0.14424  0.98019  0.17475  1.0000 -0.122851339
S   S7        1.0  0.93046  0.74645  0.25793  1.0000 -0.1368213366
S   S8        1.0  0.25355  0.18401  0.59126  1.0000 -0.1368213366
S   S9        1.0  0.81599  0.06954  0.92460  1.0000 -0.1368213366
S   S10       1.0  0.74645  0.93046  0.74207  1.0000 -0.1368213366
S   S11       1.0  0.18401  0.25355  0.40874  1.0000 -0.1368213366
S   S12       1.0  0.06954  0.81599  0.07540  1.0000 -0.1368213366
S   S13       1.0  0.86012  0.62052  0.14312  1.0000 -0.112060231
S   S14       1.0  0.37948  0.23960  0.47645  1.0000 -0.112060231
S   S15       1.0  0.76040  0.13988  0.80979  1.0000 -0.112060231
S   S16       1.0  0.62052  0.86012  0.85688  1.0000 -0.112060231
S   S17       1.0  0.23960  0.37948  0.52355  1.0000 -0.112060231
S   S18       1.0  0.13988  0.76040  0.19021  1.0000 -0.112060231
N   N1        1.0  0.63340  0.62340  0.15590  1.0000 -0.450726295
N   N2        1.0  0.37660  0.01000  0.48923  1.0000 -0.450726295
N   N3        1.0  0.99000  0.36660  0.82257  1.0000 -0.450726295
N   N4        1.0  0.62340  0.63340  0.84410  1.0000 -0.450726295
N   N5        1.0  0.01000  0.37660  0.51077  1.0000 -0.450726295
N   N6        1.0  0.36660  0.99000  0.17743  1.0000 -0.450726295
N   N7        1.0  0.70370  0.72310  0.26750  1.0000 -0.450726295
N   N8        1.0  0.27690  0.98060  0.60083  1.0000 -0.450726295
N   N9        1.0  0.01940  0.29630  0.93417  1.0000 -0.450726295
N   N10       1.0  0.72310  0.70370  0.73250  1.0000 -0.450726295
N   N11       1.0  0.98060  0.27690  0.39917  1.0000 -0.450726295
N   N12       1.0  0.29630  0.01940  0.06583  1.0000 -0.450726295
N   N13       1.0  0.70750  0.51270  0.24340  1.0000 -0.4581489186
N   N14       1.0  0.48730  0.19480  0.57673  1.0000 -0.4581489186
N   N15       1.0  0.80520  0.29250  0.91007  1.0000 -0.4581489186
N   N16       1.0  0.51270  0.70750  0.75660  1.0000 -0.4581489186
N   N17       1.0  0.19480  0.48730  0.42327  1.0000 -0.4581489186
N   N18       1.0  0.29250  0.80520  0.08993  1.0000 -0.4581489186
O   O1        1.0  0.51650  0.54540  0.05902  1.0000 -0.5694268515
O   O2        1.0  0.45460  0.97110  0.39235  1.0000 -0.5694268515
O   O3        1.0  0.02890  0.48350  0.72569  1.0000 -0.5694268515
O   O4        1.0  0.54540  0.51650  0.94098  1.0000 -0.5694268515
O   O5        1.0  0.97110  0.45460  0.60765  1.0000 -0.5694268515
O   O6        1.0  0.48350  0.02890  0.27431  1.0000 -0.5694268515
O   O7        1.0  0.56410  0.71480  0.02085  1.0000 -0.4982504134
O   O8        1.0  0.28520  0.84930  0.35418  1.0000 -0.4982504134
O   O9        1.0  0.15070  0.43590  0.68752  1.0000 -0.4982504134
O   O10       1.0  0.71480  0.56410  0.97915  1.0000 -0.4982504134
O   O11       1.0  0.84930  0.28520  0.64582  1.0000 -0.4982504134
O   O12       1.0  0.43590  0.15070  0.31248  1.0000 -0.4982504134
O   O13       1.0  0.67740  0.88070  0.32117  1.0000 -0.5928395162
O   O14       1.0  0.11930  0.79670  0.65450  1.0000 -0.5928395162
O   O15       1.0  0.20330  0.32260  0.98784  1.0000 -0.5928395162
O   O16       1.0  0.88070  0.67740  0.67883  1.0000 -0.5928395162
O   O17       1.0  0.79670  0.11930  0.34550  1.0000 -0.5928395162
O   O18       1.0  0.32260  0.20330  0.01216  1.0000 -0.5928395162
O   O19       1.0  0.78830  0.89880  0.39692  1.0000 -0.4935039252
O   O20       1.0  0.10120  0.88950  0.73025  1.0000 -0.4982504134
O   O21       1.0  0.11050  0.21170  0.06359  1.0000 -0.4982504134
O   O22       1.0  0.89880  0.78830  0.60308  1.0000 -0.4935039252
O   O23       1.0  0.88950  0.10120  0.26975  1.0000 -0.4935039252
O   O24       1.0  0.21170  0.11050  0.93641  1.0000 -0.4935039252
O   O25       1.0  0.67690  0.24030  0.21170  1.0000 -0.512587902
O   O26       1.0  0.75970  0.43660  0.54503  1.0000 -0.512587902
O   O27       1.0  0.56340  0.32310  0.87837  1.0000 -0.512587902
O   O28       1.0  0.24030  0.67690  0.78830  1.0000 -0.512587902
O   O29       1.0  0.43660  0.75970  0.45497  1.0000 -0.512587902
O   O30       1.0  0.32310  0.56340  0.12163  1.0000 -0.512587902
O   O31       1.0  0.75820  0.34720  0.29040  1.0000 -0.4982504134
O   O32       1.0  0.65280  0.41100  0.62373  1.0000 -0.4982504134
O   O33       1.0  0.58900  0.24180  0.95707  1.0000 -0.4982504134
O   O34       1.0  0.34720  0.75820  0.70960  1.0000 -0.4982504134
O   O35       1.0  0.41100  0.65280  0.37627  1.0000 -0.4982504134
O   O36       1.0  0.24180  0.58900  0.04293  1.0000 -0.4982504134
O   O37       1.0  0.32130  0.36900  0.09463  1.0000 -0.2189183273
O   O38       1.0  0.63100  0.95230  0.42796  1.0000 -0.2189183273
O   O39       1.0  0.04770  0.67870  0.76130  1.0000 -0.2189183273
O   O40       1.0  0.36900  0.32130  0.90537  1.0000 -0.2256325007
O   O41       1.0  0.95230  0.63100  0.57204  1.0000 -0.2189183273
O   O42       1.0  0.67870  0.04770  0.23870  1.0000 -0.2189183273
O   O43       1.0  0.54510  0.36550  0.02959  1.0000 -0.2476171846
O   O44       1.0  0.63450  0.17960  0.36292  1.0000 -0.2476171846
O   O45       1.0  0.82040  0.45490  0.69626  1.0000 -0.2476171846
O   O46       1.0  0.36550  0.54510  0.97041  1.0000 -0.2476171846
O   O47       1.0  0.17960  0.63450  0.63708  1.0000 -0.2476171846
O   O48       1.0  0.45490  0.82040  0.30374  1.0000 -0.2476171846
