# DDEC6 charges by PACMAN v1.1 (https://github.com/mtap-research/PACMAN-charge/)
data_2010[Zn][dia]3[FSR]2
_chemical_formula_sum              "Zn4 H72 C88 N8 O16"
_cell_length_a       6.2047
_cell_length_b       17.746
_cell_length_c       20.4535
_cell_angle_alpha    90
_cell_angle_beta     99.009
_cell_angle_gamma    90

_symmetry_space_group_name_H-M    "P 1"
_symmetry_Int_Tables_number       1

loop_
  _symmetry_equiv_pos_as_xyz
  'x, y, z'

loop_
  _atom_site_type_symbol
  _atom_site_label
  _atom_site_symmetry_multiplicity
  _atom_site_fract_x
  _atom_site_fract_y
  _atom_site_fract_z
  _atom_site_occupancy
  _atom_site_charge
Zn  Zn1       1.0  0.93129  0.51380  0.71938  1.0000 0.732438639
Zn  Zn2       1.0  0.06871  0.01380  0.78062  1.0000 0.732438639
Zn  Zn3       1.0  0.06871  0.48620  0.28062  1.0000 0.732438639
Zn  Zn4       1.0  0.93129  0.98620  0.21938  1.0000 0.732438639
H   H1        1.0  0.37790  0.71400  0.73450  1.0000 0.1403516341
H   H2        1.0  0.62210  0.21400  0.76550  1.0000 0.1403516341
H   H3        1.0  0.62210  0.28600  0.26550  1.0000 0.1403516341
H   H4        1.0  0.37790  0.78600  0.23450  1.0000 0.1403516341
H   H5        1.0  0.15870  0.75880  0.71520  1.0000 0.1528145225
H   H6        1.0  0.84130  0.25880  0.78480  1.0000 0.1528145225
H   H7        1.0  0.84130  0.24120  0.28480  1.0000 0.1528145225
H   H8        1.0  0.15870  0.74120  0.21520  1.0000 0.1528145225
H   H9        1.0  0.50850  0.68360  0.84740  1.0000 0.1175584713
H   H10       1.0  0.49150  0.18360  0.65260  1.0000 0.1175584713
H   H11       1.0  0.49150  0.31640  0.15260  1.0000 0.1175584713
H   H12       1.0  0.50850  0.81640  0.34740  1.0000 0.1175584713
H   H13       1.0  0.50290  0.69920  0.95740  1.0000 0.1093688882
H   H14       1.0  0.49710  0.19920  0.54260  1.0000 0.1093688882
H   H15       1.0  0.49710  0.30080  0.04260  1.0000 0.1093688882
H   H16       1.0  0.50290  0.80080  0.45740  1.0000 0.1093688882
H   H17       1.0  0.19940  0.74940  0.99280  1.0000 0.1175584713
H   H18       1.0  0.80060  0.24940  0.50720  1.0000 0.1175584713
H   H19       1.0  0.80060  0.25060  0.00720  1.0000 0.1175584713
H   H20       1.0  0.19940  0.75060  0.49280  1.0000 0.1175584713
H   H21       1.0  0.91000  0.79090  0.91620  1.0000 0.1175584713
H   H22       1.0  0.09000  0.29090  0.58380  1.0000 0.1175584713
H   H23       1.0  0.09000  0.20910  0.08380  1.0000 0.1175584713
H   H24       1.0  0.91000  0.70910  0.41620  1.0000 0.1175584713
H   H25       1.0  0.71060  0.79270  0.80680  1.0000 0.1296534316
H   H26       1.0  0.28940  0.29270  0.69320  1.0000 0.1296534316
H   H27       1.0  0.28940  0.20730  0.19320  1.0000 0.1296534316
H   H28       1.0  0.71060  0.70730  0.30680  1.0000 0.1296534316
H   H29       1.0  0.80760  0.75420  0.74890  1.0000 0.1403516341
H   H30       1.0  0.19240  0.25420  0.75110  1.0000 0.1403516341
H   H31       1.0  0.19240  0.24580  0.25110  1.0000 0.1403516341
H   H32       1.0  0.80760  0.74580  0.24890  1.0000 0.1403516341
H   H33       1.0  0.52790  0.47320  0.77630  1.0000 0.1175584713
H   H34       1.0  0.47210  0.97320  0.72370  1.0000 0.1175584713
H   H35       1.0  0.47210  0.52680  0.22370  1.0000 0.1175584713
H   H36       1.0  0.52790  0.02680  0.27630  1.0000 0.1175584713
H   H37       1.0  0.40140  0.47030  0.87410  1.0000 0.1403516341
H   H38       1.0  0.59860  0.97030  0.62590  1.0000 0.1403516341
H   H39       1.0  0.59860  0.52970  0.12590  1.0000 0.1403516341
H   H40       1.0  0.40140  0.02970  0.37410  1.0000 0.1403516341
H   H41       1.0  0.93640  0.57750  0.95740  1.0000 0.1403516341
H   H42       1.0  0.06360  0.07750  0.54260  1.0000 0.1403516341
H   H43       1.0  0.06360  0.42250  0.04260  1.0000 0.1403516341
H   H44       1.0  0.93640  0.92250  0.45740  1.0000 0.1403516341
H   H45       1.0  0.05730  0.57700  0.85820  1.0000 0.1093688882
H   H46       1.0  0.94270  0.07700  0.64180  1.0000 0.1093688882
H   H47       1.0  0.94270  0.42300  0.14180  1.0000 0.1093688882
H   H48       1.0  0.05730  0.92300  0.35820  1.0000 0.1093688882
H   H49       1.0  0.66070  0.54960  0.02580  1.0000 0.1296534316
H   H50       1.0  0.33930  0.04960  0.47420  1.0000 0.1296534316
H   H51       1.0  0.33930  0.45040  0.97420  1.0000 0.1296534316
H   H52       1.0  0.66070  0.95040  0.52580  1.0000 0.1296534316
H   H53       1.0  0.54860  0.60640  0.65590  1.0000 0.1175584713
H   H54       1.0  0.45140  0.10640  0.84410  1.0000 0.1175584713
H   H55       1.0  0.45140  0.39360  0.34410  1.0000 0.1175584713
H   H56       1.0  0.54860  0.89360  0.15590  1.0000 0.1175584713
H   H57       1.0  0.23740  0.59560  0.58120  1.0000 0.1403516341
H   H58       1.0  0.76260  0.09560  0.91880  1.0000 0.1403516341
H   H59       1.0  0.76260  0.40440  0.41880  1.0000 0.1403516341
H   H60       1.0  0.23740  0.90440  0.08120  1.0000 0.1403516341
H   H61       1.0  0.40270  0.38320  0.54770  1.0000 0.1403516341
H   H62       1.0  0.59730  0.88320  0.95230  1.0000 0.1403516341
H   H63       1.0  0.59730  0.61680  0.45230  1.0000 0.1403516341
H   H64       1.0  0.40270  0.11680  0.04770  1.0000 0.1403516341
H   H65       1.0  0.70800  0.39900  0.62380  1.0000 0.1093688882
H   H66       1.0  0.29200  0.89900  0.87620  1.0000 0.1093688882
H   H67       1.0  0.29200  0.60100  0.37620  1.0000 0.1093688882
H   H68       1.0  0.70800  0.10100  0.12380  1.0000 0.1093688882
H   H69       1.0  0.06510  0.42940  0.48630  1.0000 0.1296534316
H   H70       1.0  0.93490  0.92940  0.01370  1.0000 0.1296534316
H   H71       1.0  0.93490  0.57060  0.51370  1.0000 0.1296534316
H   H72       1.0  0.06510  0.07060  0.98630  1.0000 0.1296534316
C   C1        1.0  0.11090  0.64530  0.71950  1.0000 0.5915848763
C   C2        1.0  0.88910  0.14530  0.78050  1.0000 0.5915848763
C   C3        1.0  0.88910  0.35470  0.28050  1.0000 0.5915848763
C   C4        1.0  0.11090  0.85470  0.21950  1.0000 0.5915848763
C   C5        1.0  0.22690  0.71710  0.74120  1.0000 -0.3844220488
C   C6        1.0  0.77310  0.21710  0.75880  1.0000 -0.3844220488
C   C7        1.0  0.77310  0.28290  0.25880  1.0000 -0.3844220488
C   C8        1.0  0.22690  0.78290  0.24120  1.0000 -0.3844220488
C   C9        1.0  0.21600  0.73000  0.81430  1.0000 0.0892215466
C   C10       1.0  0.78400  0.23000  0.68570  1.0000 0.0892215466
C   C11       1.0  0.78400  0.27000  0.18570  1.0000 0.0892215466
C   C12       1.0  0.21600  0.77000  0.31430  1.0000 0.0892215466
C   C13       1.0  0.38780  0.70590  0.86120  1.0000 -0.1672171502
C   C14       1.0  0.61220  0.20590  0.63880  1.0000 -0.1672171502
C   C15       1.0  0.61220  0.29410  0.13880  1.0000 -0.1672171502
C   C16       1.0  0.38780  0.79410  0.36120  1.0000 -0.1672171502
C   C17       1.0  0.38390  0.71430  0.92670  1.0000 -0.1225136964
C   C18       1.0  0.61610  0.21430  0.57330  1.0000 -0.1225136964
C   C19       1.0  0.61610  0.28570  0.07330  1.0000 -0.1225136964
C   C20       1.0  0.38390  0.78570  0.42670  1.0000 -0.1225136964
C   C21       1.0  0.20470  0.74490  0.94780  1.0000 -0.1261459848
C   C22       1.0  0.79530  0.24490  0.55220  1.0000 -0.1261459848
C   C23       1.0  0.79530  0.25510  0.05220  1.0000 -0.1261459848
C   C24       1.0  0.20470  0.75510  0.44780  1.0000 -0.1261459848
C   C25       1.0  0.03030  0.76930  0.90150  1.0000 -0.1753725706
C   C26       1.0  0.96970  0.26930  0.59850  1.0000 -0.1753725706
C   C27       1.0  0.96970  0.23070  0.09850  1.0000 -0.1753725706
C   C28       1.0  0.03030  0.73070  0.40150  1.0000 -0.1753725706
C   C29       1.0  0.03090  0.76220  0.83380  1.0000 0.0958108792
C   C30       1.0  0.96910  0.26220  0.66620  1.0000 0.0958108792
C   C31       1.0  0.96910  0.23780  0.16620  1.0000 0.0958108792
C   C32       1.0  0.03090  0.73780  0.33380  1.0000 0.0958108792
C   C33       1.0  0.83810  0.79010  0.78490  1.0000 -0.3983781559
C   C34       1.0  0.16190  0.29010  0.71510  1.0000 -0.3983781559
C   C35       1.0  0.16190  0.20990  0.21510  1.0000 -0.3983781559
C   C36       1.0  0.83810  0.70990  0.28490  1.0000 -0.3983781559
C   C37       1.0  0.87710  0.86710  0.75650  1.0000 0.6290002616
C   C38       1.0  0.12290  0.36710  0.74350  1.0000 0.6290002616
C   C39       1.0  0.12290  0.13290  0.24350  1.0000 0.6290002616
C   C40       1.0  0.87710  0.63290  0.25650  1.0000 0.6290002616
C   C41       1.0  0.61400  0.49370  0.81330  1.0000 0.0958108792
C   C42       1.0  0.38600  0.99370  0.68670  1.0000 0.0958108792
C   C43       1.0  0.38600  0.50630  0.18670  1.0000 0.0958108792
C   C44       1.0  0.61400  0.00630  0.31330  1.0000 0.0958108792
C   C45       1.0  0.53640  0.49220  0.87200  1.0000 -0.1753725706
C   C46       1.0  0.46360  0.99220  0.62800  1.0000 -0.1753725706
C   C47       1.0  0.46360  0.50780  0.12800  1.0000 -0.1753725706
C   C48       1.0  0.53640  0.00780  0.37200  1.0000 -0.1753725706
C   C49       1.0  0.65460  0.52240  0.92800  1.0000 0.1403516341
C   C50       1.0  0.34540  0.02240  0.57200  1.0000 0.1403516341
C   C51       1.0  0.34540  0.47760  0.07200  1.0000 0.1403516341
C   C52       1.0  0.65460  0.97760  0.42800  1.0000 0.1403516341
C   C53       1.0  0.85180  0.55510  0.92110  1.0000 -0.2066319174
C   C54       1.0  0.14820  0.05510  0.57890  1.0000 -0.2066319174
C   C55       1.0  0.14820  0.44490  0.07890  1.0000 -0.2066319174
C   C56       1.0  0.85180  0.94490  0.42110  1.0000 -0.2066319174
C   C57       1.0  0.92360  0.55480  0.86120  1.0000 0.0802330842
C   C58       1.0  0.07640  0.05480  0.63880  1.0000 0.0802330842
C   C59       1.0  0.07640  0.44520  0.13880  1.0000 0.0802330842
C   C60       1.0  0.92360  0.94520  0.36120  1.0000 0.0802330842
C   C61       1.0  0.58360  0.52030  0.99240  1.0000 -0.1476785799
C   C62       1.0  0.41640  0.02030  0.50760  1.0000 -0.1476785799
C   C63       1.0  0.41640  0.47970  0.00760  1.0000 -0.1476785799
C   C64       1.0  0.58360  0.97970  0.49240  1.0000 -0.1476785799
C   C65       1.0  0.51860  0.56070  0.63410  1.0000 0.0892215466
C   C66       1.0  0.48140  0.06070  0.86590  1.0000 0.0892215466
C   C67       1.0  0.48140  0.43930  0.36590  1.0000 0.0892215466
C   C68       1.0  0.51860  0.93930  0.13410  1.0000 0.0892215466
C   C69       1.0  0.33110  0.55460  0.58920  1.0000 -0.1908701731
C   C70       1.0  0.66890  0.05460  0.91080  1.0000 -0.1908701731
C   C71       1.0  0.66890  0.44540  0.41080  1.0000 -0.1908701731
C   C72       1.0  0.33110  0.94540  0.08920  1.0000 -0.1908701731
C   C73       1.0  0.27990  0.48700  0.55540  1.0000 0.1641518624
C   C74       1.0  0.72010  0.98700  0.94460  1.0000 0.1641518624
C   C75       1.0  0.72010  0.51300  0.44460  1.0000 0.1641518624
C   C76       1.0  0.27990  0.01300  0.05540  1.0000 0.1641518624
C   C77       1.0  0.42780  0.42920  0.56940  1.0000 -0.2021918593
C   C78       1.0  0.57220  0.92920  0.93060  1.0000 -0.2021918593
C   C79       1.0  0.57220  0.57080  0.43060  1.0000 -0.2021918593
C   C80       1.0  0.42780  0.07080  0.06940  1.0000 -0.2021918593
C   C81       1.0  0.61170  0.43930  0.61510  1.0000 0.0802330842
C   C82       1.0  0.38830  0.93930  0.88490  1.0000 0.0802330842
C   C83       1.0  0.38830  0.56070  0.38490  1.0000 0.0802330842
C   C84       1.0  0.61170  0.06070  0.11510  1.0000 0.0802330842
C   C85       1.0  0.08020  0.47570  0.50780  1.0000 -0.1440759598
C   C86       1.0  0.91980  0.97570  0.99220  1.0000 -0.1440759598
C   C87       1.0  0.91980  0.52430  0.49220  1.0000 -0.1440759598
C   C88       1.0  0.08020  0.02430  0.00780  1.0000 -0.1440759598
N   N1        1.0  0.80820  0.52330  0.80600  1.0000 -0.2399492784
N   N2        1.0  0.19180  0.02330  0.69400  1.0000 -0.2399492784
N   N3        1.0  0.19180  0.47670  0.19400  1.0000 -0.2399492784
N   N4        1.0  0.80820  0.97670  0.30600  1.0000 -0.2399492784
N   N5        1.0  0.66090  0.50410  0.64815  1.0000 -0.2399492784
N   N6        1.0  0.33910  0.00410  0.85185  1.0000 -0.2399492784
N   N7        1.0  0.33910  0.49590  0.35185  1.0000 -0.2399492784
N   N8        1.0  0.66090  0.99590  0.14815  1.0000 -0.2399492784
O   O1        1.0  0.93790  0.64630  0.68100  1.0000 -0.5347088425
O   O2        1.0  0.06210  0.14630  0.81900  1.0000 -0.5347088425
O   O3        1.0  0.06210  0.35370  0.31900  1.0000 -0.5347088425
O   O4        1.0  0.93790  0.85370  0.18100  1.0000 -0.5351924746
O   O5        1.0  0.18380  0.58450  0.74284  1.0000 -0.5056056528
O   O6        1.0  0.81620  0.08450  0.75716  1.0000 -0.5056056528
O   O7        1.0  0.81620  0.41550  0.25716  1.0000 -0.5056056528
O   O8        1.0  0.18380  0.91550  0.24284  1.0000 -0.5056056528
O   O9        1.0  0.83140  0.87990  0.69715  1.0000 -0.5633186547
O   O10       1.0  0.16860  0.37990  0.80285  1.0000 -0.5633186547
O   O11       1.0  0.16860  0.12010  0.30285  1.0000 -0.5633186547
O   O12       1.0  0.83140  0.62010  0.19715  1.0000 -0.5633186547
O   O13       1.0  0.95150  0.91594  0.79909  1.0000 -0.5633186547
O   O14       1.0  0.04850  0.41594  0.70091  1.0000 -0.5633186547
O   O15       1.0  0.04850  0.08406  0.20091  1.0000 -0.5633186547
O   O16       1.0  0.95150  0.58406  0.29909  1.0000 -0.5633186547
