# DDEC6 charges by PACMAN v1.1 (https://github.com/mtap-research/PACMAN-charge/)
data_2010[Zn][jeb]3[FSR]1
_chemical_formula_sum              "Zn3 H58 C44 N8 O16"
_cell_length_a       8.3207
_cell_length_b       13.112
_cell_length_c       13.4253
_cell_angle_alpha    108.284
_cell_angle_beta     100.242
_cell_angle_gamma    88.055

_symmetry_space_group_name_H-M    "P 1"
_symmetry_Int_Tables_number       1

loop_
  _symmetry_equiv_pos_as_xyz
  'x, y, z'

loop_
  _atom_site_type_symbol
  _atom_site_label
  _atom_site_symmetry_multiplicity
  _atom_site_fract_x
  _atom_site_fract_y
  _atom_site_fract_z
  _atom_site_occupancy
  _atom_site_charge
Zn  Zn1       1.0  0.77437  0.63699  0.63916  1.0000 0.7305486118
Zn  Zn2       1.0  0.22563  0.36301  0.36084  1.0000 0.7305486118
Zn  Zn3       1.0  0.00000  0.00000  0.00000  1.0000 0.975838474
H   H1        1.0  0.22200  0.01000  0.18100  1.0000 0.3317686831
H   H2        1.0  0.77800  0.99000  0.81900  1.0000 0.3317686831
H   H3        1.0  0.10100  0.08010  0.20800  1.0000 0.3542333012
H   H4        1.0  0.89900  0.91990  0.79200  1.0000 0.3542333012
H   H5        1.0  0.13800  0.18910  0.04020  1.0000 0.338820151
H   H6        1.0  0.86200  0.81090  0.95980  1.0000 0.338820151
H   H7        1.0  0.15700  0.11890  0.94440  1.0000 0.318173117
H   H8        1.0  0.84300  0.88110  0.05560  1.0000 0.318173117
H   H9        1.0  0.83410  0.51800  0.78780  1.0000 0.1093963588
H   H10       1.0  0.16590  0.48200  0.21220  1.0000 0.1093963588
H   H11       1.0  0.88400  0.34670  0.79710  1.0000 0.1392283847
H   H12       1.0  0.11600  0.65330  0.20290  1.0000 0.1392283847
H   H13       1.0  0.73120  0.23090  0.47870  1.0000 0.1487588748
H   H14       1.0  0.26880  0.76910  0.52130  1.0000 0.1487588748
H   H15       1.0  0.67850  0.40480  0.47810  1.0000 0.1093963588
H   H16       1.0  0.32150  0.59520  0.52190  1.0000 0.1093963588
H   H17       1.0  0.94190  0.16320  0.70650  1.0000 0.1179502582
H   H18       1.0  0.05810  0.83680  0.29350  1.0000 0.1179502582
H   H19       1.0  0.75250  0.13120  0.66580  1.0000 0.1179502582
H   H20       1.0  0.24750  0.86880  0.33420  1.0000 0.1179502582
H   H21       1.0  0.80760  0.95120  0.58430  1.0000 0.1027354365
H   H22       1.0  0.19240  0.04880  0.41570  1.0000 0.1027354365
H   H23       1.0  0.99710  0.98050  0.63190  1.0000 0.1093963588
H   H24       1.0  0.00290  0.01950  0.36810  1.0000 0.1093963588
H   H25       1.0  0.13110  0.11700  0.58960  1.0000 0.0919029976
H   H26       1.0  0.86890  0.88300  0.41040  1.0000 0.0919029976
H   H27       1.0  0.03180  0.17980  0.51410  1.0000 0.1027354365
H   H28       1.0  0.96820  0.82020  0.48590  1.0000 0.1027354365
H   H29       1.0  0.59400  0.77240  0.51770  1.0000 0.1093963588
H   H30       1.0  0.40600  0.22760  0.48230  1.0000 0.1093963588
H   H31       1.0  0.54770  0.78960  0.34860  1.0000 0.1392283847
H   H32       1.0  0.45230  0.21040  0.65140  1.0000 0.1392283847
H   H33       1.0  0.83110  0.53250  0.25450  1.0000 0.1392283847
H   H34       1.0  0.16890  0.46750  0.74550  1.0000 0.1392283847
H   H35       1.0  0.87180  0.52260  0.42570  1.0000 0.1093963588
H   H36       1.0  0.12820  0.47740  0.57430  1.0000 0.1093963588
H   H37       1.0  0.56030  0.72170  0.16580  1.0000 0.1179502582
H   H38       1.0  0.43970  0.27830  0.83420  1.0000 0.1179502582
H   H39       1.0  0.75020  0.70480  0.15990  1.0000 0.1307707345
H   H40       1.0  0.24980  0.29520  0.84010  1.0000 0.1307707345
H   H41       1.0  0.37530  0.56660  0.10490  1.0000 0.0919029976
H   H42       1.0  0.62470  0.43340  0.89510  1.0000 0.0919029976
H   H43       1.0  0.49180  0.50380  0.17360  1.0000 0.1093963588
H   H44       1.0  0.50820  0.49620  0.82640  1.0000 0.1093963588
H   H45       1.0  0.67210  0.62050  0.97180  1.0000 0.1179502582
H   H46       1.0  0.32790  0.37950  0.02820  1.0000 0.1179502582
H   H47       1.0  0.48370  0.63670  0.98340  1.0000 0.1093963588
H   H48       1.0  0.51630  0.36330  0.01660  1.0000 0.1093963588
H   H49       1.0  0.57520  0.90130  0.88320  1.0000 0.1392283847
H   H50       1.0  0.42480  0.09870  0.11680  1.0000 0.1392283847
H   H51       1.0  0.51460  0.80720  0.92060  1.0000 0.1392283847
H   H52       1.0  0.48540  0.19280  0.07940  1.0000 0.1392283847
H   H53       1.0  0.35280  0.85380  0.73290  1.0000 0.0919029976
H   H54       1.0  0.64720  0.14620  0.26710  1.0000 0.0919029976
H   H55       1.0  0.31220  0.67570  0.73150  1.0000 0.1179502582
H   H56       1.0  0.68780  0.32430  0.26850  1.0000 0.1179502582
H   H57       1.0  0.24750  0.71950  0.84190  1.0000 0.1307707345
H   H58       1.0  0.75250  0.28050  0.15810  1.0000 0.1307707345
C   C1        1.0  0.81210  0.45880  0.72421  1.0000 0.0790509851
C   C2        1.0  0.18790  0.54120  0.27579  1.0000 0.0790509851
C   C3        1.0  0.84340  0.35685  0.73021  1.0000 -0.2181549082
C   C4        1.0  0.15660  0.64315  0.26979  1.0000 -0.2181549082
C   C5        1.0  0.81550  0.26882  0.63838  1.0000 0.1487588748
C   C6        1.0  0.18450  0.73118  0.36162  1.0000 0.1487588748
C   C7        1.0  0.75290  0.28871  0.54348  1.0000 -0.200227716
C   C8        1.0  0.24710  0.71129  0.45652  1.0000 -0.200227716
C   C9        1.0  0.72250  0.39275  0.54371  1.0000 0.0695714196
C   C10       1.0  0.27750  0.60725  0.45629  1.0000 0.0695714196
C   C11       1.0  0.84950  0.15783  0.64726  1.0000 -0.190346309
C   C12       1.0  0.15050  0.84217  0.35274  1.0000 -0.190346309
C   C13       1.0  0.91050  0.97395  0.56914  1.0000 -0.1204199701
C   C14       1.0  0.08950  0.02605  0.43086  1.0000 -0.1204199701
C   C15       1.0  0.04330  0.10945  0.52721  1.0000 -0.1204199701
C   C16       1.0  0.95670  0.89055  0.47279  1.0000 -0.1204199701
C   C17       1.0  0.64210  0.72301  0.46334  1.0000 0.0790509851
C   C18       1.0  0.35790  0.27699  0.53666  1.0000 0.0790509851
C   C19       1.0  0.61410  0.73367  0.36268  1.0000 -0.2181549082
C   C20       1.0  0.38590  0.26633  0.63732  1.0000 -0.2181549082
C   C21       1.0  0.68320  0.66249  0.28208  1.0000 0.1487588748
C   C22       1.0  0.31680  0.33751  0.71792  1.0000 0.1487588748
C   C23       1.0  0.78090  0.58258  0.30733  1.0000 -0.190346309
C   C24       1.0  0.21910  0.41742  0.69267  1.0000 -0.190346309
C   C25       1.0  0.80410  0.57699  0.40928  1.0000 0.0695714196
C   C26       1.0  0.19590  0.42301  0.59072  1.0000 0.0695714196
C   C27       1.0  0.65200  0.67261  0.17161  1.0000 -0.190346309
C   C28       1.0  0.34800  0.32739  0.82839  1.0000 -0.190346309
C   C29       1.0  0.46860  0.51757  0.10402  1.0000 -0.1277296329
C   C30       1.0  0.53140  0.48243  0.89598  1.0000 -0.1277296329
C   C31       1.0  0.57570  0.58687  0.98403  1.0000 -0.1204199701
C   C32       1.0  0.42430  0.41313  0.01597  1.0000 -0.1204199701
C   C33       1.0  0.62530  0.75083  0.78896  1.0000 0.6195595478
C   C34       1.0  0.37470  0.24917  0.21104  1.0000 0.6195595478
C   C35       1.0  0.52080  0.82951  0.85742  1.0000 -0.369120569
C   C36       1.0  0.47920  0.17049  0.14258  1.0000 -0.369120569
C   C37       1.0  0.34680  0.83904  0.80084  1.0000 -0.0440116069
C   C38       1.0  0.65320  0.16096  0.19916  1.0000 -0.0440116069
C   C39       1.0  0.25130  0.73434  0.77441  1.0000 -0.369120569
C   C40       1.0  0.74870  0.26566  0.22559  1.0000 -0.369120569
C   C41       1.0  0.07840  0.73047  0.71464  1.0000 0.6367703592
C   C42       1.0  0.92160  0.26953  0.28536  1.0000 0.6367703592
C   C43       1.0  0.26790  0.93470  0.87292  1.0000 0.5973143493
C   C44       1.0  0.73210  0.06530  0.12708  1.0000 0.5973143493
N   N1        1.0  0.75210  0.47815  0.63255  1.0000 -0.2504440481
N   N2        1.0  0.24790  0.52185  0.36745  1.0000 -0.2504440481
N   N3        1.0  0.88870  0.07907  0.55053  1.0000 -0.0928870598
N   N4        1.0  0.11130  0.92093  0.44947  1.0000 -0.0928870598
N   N5        1.0  0.73510  0.64515  0.48707  1.0000 -0.2446535686
N   N6        1.0  0.26490  0.35485  0.51293  1.0000 -0.2446535686
N   N7        1.0  0.61270  0.56867  0.08842  1.0000 -0.1016944507
N   N8        1.0  0.38730  0.43133  0.91158  1.0000 -0.1016944507
O   O1        1.0  0.74636  0.71227  0.83232  1.0000 -0.5692029679
O   O2        1.0  0.25364  0.28773  0.16768  1.0000 -0.5692029679
O   O3        1.0  0.58935  0.72749  0.68792  1.0000 -0.5595945502
O   O4        1.0  0.41065  0.27251  0.31208  1.0000 -0.5595945502
O   O5        1.0  0.01024  0.63705  0.68227  1.0000 -0.5773065472
O   O6        1.0  0.98976  0.36295  0.31773  1.0000 -0.5773065472
O   O7        1.0  0.00937  0.81085  0.69923  1.0000 -0.5595945502
O   O8        1.0  0.99063  0.18915  0.30077  1.0000 -0.5595945502
O   O9        1.0  0.18361  0.91482  0.93407  1.0000 -0.5773065472
O   O10       1.0  0.81639  0.08518  0.06593  1.0000 -0.5773065472
O   O11       1.0  0.29648  0.02672  0.86911  1.0000 -0.5923357094
O   O12       1.0  0.70352  0.97328  0.13089  1.0000 -0.5923357094
O   O13       1.0  0.13310  0.03140  0.15697  1.0000 -0.6656944538
O   O14       1.0  0.86690  0.96860  0.84303  1.0000 -0.6656944538
O   O15       1.0  0.08812  0.14506  0.98391  1.0000 -0.6834846521
O   O16       1.0  0.91188  0.85494  0.01609  1.0000 -0.6834846521
