# DDEC6 charges by PACMAN v1.1 (https://github.com/mtap-research/PACMAN-charge/)
data_2010[Nd][rtl]3[FSR]1
_chemical_formula_sum              "Nd4 P4 H60 C28 N4 O28"
_cell_length_a       5.5871
_cell_length_b       13.424
_cell_length_c       21.157
_cell_angle_alpha    90
_cell_angle_beta     96.148
_cell_angle_gamma    90

_symmetry_space_group_name_H-M    "P 1"
_symmetry_Int_Tables_number       1

loop_
  _symmetry_equiv_pos_as_xyz
  'x, y, z'

loop_
  _atom_site_type_symbol
  _atom_site_label
  _atom_site_symmetry_multiplicity
  _atom_site_fract_x
  _atom_site_fract_y
  _atom_site_fract_z
  _atom_site_occupancy
  _atom_site_charge
Nd  Nd1       1.0  0.62854  0.13445  0.97151  1.0000 2.1056230985
Nd  Nd2       1.0  0.37146  0.63445  0.52849  1.0000 2.1056230985
Nd  Nd3       1.0  0.37146  0.86555  0.02849  1.0000 2.1056230985
Nd  Nd4       1.0  0.62854  0.36555  0.47151  1.0000 2.1056230985
P   P1        1.0  0.91220  0.02307  0.08680  1.0000 1.3393829786
P   P2        1.0  0.08780  0.52307  0.41320  1.0000 1.3393829786
P   P3        1.0  0.08780  0.97693  0.91320  1.0000 1.3393829786
P   P4        1.0  0.91220  0.47693  0.58680  1.0000 1.3393829786
H   H1        1.0  0.36520  0.24590  0.05680  1.0000 0.3610894703
H   H2        1.0  0.63480  0.74590  0.44320  1.0000 0.3610894703
H   H3        1.0  0.63480  0.75410  0.94320  1.0000 0.3610894703
H   H4        1.0  0.36520  0.25410  0.55680  1.0000 0.3610894703
H   H5        1.0  0.52140  0.18810  0.09690  1.0000 0.3289639451
H   H6        1.0  0.47860  0.68810  0.40310  1.0000 0.3289639451
H   H7        1.0  0.47860  0.81190  0.90310  1.0000 0.3289639451
H   H8        1.0  0.52140  0.31190  0.59690  1.0000 0.3289639451
H   H9        1.0  0.79450  0.32510  0.93530  1.0000 0.3289639451
H   H10       1.0  0.20550  0.82510  0.56470  1.0000 0.3289639451
H   H11       1.0  0.20550  0.67490  0.06470  1.0000 0.3289639451
H   H12       1.0  0.79450  0.17490  0.43530  1.0000 0.3289639451
H   H13       1.0  0.00350  0.27570  0.95890  1.0000 0.3610894703
H   H14       1.0  0.99650  0.77570  0.54110  1.0000 0.3610894703
H   H15       1.0  0.99650  0.72430  0.04110  1.0000 0.3610894703
H   H16       1.0  0.00350  0.22430  0.45890  1.0000 0.3610894703
H   H17       1.0  0.76470  0.97450  0.17990  1.0000 0.1548319929
H   H18       1.0  0.23530  0.47450  0.32010  1.0000 0.1548319929
H   H19       1.0  0.23530  0.02550  0.82010  1.0000 0.1548319929
H   H20       1.0  0.76470  0.52550  0.67990  1.0000 0.155263456
H   H21       1.0  0.67430  0.08180  0.16150  1.0000 0.1289371014
H   H22       1.0  0.32570  0.58180  0.33850  1.0000 0.1289371014
H   H23       1.0  0.32570  0.91820  0.83850  1.0000 0.1289371014
H   H24       1.0  0.67430  0.41820  0.66150  1.0000 0.1289371014
H   H25       1.0  0.76010  0.10060  0.28060  1.0000 0.1012268379
H   H26       1.0  0.23990  0.60060  0.21940  1.0000 0.1012268379
H   H27       1.0  0.23990  0.89940  0.71940  1.0000 0.1012268379
H   H28       1.0  0.76010  0.39940  0.78060  1.0000 0.1012268379
H   H29       1.0  0.88940  0.99680  0.28640  1.0000 0.1095562575
H   H30       1.0  0.11060  0.49680  0.21360  1.0000 0.1095562575
H   H31       1.0  0.11060  0.00320  0.71360  1.0000 0.1095562575
H   H32       1.0  0.88940  0.50320  0.78640  1.0000 0.1095562575
H   H33       1.0  0.03350  0.09910  0.37130  1.0000 0.1095562575
H   H34       1.0  0.96650  0.59910  0.12870  1.0000 0.1095562575
H   H35       1.0  0.96650  0.90090  0.62870  1.0000 0.1095562575
H   H36       1.0  0.03350  0.40090  0.87130  1.0000 0.1012268379
H   H37       1.0  0.24310  0.07100  0.33090  1.0000 0.1184041197
H   H38       1.0  0.75690  0.57100  0.16910  1.0000 0.1184041197
H   H39       1.0  0.75690  0.92900  0.66910  1.0000 0.1184041197
H   H40       1.0  0.24310  0.42900  0.83090  1.0000 0.1184041197
H   H41       1.0  0.99240  0.25480  0.32250  1.0000 0.1184041197
H   H42       1.0  0.00760  0.75480  0.17750  1.0000 0.1184041197
H   H43       1.0  0.00760  0.74520  0.67750  1.0000 0.1184041197
H   H44       1.0  0.99240  0.24520  0.82250  1.0000 0.1184041197
H   H45       1.0  0.23620  0.30330  0.24560  1.0000 0.1095562575
H   H46       1.0  0.76380  0.80330  0.25440  1.0000 0.1095562575
H   H47       1.0  0.76380  0.69670  0.75440  1.0000 0.1095562575
H   H48       1.0  0.23620  0.19670  0.74560  1.0000 0.1095562575
H   H49       1.0  0.37050  0.20050  0.25080  1.0000 0.1012268379
H   H50       1.0  0.62950  0.70050  0.24920  1.0000 0.1012268379
H   H51       1.0  0.62950  0.79950  0.74920  1.0000 0.1012268379
H   H52       1.0  0.37050  0.29950  0.75080  1.0000 0.1012268379
H   H53       1.0  0.08070  0.19830  0.16130  1.0000 0.1095562575
H   H54       1.0  0.91930  0.69830  0.33870  1.0000 0.1095562575
H   H55       1.0  0.91930  0.80170  0.83870  1.0000 0.1095562575
H   H56       1.0  0.08070  0.30170  0.66130  1.0000 0.1095562575
H   H57       1.0  0.87650  0.22380  0.20430  1.0000 0.093187638
H   H58       1.0  0.12350  0.72380  0.29570  1.0000 0.093187638
H   H59       1.0  0.12350  0.77620  0.79570  1.0000 0.093187638
H   H60       1.0  0.87650  0.27620  0.70430  1.0000 0.093187638
C   C1        1.0  0.81490  0.03890  0.16530  1.0000 -0.4419796742
C   C2        1.0  0.18510  0.53890  0.33470  1.0000 -0.4419796742
C   C3        1.0  0.18510  0.96110  0.83470  1.0000 -0.4419796742
C   C4        1.0  0.81490  0.46110  0.66530  1.0000 -0.4419796742
C   C5        1.0  0.91320  0.06720  0.27900  1.0000 -0.1043285668
C   C6        1.0  0.08680  0.56720  0.22100  1.0000 -0.1043285668
C   C7        1.0  0.08680  0.93280  0.72100  1.0000 -0.1043285668
C   C8        1.0  0.91320  0.43280  0.77900  1.0000 -0.1043285668
C   C9        1.0  0.09390  0.10800  0.33040  1.0000 -0.207585176
C   C10       1.0  0.90610  0.60800  0.16960  1.0000 -0.207585176
C   C11       1.0  0.90610  0.89200  0.66960  1.0000 -0.207585176
C   C12       1.0  0.09390  0.39200  0.83040  1.0000 -0.207585176
C   C13       1.0  0.14400  0.21880  0.32040  1.0000 -0.1086967416
C   C14       1.0  0.85600  0.71880  0.17960  1.0000 -0.1086967416
C   C15       1.0  0.85600  0.78120  0.67960  1.0000 -0.1086967416
C   C16       1.0  0.14400  0.28120  0.82040  1.0000 -0.1086967416
C   C17       1.0  0.21680  0.23280  0.25370  1.0000 -0.207585176
C   C18       1.0  0.78320  0.73280  0.24630  1.0000 -0.207585176
C   C19       1.0  0.78320  0.76720  0.74630  1.0000 -0.207585176
C   C20       1.0  0.21680  0.26720  0.75370  1.0000 -0.207585176
C   C21       1.0  0.02830  0.18910  0.20320  1.0000 -0.1086967416
C   C22       1.0  0.97170  0.68910  0.29680  1.0000 -0.1086967416
C   C23       1.0  0.97170  0.81090  0.79680  1.0000 -0.1086967416
C   C24       1.0  0.02830  0.31090  0.70320  1.0000 -0.1086967416
C   C25       1.0  0.32600  0.26090  0.37170  1.0000 0.5647543989
C   C26       1.0  0.67400  0.76090  0.12830  1.0000 0.5647543989
C   C27       1.0  0.67400  0.73910  0.62830  1.0000 0.5647543989
C   C28       1.0  0.32600  0.23910  0.87170  1.0000 0.5647543989
N   N1        1.0  0.99420  0.08120  0.21510  1.0000 -0.0245678328
N   N2        1.0  0.00580  0.58120  0.28490  1.0000 -0.0262025014
N   N3        1.0  0.00580  0.91880  0.78490  1.0000 -0.0262025014
N   N4        1.0  0.99420  0.41880  0.71510  1.0000 -0.0245678328
O   O1        1.0  0.68580  0.98260  0.04648  1.0000 -0.9639553256
O   O2        1.0  0.31420  0.48260  0.45352  1.0000 -0.9639553256
O   O3        1.0  0.31420  0.01740  0.95352  1.0000 -0.9639553256
O   O4        1.0  0.68580  0.51740  0.54648  1.0000 -0.9639553256
O   O5        1.0  0.96320  0.12330  0.05740  1.0000 -0.8660049267
O   O6        1.0  0.03680  0.62330  0.44260  1.0000 -0.8660049267
O   O7        1.0  0.03680  0.87670  0.94260  1.0000 -0.8660049267
O   O8        1.0  0.96320  0.37670  0.55740  1.0000 -0.8660049267
O   O9        1.0  0.12270  0.95240  0.09190  1.0000 -0.8507662393
O   O10       1.0  0.87730  0.45240  0.40810  1.0000 -0.8507662393
O   O11       1.0  0.87730  0.04760  0.90810  1.0000 -0.8507662393
O   O12       1.0  0.12270  0.54760  0.59190  1.0000 -0.8507662393
O   O13       1.0  0.29920  0.24440  0.42940  1.0000 -0.6446721233
O   O14       1.0  0.70080  0.74440  0.07060  1.0000 -0.6446721233
O   O15       1.0  0.70080  0.75560  0.57060  1.0000 -0.6452174462
O   O16       1.0  0.29920  0.25560  0.92940  1.0000 -0.6452174462
O   O17       1.0  0.49480  0.31510  0.35790  1.0000 -0.6037811316
O   O18       1.0  0.50520  0.81510  0.14210  1.0000 -0.6037811316
O   O19       1.0  0.50520  0.68490  0.64210  1.0000 -0.6037811316
O   O20       1.0  0.49480  0.18490  0.85790  1.0000 -0.6037811316
O   O21       1.0  0.42160  0.18770  0.06370  1.0000 -0.7362169601
O   O22       1.0  0.57840  0.68770  0.43630  1.0000 -0.7362169601
O   O23       1.0  0.57840  0.81230  0.93630  1.0000 -0.7362169601
O   O24       1.0  0.42160  0.31230  0.56370  1.0000 -0.7362169601
O   O25       1.0  0.85980  0.28940  0.96560  1.0000 -0.7724098839
O   O26       1.0  0.14020  0.78940  0.53440  1.0000 -0.7724098839
O   O27       1.0  0.14020  0.71060  0.03440  1.0000 -0.7724098839
O   O28       1.0  0.85980  0.21060  0.46560  1.0000 -0.7724098839
