# DDEC6 charges by PACMAN v1.1 (https://github.com/mtap-research/PACMAN-charge/)
data_2010[Zn][nan]3[FSR]11
_chemical_formula_sum              "Zn16 H288 C416 N64 O80"
_cell_length_a       33.5859
_cell_length_b       33.5859
_cell_length_c       33.5859
_cell_angle_alpha    148.228
_cell_angle_beta     148.228
_cell_angle_gamma    45.5482

_symmetry_space_group_name_H-M    "P 1"
_symmetry_Int_Tables_number       1

loop_
  _symmetry_equiv_pos_as_xyz
  'x, y, z'

loop_
  _atom_site_type_symbol
  _atom_site_label
  _atom_site_symmetry_multiplicity
  _atom_site_fract_x
  _atom_site_fract_y
  _atom_site_fract_z
  _atom_site_occupancy
  _atom_site_charge
Zn  Zn1       1.0  0.60419  0.33716  0.55675  1.0000 0.7577771726
Zn  Zn2       1.0  0.78041  0.04744  0.44325  1.0000 0.7577771726
Zn  Zn3       1.0  0.08716  0.03041  0.23297  1.0000 0.7577771726
Zn  Zn4       1.0  0.79744  0.85419  0.76703  1.0000 0.7577771726
Zn  Zn5       1.0  0.10419  0.54744  0.26703  1.0000 0.7577771726
Zn  Zn6       1.0  0.29744  0.53041  0.94325  1.0000 0.7577771726
Zn  Zn7       1.0  0.28041  0.83716  0.73297  1.0000 0.7577771726
Zn  Zn8       1.0  0.58716  0.35419  0.05675  1.0000 0.7577771726
Zn  Zn9       1.0  0.64581  0.70256  0.23297  1.0000 0.7577771726
Zn  Zn10      1.0  0.45256  0.71959  0.55675  1.0000 0.7577771726
Zn  Zn11      1.0  0.46959  0.41284  0.76703  1.0000 0.7577771726
Zn  Zn12      1.0  0.16284  0.89581  0.44325  1.0000 0.7577771726
Zn  Zn13      1.0  0.14581  0.91284  0.94325  1.0000 0.7577771726
Zn  Zn14      1.0  0.96959  0.20256  0.05675  1.0000 0.7577771726
Zn  Zn15      1.0  0.66284  0.21959  0.26703  1.0000 0.7577771726
Zn  Zn16      1.0  0.95256  0.39581  0.73297  1.0000 0.7577771726
H   H1        1.0  0.75460  0.29710  0.59810  1.0000 0.1284322377
H   H2        1.0  0.69900  0.15650  0.40190  1.0000 0.1284322377
H   H3        1.0  0.04710  0.94900  0.04250  1.0000 0.1284322377
H   H4        1.0  0.90650  0.00460  0.95750  1.0000 0.1284322377
H   H5        1.0  0.25460  0.65650  0.45750  1.0000 0.1284322377
H   H6        1.0  0.40650  0.44900  0.90190  1.0000 0.1284322377
H   H7        1.0  0.19900  0.79710  0.54250  1.0000 0.1284322377
H   H8        1.0  0.54710  0.50460  0.09810  1.0000 0.1284322377
H   H9        1.0  0.83650  0.39380  0.71550  1.0000 0.1370980455
H   H10       1.0  0.67830  0.12100  0.28450  1.0000 0.1370980455
H   H11       1.0  0.14380  0.92830  0.05730  1.0000 0.1370980455
H   H12       1.0  0.87100  0.08650  0.94270  1.0000 0.1370980455
H   H13       1.0  0.33650  0.62100  0.44270  1.0000 0.1370980455
H   H14       1.0  0.37100  0.42830  0.78450  1.0000 0.1370980455
H   H15       1.0  0.17830  0.89380  0.55730  1.0000 0.1370980455
H   H16       1.0  0.64380  0.58650  0.21550  1.0000 0.1370980455
H   H17       1.0  0.68850  0.49440  0.74070  1.0000 0.109492725
H   H18       1.0  0.75370  0.94780  0.25930  1.0000 0.109492725
H   H19       1.0  0.24440  0.00370  0.30590  1.0000 0.109492725
H   H20       1.0  0.69780  0.93850  0.69410  1.0000 0.109492725
H   H21       1.0  0.18850  0.44780  0.19410  1.0000 0.109492725
H   H22       1.0  0.19780  0.50370  0.75930  1.0000 0.109492725
H   H23       1.0  0.25370  0.99440  0.80590  1.0000 0.109492725
H   H24       1.0  0.74440  0.43850  0.24070  1.0000 0.109492725
H   H25       1.0  0.91200  0.51730  0.89450  1.0000 0.1473196107
H   H26       1.0  0.62280  0.01750  0.10550  1.0000 0.1473196107
H   H27       1.0  0.26730  0.87280  0.10530  1.0000 0.1473196107
H   H28       1.0  0.76750  0.16200  0.89470  1.0000 0.1473196107
H   H29       1.0  0.41200  0.51750  0.39470  1.0000 0.1473196107
H   H30       1.0  0.26750  0.37280  0.60550  1.0000 0.1473196107
H   H31       1.0  0.12280  0.01730  0.60530  1.0000 0.1473196107
H   H32       1.0  0.76730  0.66200  0.39450  1.0000 0.1473196107
H   H33       1.0  0.96080  0.63770  0.01790  1.0000 0.1370980455
H   H34       1.0  0.61980  0.94290  0.98210  1.0000 0.1370980455
H   H35       1.0  0.38770  0.86980  0.17690  1.0000 0.1370980455
H   H36       1.0  0.69290  0.21080  0.82310  1.0000 0.1370980455
H   H37       1.0  0.46080  0.44290  0.32310  1.0000 0.1370980455
H   H38       1.0  0.19290  0.36980  0.48210  1.0000 0.1370980455
H   H39       1.0  0.11980  0.13770  0.67690  1.0000 0.1370980455
H   H40       1.0  0.88770  0.71080  0.51790  1.0000 0.1370980455
H   H41       1.0  0.70490  0.59360  0.78890  1.0000 0.1284322377
H   H42       1.0  0.80470  0.91600  0.21110  1.0000 0.1284322377
H   H43       1.0  0.34360  0.05470  0.38870  1.0000 0.1284322377
H   H44       1.0  0.66600  0.95490  0.61130  1.0000 0.1284322377
H   H45       1.0  0.20490  0.41600  0.11130  1.0000 0.1284322377
H   H46       1.0  0.16600  0.55470  0.71110  1.0000 0.1284322377
H   H47       1.0  0.30470  0.09360  0.88870  1.0000 0.1284322377
H   H48       1.0  0.84360  0.45490  0.28890  1.0000 0.1284322377
H   H49       1.0  0.75460  0.71450  0.91710  1.0000 0.1284322377
H   H50       1.0  0.79740  0.83750  0.08290  1.0000 0.1284322377
H   H51       1.0  0.46450  0.04740  0.45990  1.0000 0.1284322377
H   H52       1.0  0.58750  0.00460  0.54010  1.0000 0.1284322377
H   H53       1.0  0.25460  0.33750  0.04010  1.0000 0.1284322377
H   H54       1.0  0.08750  0.54740  0.58290  1.0000 0.1284322377
H   H55       1.0  0.29740  0.21450  0.95990  1.0000 0.1284322377
H   H56       1.0  0.96450  0.50460  0.41710  1.0000 0.1284322377
H   H57       1.0  0.03180  0.85850  0.02630  1.0000 0.1194699801
H   H58       1.0  0.83220  0.00550  0.97370  1.0000 0.1194699801
H   H59       1.0  0.60850  0.08220  0.32670  1.0000 0.1194699801
H   H60       1.0  0.75550  0.28180  0.67330  1.0000 0.1194699801
H   H61       1.0  0.53180  0.50550  0.17330  1.0000 0.1194699801
H   H62       1.0  0.25550  0.58220  0.47370  1.0000 0.1194699801
H   H63       1.0  0.33220  0.35850  0.82670  1.0000 0.1194699801
H   H64       1.0  0.10850  0.78180  0.52630  1.0000 0.1194699801
H   H65       1.0  0.96230  0.77640  0.94750  1.0000 0.1284322377
H   H66       1.0  0.82890  0.01480  0.05250  1.0000 0.1284322377
H   H67       1.0  0.52640  0.07890  0.31410  1.0000 0.1284322377
H   H68       1.0  0.76480  0.21230  0.68590  1.0000 0.1284322377
H   H69       1.0  0.46230  0.51480  0.18590  1.0000 0.1284322377
H   H70       1.0  0.26480  0.57890  0.55250  1.0000 0.1284322377
H   H71       1.0  0.32890  0.27640  0.81410  1.0000 0.1284322377
H   H72       1.0  0.02640  0.71230  0.44750  1.0000 0.1284322377
H   H73       1.0  0.03720  0.96660  0.22240  1.0000 0.1194699801
H   H74       1.0  0.74420  0.81480  0.77760  1.0000 0.1194699801
H   H75       1.0  0.71660  0.99420  0.42940  1.0000 0.1194699801
H   H76       1.0  0.56480  0.28720  0.57060  1.0000 0.1194699801
H   H77       1.0  0.53720  0.31480  0.07060  1.0000 0.1194699801
H   H78       1.0  0.06480  0.49420  0.27760  1.0000 0.1194699801
H   H79       1.0  0.24420  0.46660  0.92940  1.0000 0.1194699801
H   H80       1.0  0.21660  0.78720  0.72240  1.0000 0.1194699801
H   H81       1.0  0.03700  0.90550  0.22930  1.0000 0.1284322377
H   H82       1.0  0.67620  0.80770  0.77070  1.0000 0.1284322377
H   H83       1.0  0.65550  0.92620  0.36850  1.0000 0.1284322377
H   H84       1.0  0.55770  0.28700  0.63150  1.0000 0.1284322377
H   H85       1.0  0.53700  0.30770  0.13150  1.0000 0.1284322377
H   H86       1.0  0.05770  0.42620  0.27070  1.0000 0.1284322377
H   H87       1.0  0.17620  0.40550  0.86850  1.0000 0.1284322377
H   H88       1.0  0.15550  0.78700  0.72930  1.0000 0.1284322377
H   H89       1.0  0.99350  0.86230  0.21700  1.0000 0.1284322377
H   H90       1.0  0.64530  0.77650  0.78300  1.0000 0.1284322377
H   H91       1.0  0.61230  0.89530  0.36880  1.0000 0.1284322377
H   H92       1.0  0.52650  0.24350  0.63120  1.0000 0.1284322377
H   H93       1.0  0.49350  0.27650  0.13120  1.0000 0.1284322377
H   H94       1.0  0.02650  0.39530  0.28300  1.0000 0.1284322377
H   H95       1.0  0.14530  0.36230  0.86880  1.0000 0.1284322377
H   H96       1.0  0.11230  0.74350  0.71700  1.0000 0.1284322377
H   H97       1.0  0.88960  0.75150  0.91970  1.0000 0.1284322377
H   H98       1.0  0.83180  0.96990  0.08030  1.0000 0.1284322377
H   H99       1.0  0.50150  0.08180  0.36190  1.0000 0.1284322377
H   H100      1.0  0.71990  0.13960  0.63810  1.0000 0.1284322377
H   H101      1.0  0.38960  0.46990  0.13810  1.0000 0.1284322377
H   H102      1.0  0.21990  0.58180  0.58030  1.0000 0.1284322377
H   H103      1.0  0.33180  0.25150  0.86190  1.0000 0.1284322377
H   H104      1.0  0.00150  0.63960  0.41970  1.0000 0.1284322377
H   H105      1.0  0.85140  0.70440  0.90840  1.0000 0.1370980455
H   H106      1.0  0.79600  0.94300  0.09160  1.0000 0.1370980455
H   H107      1.0  0.45440  0.04600  0.35300  1.0000 0.1370980455
H   H108      1.0  0.69300  0.10140  0.64700  1.0000 0.1370980455
H   H109      1.0  0.35140  0.44300  0.14700  1.0000 0.1370980455
H   H110      1.0  0.19300  0.54600  0.59160  1.0000 0.1370980455
H   H111      1.0  0.29600  0.20440  0.85300  1.0000 0.1370980455
H   H112      1.0  0.95440  0.60140  0.40840  1.0000 0.1370980455
H   H113      1.0  0.45530  0.55390  0.55720  1.0000 0.1194699801
H   H114      1.0  0.99670  0.89810  0.44280  1.0000 0.1194699801
H   H115      1.0  0.30390  0.24670  0.59860  1.0000 0.1194699801
H   H116      1.0  0.64810  0.70530  0.40140  1.0000 0.1194699801
H   H117      1.0  0.95530  0.39810  0.90140  1.0000 0.1194699801
H   H118      1.0  0.14810  0.74670  0.94280  1.0000 0.1194699801
H   H119      1.0  0.49670  0.05390  0.09860  1.0000 0.1194699801
H   H120      1.0  0.80390  0.20530  0.05720  1.0000 0.1194699801
H   H121      1.0  0.38900  0.65690  0.60450  1.0000 0.109492725
H   H122      1.0  0.05240  0.78450  0.39550  1.0000 0.109492725
H   H123      1.0  0.40690  0.30240  0.76790  1.0000 0.109492725
H   H124      1.0  0.53450  0.63900  0.23210  1.0000 0.109492725
H   H125      1.0  0.88900  0.28450  0.73210  1.0000 0.109492725
H   H126      1.0  0.03450  0.80240  0.89550  1.0000 0.109492725
H   H127      1.0  0.55240  0.15690  0.26790  1.0000 0.109492725
H   H128      1.0  0.90690  0.13900  0.10450  1.0000 0.109492725
H   H129      1.0  0.49160  0.51700  0.67280  1.0000 0.109492725
H   H130      1.0  0.84420  0.81880  0.32720  1.0000 0.109492725
H   H131      1.0  0.26700  0.09420  0.52540  1.0000 0.109492725
H   H132      1.0  0.56880  0.74160  0.47460  1.0000 0.109492725
H   H133      1.0  0.99160  0.31880  0.97460  1.0000 0.109492725
H   H134      1.0  0.06880  0.59420  0.82720  1.0000 0.109492725
H   H135      1.0  0.34420  0.01700  0.02540  1.0000 0.109492725
H   H136      1.0  0.76700  0.24160  0.17280  1.0000 0.109492725
H   H137      1.0  0.42920  0.62390  0.72690  1.0000 0.109492725
H   H138      1.0  0.89700  0.70230  0.27310  1.0000 0.109492725
H   H139      1.0  0.37390  0.14700  0.69470  1.0000 0.109492725
H   H140      1.0  0.45230  0.67920  0.30530  1.0000 0.109492725
H   H141      1.0  0.92920  0.20230  0.80530  1.0000 0.109492725
H   H142      1.0  0.95230  0.64700  0.77310  1.0000 0.109492725
H   H143      1.0  0.39700  0.12390  0.19470  1.0000 0.109492725
H   H144      1.0  0.87390  0.17920  0.22690  1.0000 0.109492725
H   H145      1.0  0.49540  0.59350  0.04250  1.0000 0.1284322377
H   H146      1.0  0.34350  0.80100  0.59810  1.0000 0.1284322377
H   H147      1.0  0.55100  0.45290  0.95750  1.0000 0.1284322377
H   H148      1.0  0.20290  0.74540  0.40190  1.0000 0.1284322377
H   H149      1.0  0.99540  0.95290  0.90190  1.0000 0.1284322377
H   H150      1.0  0.05100  0.09350  0.09810  1.0000 0.1284322377
H   H151      1.0  0.70290  0.30100  0.45750  1.0000 0.1284322377
H   H152      1.0  0.84350  0.24540  0.54250  1.0000 0.1284322377
H   H153      1.0  0.41350  0.62900  0.05730  1.0000 0.1370980455
H   H154      1.0  0.37900  0.82170  0.71550  1.0000 0.1370980455
H   H155      1.0  0.57170  0.35620  0.94270  1.0000 0.1370980455
H   H156      1.0  0.10620  0.66350  0.28450  1.0000 0.1370980455
H   H157      1.0  0.91350  0.85620  0.78450  1.0000 0.1370980455
H   H158      1.0  0.07170  0.12900  0.21550  1.0000 0.1370980455
H   H159      1.0  0.60620  0.32170  0.44270  1.0000 0.1370980455
H   H160      1.0  0.87900  0.16350  0.55730  1.0000 0.1370980455
H   H161      1.0  0.56150  0.80220  0.30590  1.0000 0.109492725
H   H162      1.0  0.55220  0.74630  0.74070  1.0000 0.109492725
H   H163      1.0  0.49630  0.25560  0.69410  1.0000 0.109492725
H   H164      1.0  0.00560  0.81150  0.25930  1.0000 0.109492725
H   H165      1.0  0.06150  0.75560  0.75930  1.0000 0.109492725
H   H166      1.0  0.99630  0.30220  0.24070  1.0000 0.109492725
H   H167      1.0  0.50560  0.24630  0.19410  1.0000 0.109492725
H   H168      1.0  0.05220  0.31150  0.80590  1.0000 0.109492725
H   H169      1.0  0.33800  0.73250  0.10530  1.0000 0.1473196107
H   H170      1.0  0.48250  0.87720  0.89450  1.0000 0.1473196107
H   H171      1.0  0.62720  0.23270  0.89470  1.0000 0.1473196107
H   H172      1.0  0.98270  0.58800  0.10550  1.0000 0.1473196107
H   H173      1.0  0.83800  0.73270  0.60550  1.0000 0.1473196107
H   H174      1.0  0.12720  0.23250  0.39450  1.0000 0.1473196107
H   H175      1.0  0.48270  0.37720  0.39470  1.0000 0.1473196107
H   H176      1.0  0.98250  0.08800  0.60530  1.0000 0.1473196107
H   H177      1.0  0.28920  0.80710  0.17690  1.0000 0.1370980455
H   H178      1.0  0.55710  0.88020  0.01790  1.0000 0.1370980455
H   H179      1.0  0.63020  0.11230  0.82310  1.0000 0.1370980455
H   H180      1.0  0.86230  0.53920  0.98210  1.0000 0.1370980455
H   H181      1.0  0.78920  0.61230  0.48210  1.0000 0.1370980455
H   H182      1.0  0.13020  0.30710  0.51790  1.0000 0.1370980455
H   H183      1.0  0.36230  0.38020  0.32310  1.0000 0.1370980455
H   H184      1.0  0.05710  0.03920  0.67690  1.0000 0.1370980455
H   H185      1.0  0.54510  0.83400  0.38870  1.0000 0.1284322377
H   H186      1.0  0.58400  0.69530  0.78890  1.0000 0.1284322377
H   H187      1.0  0.44530  0.15640  0.61130  1.0000 0.1284322377
H   H188      1.0  0.90640  0.79510  0.21110  1.0000 0.1284322377
H   H189      1.0  0.04510  0.65640  0.71110  1.0000 0.1284322377
H   H190      1.0  0.94530  0.33400  0.28890  1.0000 0.1284322377
H   H191      1.0  0.40640  0.19530  0.11130  1.0000 0.1284322377
H   H192      1.0  0.08400  0.29510  0.88870  1.0000 0.1284322377
H   H193      1.0  0.49540  0.91250  0.45990  1.0000 0.1284322377
H   H194      1.0  0.66250  0.70260  0.91710  1.0000 0.1284322377
H   H195      1.0  0.45260  0.03550  0.54010  1.0000 0.1284322377
H   H196      1.0  0.78550  0.74540  0.08290  1.0000 0.1284322377
H   H197      1.0  0.99540  0.53550  0.58290  1.0000 0.1284322377
H   H198      1.0  0.95260  0.41250  0.41710  1.0000 0.1284322377
H   H199      1.0  0.28550  0.20260  0.04010  1.0000 0.1284322377
H   H200      1.0  0.16250  0.24540  0.95990  1.0000 0.1284322377
H   H201      1.0  0.21820  0.74450  0.32670  1.0000 0.1194699801
H   H202      1.0  0.49450  0.66780  0.02630  1.0000 0.1194699801
H   H203      1.0  0.41780  0.89150  0.67330  1.0000 0.1194699801
H   H204      1.0  0.64150  0.46820  0.97370  1.0000 0.1194699801
H   H205      1.0  0.71820  0.39150  0.47370  1.0000 0.1194699801
H   H206      1.0  0.91780  0.24450  0.52630  1.0000 0.1194699801
H   H207      1.0  0.14150  0.16780  0.17330  1.0000 0.1194699801
H   H208      1.0  0.99450  0.96820  0.82670  1.0000 0.1194699801
H   H209      1.0  0.28770  0.73520  0.31410  1.0000 0.1284322377
H   H210      1.0  0.48520  0.67110  0.94750  1.0000 0.1284322377
H   H211      1.0  0.42110  0.97360  0.68590  1.0000 0.1284322377
H   H212      1.0  0.72360  0.53770  0.05250  1.0000 0.1284322377
H   H213      1.0  0.78770  0.47360  0.55250  1.0000 0.1284322377
H   H214      1.0  0.92110  0.23520  0.44750  1.0000 0.1284322377
H   H215      1.0  0.22360  0.17110  0.18590  1.0000 0.1284322377
H   H216      1.0  0.98520  0.03770  0.81410  1.0000 0.1284322377
H   H217      1.0  0.21280  0.93520  0.42940  1.0000 0.1194699801
H   H218      1.0  0.68520  0.75580  0.22240  1.0000 0.1194699801
H   H219      1.0  0.50580  0.78340  0.57060  1.0000 0.1194699801
H   H220      1.0  0.53340  0.46280  0.77760  1.0000 0.1194699801
H   H221      1.0  0.71280  0.28340  0.27760  1.0000 0.1194699801
H   H222      1.0  0.00580  0.43520  0.72240  1.0000 0.1194699801
H   H223      1.0  0.03340  0.25580  0.07060  1.0000 0.1194699801
H   H224      1.0  0.18520  0.96280  0.92940  1.0000 0.1194699801
H   H225      1.0  0.21300  0.94230  0.36850  1.0000 0.1284322377
H   H226      1.0  0.69230  0.82380  0.22930  1.0000 0.1284322377
H   H227      1.0  0.57380  0.84450  0.63150  1.0000 0.1284322377
H   H228      1.0  0.59450  0.46300  0.77070  1.0000 0.1284322377
H   H229      1.0  0.71300  0.34450  0.27070  1.0000 0.1284322377
H   H230      1.0  0.07380  0.44230  0.72930  1.0000 0.1284322377
H   H231      1.0  0.09450  0.32380  0.13150  1.0000 0.1284322377
H   H232      1.0  0.19230  0.96300  0.86850  1.0000 0.1284322377
H   H233      1.0  0.25650  0.97350  0.36880  1.0000 0.1284322377
H   H234      1.0  0.72350  0.85470  0.21700  1.0000 0.1284322377
H   H235      1.0  0.60470  0.88770  0.63120  1.0000 0.1284322377
H   H236      1.0  0.63770  0.50650  0.78300  1.0000 0.1284322377
H   H237      1.0  0.75650  0.38770  0.28300  1.0000 0.1284322377
H   H238      1.0  0.10470  0.47350  0.71700  1.0000 0.1284322377
H   H239      1.0  0.13770  0.35470  0.13120  1.0000 0.1284322377
H   H240      1.0  0.22350  0.00650  0.86880  1.0000 0.1284322377
H   H241      1.0  0.36040  0.78010  0.36190  1.0000 0.1284322377
H   H242      1.0  0.53010  0.66820  0.91970  1.0000 0.1284322377
H   H243      1.0  0.41820  0.99850  0.63810  1.0000 0.1284322377
H   H244      1.0  0.74850  0.61040  0.08030  1.0000 0.1284322377
H   H245      1.0  0.86040  0.49850  0.58030  1.0000 0.1284322377
H   H246      1.0  0.91820  0.28010  0.41970  1.0000 0.1284322377
H   H247      1.0  0.24850  0.16820  0.13810  1.0000 0.1284322377
H   H248      1.0  0.03010  0.11040  0.86190  1.0000 0.1284322377
H   H249      1.0  0.39860  0.80700  0.35300  1.0000 0.1370980455
H   H250      1.0  0.55700  0.70400  0.90840  1.0000 0.1370980455
H   H251      1.0  0.45400  0.04560  0.64700  1.0000 0.1370980455
H   H252      1.0  0.79560  0.64860  0.09160  1.0000 0.1370980455
H   H253      1.0  0.89860  0.54560  0.59160  1.0000 0.1370980455
H   H254      1.0  0.95400  0.30700  0.40840  1.0000 0.1370980455
H   H255      1.0  0.29560  0.20400  0.14700  1.0000 0.1370980455
H   H256      1.0  0.05700  0.14860  0.85300  1.0000 0.1370980455
H   H257      1.0  0.79470  0.85190  0.59860  1.0000 0.1194699801
H   H258      1.0  0.60190  0.50330  0.55720  1.0000 0.1194699801
H   H259      1.0  0.25330  0.19610  0.40140  1.0000 0.1194699801
H   H260      1.0  0.94610  0.04470  0.44280  1.0000 0.1194699801
H   H261      1.0  0.29470  0.69610  0.94280  1.0000 0.1194699801
H   H262      1.0  0.75330  0.35190  0.05720  1.0000 0.1194699801
H   H263      1.0  0.44610  0.00330  0.90140  1.0000 0.1194699801
H   H264      1.0  0.10190  0.54470  0.09860  1.0000 0.1194699801
H   H265      1.0  0.86100  0.96550  0.76790  1.0000 0.109492725
H   H266      1.0  0.71550  0.44760  0.60450  1.0000 0.109492725
H   H267      1.0  0.19760  0.09310  0.23210  1.0000 0.104975726
H   H268      1.0  0.84310  0.11100  0.39550  1.0000 0.109492725
H   H269      1.0  0.36100  0.59310  0.89550  1.0000 0.109492725
H   H270      1.0  0.69760  0.46550  0.10450  1.0000 0.109492725
H   H271      1.0  0.34310  0.94760  0.73210  1.0000 0.109492725
H   H272      1.0  0.21550  0.61100  0.26790  1.0000 0.109492725
H   H273      1.0  0.75840  0.93120  0.52540  1.0000 0.109492725
H   H274      1.0  0.68120  0.65580  0.67280  1.0000 0.109492725
H   H275      1.0  0.40580  0.23300  0.47460  1.0000 0.109492725
H   H276      1.0  0.98300  0.00840  0.32720  1.0000 0.109492725
H   H277      1.0  0.25840  0.73300  0.82720  1.0000 0.109492725
H   H278      1.0  0.90580  0.43120  0.17280  1.0000 0.109492725
H   H279      1.0  0.48300  0.15580  0.97460  1.0000 0.109492725
H   H280      1.0  0.18120  0.50840  0.02540  1.0000 0.109492725
H   H281      1.0  0.82080  0.04770  0.69470  1.0000 0.109492725
H   H282      1.0  0.79770  0.60300  0.72690  1.0000 0.109492725
H   H283      1.0  0.35300  0.12610  0.30530  1.0000 0.109492725
H   H284      1.0  0.87610  0.07080  0.27310  1.0000 0.109492725
H   H285      1.0  0.32080  0.62610  0.77310  1.0000 0.109492725
H   H286      1.0  0.85300  0.54770  0.22690  1.0000 0.109492725
H   H287      1.0  0.37610  0.10300  0.80530  1.0000 0.109492725
H   H288      1.0  0.29770  0.57080  0.19470  1.0000 0.109492725
C   C1        1.0  0.75099  0.35029  0.64210  1.0000 -0.051267602
C   C2        1.0  0.70819  0.10889  0.35790  1.0000 -0.051267602
C   C3        1.0  0.10029  0.95819  0.09930  1.0000 -0.051267602
C   C4        1.0  0.85889  0.00099  0.90070  1.0000 -0.051267602
C   C5        1.0  0.25099  0.60889  0.40070  1.0000 -0.051267602
C   C6        1.0  0.35889  0.45819  0.85790  1.0000 -0.051267602
C   C7        1.0  0.20819  0.85029  0.59930  1.0000 -0.051267602
C   C8        1.0  0.60029  0.50099  0.14210  1.0000 -0.051267602
C   C9        1.0  0.79618  0.40268  0.70650  1.0000 -0.0892424025
C   C10       1.0  0.69618  0.08968  0.29350  1.0000 -0.0892424025
C   C11       1.0  0.15268  0.94618  0.10650  1.0000 -0.0892424025
C   C12       1.0  0.83968  0.04618  0.89350  1.0000 -0.0892424025
C   C13       1.0  0.29618  0.58968  0.39350  1.0000 -0.0892424025
C   C14       1.0  0.33968  0.44618  0.79350  1.0000 -0.0892424025
C   C15       1.0  0.19618  0.90268  0.60650  1.0000 -0.0892424025
C   C16       1.0  0.65268  0.54618  0.20650  1.0000 -0.0892424025
C   C17       1.0  0.71530  0.45630  0.71880  1.0000 0.1194699801
C   C18       1.0  0.73750  0.99650  0.28120  1.0000 0.1194699801
C   C19       1.0  0.20630  0.98750  0.24100  1.0000 0.1194699801
C   C20       1.0  0.74650  0.96530  0.75900  1.0000 0.1194699801
C   C21       1.0  0.21530  0.49650  0.25900  1.0000 0.1194699801
C   C22       1.0  0.24650  0.48750  0.78120  1.0000 0.1194699801
C   C23       1.0  0.23750  0.95630  0.74100  1.0000 0.1194699801
C   C24       1.0  0.70630  0.46530  0.21880  1.0000 0.1194699801
C   C25       1.0  0.80392  0.54452  0.83160  1.0000 0.1370980455
C   C26       1.0  0.71292  0.97232  0.16840  1.0000 0.1370980455
C   C27       1.0  0.29452  0.96292  0.24060  1.0000 0.1370980455
C   C28       1.0  0.72232  0.05392  0.75940  1.0000 0.1370980455
C   C29       1.0  0.30392  0.47232  0.25940  1.0000 0.1370980455
C   C30       1.0  0.22232  0.46292  0.66840  1.0000 0.1370980455
C   C31       1.0  0.21292  0.04452  0.74060  1.0000 0.1370980455
C   C32       1.0  0.79452  0.55392  0.33160  1.0000 0.1370980455
C   C33       1.0  0.87958  0.55728  0.89850  1.0000 -0.1298664005
C   C34       1.0  0.65878  0.98108  0.10150  1.0000 -0.1298664005
C   C35       1.0  0.30728  0.90878  0.17770  1.0000 -0.1351306481
C   C36       1.0  0.73108  0.12958  0.82230  1.0000 -0.1298664005
C   C37       1.0  0.37958  0.48108  0.32230  1.0000 -0.1298664005
C   C38       1.0  0.23108  0.40878  0.60150  1.0000 -0.1298664005
C   C39       1.0  0.15878  0.05728  0.67770  1.0000 -0.1351306481
C   C40       1.0  0.80728  0.62958  0.39850  1.0000 -0.1351306481
C   C41       1.0  0.90845  0.62845  0.97180  1.0000 -0.1785429702
C   C42       1.0  0.65665  0.93665  0.02820  1.0000 -0.1785429702
C   C43       1.0  0.37845  0.90665  0.22000  1.0000 -0.1785429702
C   C44       1.0  0.68665  0.15845  0.78000  1.0000 -0.1785429702
C   C45       1.0  0.40845  0.43665  0.28000  1.0000 -0.1785429702
C   C46       1.0  0.18665  0.40665  0.52820  1.0000 -0.1785429702
C   C47       1.0  0.15665  0.12845  0.72000  1.0000 -0.1785429702
C   C48       1.0  0.87845  0.65845  0.47180  1.0000 -0.1785429702
C   C49       1.0  0.75790  0.60290  0.83760  1.0000 -0.1717141024
C   C50       1.0  0.76530  0.92030  0.16240  1.0000 -0.1717141024
C   C51       1.0  0.35290  0.01530  0.34500  1.0000 -0.1717141024
C   C52       1.0  0.67030  0.00790  0.65500  1.0000 -0.1717141024
C   C53       1.0  0.25790  0.42030  0.15500  1.0000 -0.1717141024
C   C54       1.0  0.17030  0.51530  0.66240  1.0000 -0.1717141024
C   C55       1.0  0.26530  0.10290  0.84500  1.0000 -0.1717141024
C   C56       1.0  0.85290  0.50790  0.33760  1.0000 -0.1717141024
C   C57       1.0  0.78643  0.67393  0.91170  1.0000 -0.1785429702
C   C58       1.0  0.76223  0.87473  0.08830  1.0000 -0.1785429702
C   C59       1.0  0.42393  0.01223  0.38750  1.0000 -0.1785429702
C   C60       1.0  0.62473  0.03643  0.61250  1.0000 -0.1785429702
C   C61       1.0  0.28643  0.37473  0.11250  1.0000 -0.1785429702
C   C62       1.0  0.12473  0.51223  0.58830  1.0000 -0.1785429702
C   C63       1.0  0.26223  0.17393  0.88750  1.0000 -0.1785429702
C   C64       1.0  0.92393  0.53643  0.41170  1.0000 -0.1785429702
C   C65       1.0  0.86141  0.68491  0.97730  1.0000 0.2092171343
C   C66       1.0  0.70761  0.88411  0.02270  1.0000 0.2092171343
C   C67       1.0  0.43491  0.95761  0.32350  1.0000 0.2092171343
C   C68       1.0  0.63411  0.11141  0.67650  1.0000 0.2092171343
C   C69       1.0  0.36141  0.38411  0.17650  1.0000 0.2092171343
C   C70       1.0  0.13411  0.45761  0.52270  1.0000 0.2092171343
C   C71       1.0  0.20761  0.18491  0.82350  1.0000 0.2092171343
C   C72       1.0  0.93491  0.61141  0.47730  1.0000 0.2092171343
C   C73       1.0  0.91804  0.77864  0.06060  1.0000 0.2407395983
C   C74       1.0  0.71804  0.85744  0.93940  1.0000 0.2407395983
C   C75       1.0  0.52864  0.96804  0.36060  1.0000 0.2407395983
C   C76       1.0  0.60744  0.16804  0.63940  1.0000 0.2407395983
C   C77       1.0  0.41804  0.35744  0.13940  1.0000 0.2407395983
C   C78       1.0  0.10744  0.46804  0.43940  1.0000 0.2407395983
C   C79       1.0  0.21804  0.27864  0.86060  1.0000 0.2407395983
C   C80       1.0  0.02864  0.66804  0.56060  1.0000 0.2407395983
C   C81       1.0  0.02302  0.87192  0.05710  1.0000 -0.019905097
C   C82       1.0  0.81482  0.96592  0.94290  1.0000 -0.019905097
C   C83       1.0  0.62192  0.06482  0.34890  1.0000 -0.019905097
C   C84       1.0  0.71592  0.27302  0.65110  1.0000 -0.019905097
C   C85       1.0  0.52302  0.46592  0.15110  1.0000 -0.019905097
C   C86       1.0  0.21592  0.56482  0.44290  1.0000 -0.019905097
C   C87       1.0  0.31482  0.37192  0.84890  1.0000 -0.019905097
C   C88       1.0  0.12192  0.77302  0.55710  1.0000 -0.019905097
C   C89       1.0  0.98655  0.82555  0.01440  1.0000 -0.0892424025
C   C90       1.0  0.81115  0.97215  0.98560  1.0000 -0.0892424025
C   C91       1.0  0.57555  0.06115  0.33900  1.0000 -0.0892424025
C   C92       1.0  0.72215  0.23655  0.66100  1.0000 -0.0892424025
C   C93       1.0  0.48655  0.47215  0.16100  1.0000 -0.0892424025
C   C94       1.0  0.22215  0.56115  0.48560  1.0000 -0.0892424025
C   C95       1.0  0.31115  0.32555  0.83900  1.0000 -0.0892424025
C   C96       1.0  0.07555  0.73655  0.51440  1.0000 -0.0892424025
C   C97       1.0  0.02598  0.92828  0.16090  1.0000 0.1194699801
C   C98       1.0  0.76738  0.86508  0.83910  1.0000 0.1194699801
C   C99       1.0  0.67828  0.01738  0.40230  1.0000 0.1194699801
C   C100      1.0  0.61508  0.27598  0.59770  1.0000 0.1194699801
C   C101      1.0  0.52598  0.36508  0.09770  1.0000 0.1194699801
C   C102      1.0  0.11508  0.51738  0.33910  1.0000 0.1194699801
C   C103      1.0  0.26738  0.42828  0.90230  1.0000 0.1194699801
C   C104      1.0  0.17828  0.77598  0.66090  1.0000 0.1194699801
C   C105      1.0  0.96744  0.83294  0.07630  1.0000 0.1194699801
C   C106      1.0  0.75664  0.89114  0.92370  1.0000 0.1194699801
C   C107      1.0  0.58294  0.00664  0.36550  1.0000 0.1194699801
C   C108      1.0  0.64114  0.21744  0.63450  1.0000 0.1194699801
C   C109      1.0  0.46744  0.39114  0.13450  1.0000 0.1194699801
C   C110      1.0  0.14114  0.50664  0.42370  1.0000 0.1194699801
C   C111      1.0  0.25664  0.33294  0.86550  1.0000 0.1194699801
C   C112      1.0  0.08294  0.71744  0.57630  1.0000 0.1194699801
C   C113      1.0  0.99825  0.86515  0.16370  1.0000 -0.1785429702
C   C114      1.0  0.70145  0.83455  0.83630  1.0000 -0.1785429702
C   C115      1.0  0.61515  0.95145  0.36690  1.0000 -0.1785429702
C   C116      1.0  0.58455  0.24825  0.63310  1.0000 -0.1785429702
C   C117      1.0  0.49825  0.33455  0.13310  1.0000 -0.1785429702
C   C118      1.0  0.08455  0.45145  0.33630  1.0000 -0.1785429702
C   C119      1.0  0.20145  0.36515  0.86690  1.0000 -0.1785429702
C   C120      1.0  0.11515  0.74825  0.66370  1.0000 -0.1785429702
C   C121      1.0  0.97328  0.83918  0.15650  1.0000 -0.1785429702
C   C122      1.0  0.68268  0.81678  0.84350  1.0000 -0.1785429702
C   C123      1.0  0.58918  0.93268  0.36590  1.0000 -0.1785429702
C   C124      1.0  0.56678  0.22328  0.63410  1.0000 -0.1785429702
C   C125      1.0  0.47328  0.31678  0.13410  1.0000 -0.1785429702
C   C126      1.0  0.06678  0.43268  0.34350  1.0000 -0.1785429702
C   C127      1.0  0.18268  0.33918  0.86590  1.0000 -0.1785429702
C   C128      1.0  0.08918  0.72328  0.65650  1.0000 -0.1785429702
C   C129      1.0  0.91156  0.77326  0.98050  1.0000 -0.1644870532
C   C130      1.0  0.79276  0.93106  0.01950  1.0000 -0.1644870532
C   C131      1.0  0.52326  0.04276  0.36170  1.0000 -0.1644870532
C   C132      1.0  0.68106  0.16156  0.63830  1.0000 -0.1644870532
C   C133      1.0  0.41156  0.43106  0.13830  1.0000 -0.1644870532
C   C134      1.0  0.18106  0.54276  0.51950  1.0000 -0.1644870532
C   C135      1.0  0.29276  0.27326  0.86170  1.0000 -0.1644870532
C   C136      1.0  0.02326  0.66156  0.48050  1.0000 -0.1644870532
C   C137      1.0  0.88849  0.74619  0.97390  1.0000 -0.1717141024
C   C138      1.0  0.77229  0.91459  0.02610  1.0000 -0.1717141024
C   C139      1.0  0.49619  0.02229  0.35770  1.0000 -0.1717141024
C   C140      1.0  0.66459  0.13849  0.64230  1.0000 -0.1717141024
C   C141      1.0  0.38849  0.41459  0.14230  1.0000 -0.1717141024
C   C142      1.0  0.16459  0.52229  0.52610  1.0000 -0.1717141024
C   C143      1.0  0.27229  0.24619  0.85770  1.0000 -0.1717141024
C   C144      1.0  0.99619  0.63849  0.47390  1.0000 -0.1717141024
C   C145      1.0  0.52473  0.46013  0.58280  1.0000 0.5498754377
C   C146      1.0  0.87733  0.94193  0.41720  1.0000 0.5498754377
C   C147      1.0  0.21013  0.12733  0.43540  1.0000 0.5498754377
C   C148      1.0  0.69193  0.77473  0.56460  1.0000 0.5498754377
C   C149      1.0  0.02473  0.44193  0.06460  1.0000 0.5498754377
C   C150      1.0  0.19193  0.62733  0.91720  1.0000 0.5498754377
C   C151      1.0  0.37733  0.96013  0.93540  1.0000 0.5498754377
C   C152      1.0  0.71013  0.27473  0.08280  1.0000 0.5498754377
C   C153      1.0  0.47970  0.52600  0.61090  1.0000 -0.0079894675
C   C154      1.0  0.91510  0.86880  0.38910  1.0000 -0.0079894675
C   C155      1.0  0.27600  0.16510  0.54630  1.0000 -0.0079894675
C   C156      1.0  0.61880  0.72970  0.45370  1.0000 -0.0079894675
C   C157      1.0  0.97970  0.36880  0.95370  1.0000 -0.0079894675
C   C158      1.0  0.11880  0.66510  0.88910  1.0000 -0.0079894675
C   C159      1.0  0.41510  0.02600  0.04630  1.0000 -0.0079894675
C   C160      1.0  0.77600  0.22970  0.11090  1.0000 -0.0079894675
C   C161      1.0  0.44946  0.56766  0.59100  1.0000 -0.1046254304
C   C162      1.0  0.97666  0.85846  0.40900  1.0000 -0.1046254304
C   C163      1.0  0.31766  0.22666  0.61820  1.0000 -0.1046254304
C   C164      1.0  0.60846  0.69946  0.38180  1.0000 -0.1046254304
C   C165      1.0  0.94946  0.35846  0.88180  1.0000 -0.1046254304
C   C166      1.0  0.10846  0.72666  0.90900  1.0000 -0.1046254304
C   C167      1.0  0.47666  0.06766  0.11820  1.0000 -0.1046254304
C   C168      1.0  0.81766  0.19946  0.09100  1.0000 -0.1046254304
C   C169      1.0  0.41073  0.62913  0.62000  1.0000 -0.1204373418
C   C170      1.0  0.00913  0.79073  0.38000  1.0000 -0.1204373418
C   C171      1.0  0.37913  0.25913  0.71840  1.0000 -0.1204373418
C   C172      1.0  0.54073  0.66073  0.28160  1.0000 -0.1204373418
C   C173      1.0  0.91073  0.29073  0.78160  1.0000 -0.1204373418
C   C174      1.0  0.04073  0.75913  0.88000  1.0000 -0.1204373418
C   C175      1.0  0.50913  0.12913  0.21840  1.0000 -0.1204373418
C   C176      1.0  0.87913  0.16073  0.12000  1.0000 -0.1204373418
C   C177      1.0  0.47143  0.54633  0.66010  1.0000 -0.1204373418
C   C178      1.0  0.88623  0.81133  0.33990  1.0000 -0.1204373418
C   C179      1.0  0.29633  0.13623  0.57490  1.0000 -0.1204373418
C   C180      1.0  0.56133  0.72143  0.42510  1.0000 -0.1204373418
C   C181      1.0  0.97143  0.31133  0.92510  1.0000 -0.1204373418
C   C182      1.0  0.06133  0.63623  0.83990  1.0000 -0.1204373418
C   C183      1.0  0.38623  0.04633  0.07490  1.0000 -0.1204373418
C   C184      1.0  0.79633  0.22143  0.16010  1.0000 -0.1204373418
C   C185      1.0  0.43363  0.60953  0.69130  1.0000 -0.1298664005
C   C186      1.0  0.91823  0.74233  0.30870  1.0000 -0.1298664005
C   C187      1.0  0.35953  0.16823  0.67590  1.0000 -0.1298664005
C   C188      1.0  0.49233  0.68363  0.32410  1.0000 -0.1298664005
C   C189      1.0  0.93363  0.24233  0.82410  1.0000 -0.1298664005
C   C190      1.0  0.99233  0.66823  0.80870  1.0000 -0.1298664005
C   C191      1.0  0.41823  0.10953  0.17590  1.0000 -0.1298664005
C   C192      1.0  0.85953  0.18363  0.19130  1.0000 -0.1298664005
C   C193      1.0  0.40244  0.65184  0.67120  1.0000 -0.019905097
C   C194      1.0  0.98064  0.73124  0.32880  1.0000 -0.019905097
C   C195      1.0  0.40184  0.23064  0.74940  1.0000 -0.019905097
C   C196      1.0  0.48124  0.65244  0.25060  1.0000 -0.019905097
C   C197      1.0  0.90244  0.23124  0.75060  1.0000 -0.019905097
C   C198      1.0  0.98124  0.73064  0.82880  1.0000 -0.019905097
C   C199      1.0  0.48064  0.15184  0.24940  1.0000 -0.019905097
C   C200      1.0  0.90184  0.15244  0.17120  1.0000 -0.019905097
C   C201      1.0  0.36261  0.72021  0.70580  1.0000 0.5333127188
C   C202      1.0  0.01441  0.65681  0.29420  1.0000 0.5333127188
C   C203      1.0  0.47021  0.26441  0.85760  1.0000 0.5333127188
C   C204      1.0  0.40681  0.61261  0.14240  1.0000 0.5333127188
C   C205      1.0  0.86261  0.15681  0.64240  1.0000 0.5333127188
C   C206      1.0  0.90681  0.76441  0.79420  1.0000 0.5333127188
C   C207      1.0  0.51441  0.22021  0.35760  1.0000 0.5333127188
C   C208      1.0  0.97021  0.11261  0.20580  1.0000 0.5333127188
C   C209      1.0  0.49901  0.64111  0.09930  1.0000 -0.051267602
C   C210      1.0  0.39111  0.79181  0.64210  1.0000 -0.051267602
C   C211      1.0  0.54181  0.39971  0.90070  1.0000 -0.051267602
C   C212      1.0  0.14971  0.74901  0.35790  1.0000 -0.051267602
C   C213      1.0  0.99901  0.89971  0.85790  1.0000 -0.051267602
C   C214      1.0  0.04181  0.14111  0.14210  1.0000 -0.051267602
C   C215      1.0  0.64971  0.29181  0.40070  1.0000 -0.051267602
C   C216      1.0  0.89111  0.24901  0.59930  1.0000 -0.051267602
C   C217      1.0  0.45382  0.66032  0.10650  1.0000 -0.0892424025
C   C218      1.0  0.41032  0.80382  0.70650  1.0000 -0.0892424025
C   C219      1.0  0.55382  0.34732  0.89350  1.0000 -0.0892424025
C   C220      1.0  0.09732  0.70382  0.29350  1.0000 -0.0892424025
C   C221      1.0  0.95382  0.84732  0.79350  1.0000 -0.0892424025
C   C222      1.0  0.05382  0.16032  0.20650  1.0000 -0.0892424025
C   C223      1.0  0.59732  0.30382  0.39350  1.0000 -0.0892424025
C   C224      1.0  0.91032  0.20382  0.60650  1.0000 -0.0892424025
C   C225      1.0  0.53470  0.75350  0.24100  1.0000 0.1194699801
C   C226      1.0  0.50350  0.76250  0.71880  1.0000 0.1194699801
C   C227      1.0  0.51250  0.29370  0.75900  1.0000 0.1194699801
C   C228      1.0  0.04370  0.78470  0.28120  1.0000 0.1194699801
C   C229      1.0  0.03470  0.79370  0.78120  1.0000 0.1194699801
C   C230      1.0  0.01250  0.25350  0.21880  1.0000 0.1194699801
C   C231      1.0  0.54370  0.26250  0.25900  1.0000 0.1194699801
C   C232      1.0  0.00350  0.28470  0.74100  1.0000 0.1194699801
C   C233      1.0  0.44608  0.77768  0.24060  1.0000 0.1370980455
C   C234      1.0  0.52768  0.78708  0.83160  1.0000 0.1370980455
C   C235      1.0  0.53708  0.20548  0.75940  1.0000 0.1370980455
C   C236      1.0  0.95548  0.69608  0.16840  1.0000 0.1370980455
C   C237      1.0  0.94608  0.70548  0.66840  1.0000 0.1370980455
C   C238      1.0  0.03708  0.27768  0.33160  1.0000 0.1370980455
C   C239      1.0  0.45548  0.28708  0.25940  1.0000 0.1370980455
C   C240      1.0  0.02768  0.19608  0.74060  1.0000 0.1370980455
C   C241      1.0  0.37042  0.76892  0.17770  1.0000 -0.1351306481
C   C242      1.0  0.51892  0.84122  0.89850  1.0000 -0.1298664005
C   C243      1.0  0.59122  0.19272  0.82230  1.0000 -0.1298664005
C   C244      1.0  0.94272  0.62042  0.10150  1.0000 -0.1298664005
C   C245      1.0  0.87042  0.69272  0.60150  1.0000 -0.1298664005
C   C246      1.0  0.09122  0.26892  0.39850  1.0000 -0.1298664005
C   C247      1.0  0.44272  0.34122  0.32230  1.0000 -0.1298664005
C   C248      1.0  0.01892  0.12042  0.67770  1.0000 -0.1298664005
C   C249      1.0  0.34155  0.81335  0.22000  1.0000 -0.1785429702
C   C250      1.0  0.56335  0.84335  0.97180  1.0000 -0.1785429702
C   C251      1.0  0.59335  0.12155  0.78000  1.0000 -0.1785429702
C   C252      1.0  0.87155  0.59155  0.02820  1.0000 -0.1785429702
C   C253      1.0  0.84155  0.62155  0.52820  1.0000 -0.1785429702
C   C254      1.0  0.09335  0.31335  0.47180  1.0000 -0.1785429702
C   C255      1.0  0.37155  0.34335  0.28000  1.0000 -0.1785429702
C   C256      1.0  0.06335  0.09155  0.72000  1.0000 -0.1785429702
C   C257      1.0  0.49210  0.82970  0.34500  1.0000 -0.1717141024
C   C258      1.0  0.57970  0.73470  0.83760  1.0000 -0.1717141024
C   C259      1.0  0.48470  0.14710  0.65500  1.0000 -0.1717141024
C   C260      1.0  0.89710  0.74210  0.16240  1.0000 -0.1717141024
C   C261      1.0  0.99210  0.64710  0.66240  1.0000 -0.1717141024
C   C262      1.0  0.98470  0.32970  0.33760  1.0000 -0.1717141024
C   C263      1.0  0.39710  0.23470  0.15500  1.0000 -0.1717141024
C   C264      1.0  0.07970  0.24210  0.84500  1.0000 -0.1717141024
C   C265      1.0  0.46357  0.87527  0.38750  1.0000 -0.1785429702
C   C266      1.0  0.62527  0.73777  0.91170  1.0000 -0.1785429702
C   C267      1.0  0.48777  0.07607  0.61250  1.0000 -0.1785429702
C   C268      1.0  0.82607  0.71357  0.08830  1.0000 -0.1785429702
C   C269      1.0  0.96357  0.57607  0.58830  1.0000 -0.1785429702
C   C270      1.0  0.98777  0.37527  0.41170  1.0000 -0.1785429702
C   C271      1.0  0.32607  0.23777  0.11250  1.0000 -0.1785429702
C   C272      1.0  0.12527  0.21357  0.88750  1.0000 -0.1785429702
C   C273      1.0  0.38859  0.86589  0.32350  1.0000 0.2092171343
C   C274      1.0  0.61589  0.79239  0.97730  1.0000 0.2092171343
C   C275      1.0  0.54239  0.06509  0.67650  1.0000 0.2092171343
C   C276      1.0  0.81509  0.63859  0.02270  1.0000 0.2092171343
C   C277      1.0  0.88859  0.56509  0.52270  1.0000 0.2092171343
C   C278      1.0  0.04239  0.36589  0.47730  1.0000 0.2092171343
C   C279      1.0  0.31509  0.29239  0.17650  1.0000 0.2092171343
C   C280      1.0  0.11589  0.13859  0.82350  1.0000 0.2092171343
C   C281      1.0  0.33196  0.89256  0.36060  1.0000 0.2407395983
C   C282      1.0  0.64256  0.78196  0.06060  1.0000 0.2407395983
C   C283      1.0  0.53196  0.97136  0.63940  1.0000 0.2407395983
C   C284      1.0  0.72136  0.58196  0.93940  1.0000 0.2407395983
C   C285      1.0  0.83196  0.47136  0.43940  1.0000 0.2407395983
C   C286      1.0  0.03196  0.39256  0.56060  1.0000 0.2407395983
C   C287      1.0  0.22136  0.28196  0.13940  1.0000 0.2407395983
C   C288      1.0  0.14256  0.08196  0.86060  1.0000 0.2407395983
C   C289      1.0  0.22698  0.78408  0.34890  1.0000 -0.019905097
C   C290      1.0  0.53408  0.68518  0.05710  1.0000 -0.019905097
C   C291      1.0  0.43518  0.87808  0.65110  1.0000 -0.019905097
C   C292      1.0  0.62808  0.47698  0.94290  1.0000 -0.019905097
C   C293      1.0  0.72698  0.37808  0.44290  1.0000 -0.019905097
C   C294      1.0  0.93518  0.28408  0.55710  1.0000 -0.019905097
C   C295      1.0  0.12808  0.18518  0.15110  1.0000 -0.019905097
C   C296      1.0  0.03408  0.97698  0.84890  1.0000 -0.019905097
C   C297      1.0  0.26345  0.77785  0.33900  1.0000 -0.0892424025
C   C298      1.0  0.52785  0.68885  0.01440  1.0000 -0.0892424025
C   C299      1.0  0.43885  0.92445  0.66100  1.0000 -0.0892424025
C   C300      1.0  0.67445  0.51345  0.98560  1.0000 -0.0892424025
C   C301      1.0  0.76345  0.42445  0.48560  1.0000 -0.0892424025
C   C302      1.0  0.93885  0.27785  0.51440  1.0000 -0.0892424025
C   C303      1.0  0.17445  0.18885  0.16100  1.0000 -0.0892424025
C   C304      1.0  0.02785  0.01345  0.83900  1.0000 -0.0892424025
C   C305      1.0  0.22402  0.88492  0.40230  1.0000 0.1194699801
C   C306      1.0  0.63492  0.73262  0.16090  1.0000 0.1194699801
C   C307      1.0  0.48262  0.82172  0.59770  1.0000 0.1194699801
C   C308      1.0  0.57172  0.47402  0.83910  1.0000 0.1194699801
C   C309      1.0  0.72402  0.32172  0.33910  1.0000 0.1194699801
C   C310      1.0  0.98262  0.38492  0.66090  1.0000 0.1194699801
C   C311      1.0  0.07172  0.23262  0.09770  1.0000 0.1194699801
C   C312      1.0  0.13492  0.97402  0.90230  1.0000 0.1194699801
C   C313      1.0  0.28256  0.85886  0.36550  1.0000 0.1194699801
C   C314      1.0  0.60886  0.74336  0.07630  1.0000 0.1194699801
C   C315      1.0  0.49336  0.91706  0.63450  1.0000 0.1194699801
C   C316      1.0  0.66706  0.53256  0.92370  1.0000 0.1194699801
C   C317      1.0  0.78256  0.41706  0.42370  1.0000 0.1194699801
C   C318      1.0  0.99336  0.35886  0.57630  1.0000 0.1194699801
C   C319      1.0  0.16706  0.24336  0.13450  1.0000 0.1194699801
C   C320      1.0  0.10886  0.03256  0.86550  1.0000 0.1194699801
C   C321      1.0  0.25175  0.91545  0.36690  1.0000 -0.1785429702
C   C322      1.0  0.66545  0.79855  0.16370  1.0000 -0.1785429702
C   C323      1.0  0.54855  0.88485  0.63310  1.0000 -0.1785429702
C   C324      1.0  0.63485  0.50175  0.83630  1.0000 -0.1785429702
C   C325      1.0  0.75175  0.38485  0.33630  1.0000 -0.1785429702
C   C326      1.0  0.04855  0.41545  0.66370  1.0000 -0.1785429702
C   C327      1.0  0.13485  0.29855  0.13310  1.0000 -0.1785429702
C   C328      1.0  0.16545  0.00175  0.86690  1.0000 -0.1785429702
C   C329      1.0  0.27672  0.93322  0.36590  1.0000 -0.1785429702
C   C330      1.0  0.68322  0.81732  0.15650  1.0000 -0.1785429702
C   C331      1.0  0.56732  0.91082  0.63410  1.0000 -0.1785429702
C   C332      1.0  0.66082  0.52672  0.84350  1.0000 -0.1785429702
C   C333      1.0  0.77672  0.41082  0.34350  1.0000 -0.1785429702
C   C334      1.0  0.06732  0.43322  0.65650  1.0000 -0.1785429702
C   C335      1.0  0.16082  0.31732  0.13410  1.0000 -0.1785429702
C   C336      1.0  0.18322  0.02672  0.86590  1.0000 -0.1785429702
C   C337      1.0  0.33844  0.81894  0.36170  1.0000 -0.1644870532
C   C338      1.0  0.56894  0.70724  0.98050  1.0000 -0.1644870532
C   C339      1.0  0.45724  0.97674  0.63830  1.0000 -0.1644870532
C   C340      1.0  0.72674  0.58844  0.01950  1.0000 -0.1644870532
C   C341      1.0  0.83844  0.47674  0.51950  1.0000 -0.1644870532
C   C342      1.0  0.95724  0.31894  0.48050  1.0000 -0.1644870532
C   C343      1.0  0.22674  0.20724  0.13830  1.0000 -0.1644870532
C   C344      1.0  0.06894  0.08844  0.86170  1.0000 -0.1644870532
C   C345      1.0  0.36151  0.83541  0.35770  1.0000 -0.1717141024
C   C346      1.0  0.58541  0.72771  0.97390  1.0000 -0.1717141024
C   C347      1.0  0.47771  0.00381  0.64230  1.0000 -0.1717141024
C   C348      1.0  0.75381  0.61151  0.02610  1.0000 -0.1717141024
C   C349      1.0  0.86151  0.50381  0.52610  1.0000 -0.1717141024
C   C350      1.0  0.97771  0.33541  0.47390  1.0000 -0.1717141024
C   C351      1.0  0.25381  0.22771  0.14230  1.0000 -0.1717141024
C   C352      1.0  0.08541  0.11151  0.85770  1.0000 -0.1717141024
C   C353      1.0  0.72527  0.80807  0.43540  1.0000 0.5498754377
C   C354      1.0  0.55807  0.62267  0.58280  1.0000 0.5498754377
C   C355      1.0  0.37267  0.28987  0.56460  1.0000 0.5498754377
C   C356      1.0  0.03987  0.97527  0.41720  1.0000 0.5498754377
C   C357      1.0  0.22527  0.78987  0.91720  1.0000 0.5498754377
C   C358      1.0  0.87267  0.30807  0.08280  1.0000 0.5498754377
C   C359      1.0  0.53987  0.12267  0.06460  1.0000 0.5498754377
C   C360      1.0  0.05807  0.47527  0.93540  1.0000 0.5498754377
C   C361      1.0  0.77030  0.88120  0.54630  1.0000 -0.0079894675
C   C362      1.0  0.63120  0.58490  0.61090  1.0000 -0.0079894675
C   C363      1.0  0.33490  0.22400  0.45370  1.0000 -0.0079894675
C   C364      1.0  0.97400  0.02030  0.38910  1.0000 -0.0079894675
C   C365      1.0  0.27030  0.72400  0.88910  1.0000 -0.0079894675
C   C366      1.0  0.83490  0.38120  0.11090  1.0000 -0.0079894675
C   C367      1.0  0.47400  0.08490  0.95370  1.0000 -0.0079894675
C   C368      1.0  0.13120  0.52030  0.04630  1.0000 -0.0079894675
C   C369      1.0  0.80054  0.89154  0.61820  1.0000 -0.1046254304
C   C370      1.0  0.64154  0.52334  0.59100  1.0000 -0.1046254304
C   C371      1.0  0.27334  0.18234  0.38180  1.0000 -0.1046254304
C   C372      1.0  0.93234  0.05054  0.40900  1.0000 -0.1046254304
C   C373      1.0  0.30054  0.68234  0.90900  1.0000 -0.1046254304
C   C374      1.0  0.77334  0.39154  0.09100  1.0000 -0.1046254304
C   C375      1.0  0.43234  0.02334  0.88180  1.0000 -0.1046254304
C   C376      1.0  0.14154  0.55054  0.11820  1.0000 -0.1046254304
C   C377      1.0  0.83927  0.95927  0.71840  1.0000 -0.1204373418
C   C378      1.0  0.70927  0.49087  0.62000  1.0000 -0.1204373418
C   C379      1.0  0.24087  0.12087  0.28160  1.0000 -0.1204373418
C   C380      1.0  0.87087  0.08927  0.38000  1.0000 -0.1204373418
C   C381      1.0  0.33927  0.62087  0.88000  1.0000 -0.1204373418
C   C382      1.0  0.74087  0.45927  0.12000  1.0000 -0.1204373418
C   C383      1.0  0.37087  0.99087  0.78160  1.0000 -0.1204373418
C   C384      1.0  0.20927  0.58927  0.21840  1.0000 -0.1204373418
C   C385      1.0  0.77857  0.93867  0.57490  1.0000 -0.1204373418
C   C386      1.0  0.68867  0.61377  0.66010  1.0000 -0.1204373418
C   C387      1.0  0.36377  0.20367  0.42510  1.0000 -0.1204373418
C   C388      1.0  0.95367  0.02857  0.33990  1.0000 -0.1204373418
C   C389      1.0  0.27857  0.70367  0.83990  1.0000 -0.1204373418
C   C390      1.0  0.86377  0.43867  0.16010  1.0000 -0.1204373418
C   C391      1.0  0.45367  0.11377  0.92510  1.0000 -0.1204373418
C   C392      1.0  0.18867  0.52857  0.07490  1.0000 -0.1204373418
C   C393      1.0  0.81637  0.00767  0.67590  1.0000 -0.1298664005
C   C394      1.0  0.75767  0.58177  0.69130  1.0000 -0.1298664005
C   C395      1.0  0.33177  0.14047  0.32410  1.0000 -0.1298664005
C   C396      1.0  0.89047  0.06637  0.30870  1.0000 -0.1298664005
C   C397      1.0  0.31637  0.64047  0.80870  1.0000 -0.1298664005
C   C398      1.0  0.83177  0.50767  0.19130  1.0000 -0.1298664005
C   C399      1.0  0.39047  0.08177  0.82410  1.0000 -0.1298664005
C   C400      1.0  0.25767  0.56637  0.17590  1.0000 -0.1298664005
C   C401      1.0  0.84756  0.01876  0.74940  1.0000 -0.019905097
C   C402      1.0  0.76876  0.51936  0.67120  1.0000 -0.019905097
C   C403      1.0  0.26936  0.09816  0.25060  1.0000 -0.019905097
C   C404      1.0  0.84816  0.09756  0.32880  1.0000 -0.019905097
C   C405      1.0  0.34756  0.59816  0.82880  1.0000 -0.019905097
C   C406      1.0  0.76936  0.51876  0.17120  1.0000 -0.019905097
C   C407      1.0  0.34816  0.01936  0.75060  1.0000 -0.019905097
C   C408      1.0  0.26876  0.59756  0.24940  1.0000 -0.019905097
C   C409      1.0  0.88739  0.09319  0.85760  1.0000 0.5333127188
C   C410      1.0  0.84319  0.48559  0.70580  1.0000 0.5333127188
C   C411      1.0  0.23559  0.02979  0.14240  1.0000 0.5333127188
C   C412      1.0  0.77979  0.13739  0.29420  1.0000 0.5333127188
C   C413      1.0  0.38739  0.52979  0.79420  1.0000 0.5333127188
C   C414      1.0  0.73559  0.59319  0.20580  1.0000 0.5333127188
C   C415      1.0  0.27979  0.98559  0.64240  1.0000 0.5333127188
C   C416      1.0  0.34319  0.63739  0.35760  1.0000 0.5333127188
N   N1        1.0  0.69898  0.38408  0.64870  1.0000 -0.2759036576
N   N2        1.0  0.73538  0.05028  0.35130  1.0000 -0.2759036576
N   N3        1.0  0.13408  0.98538  0.18510  1.0000 -0.2759036576
N   N4        1.0  0.80028  0.94898  0.81490  1.0000 -0.2759036576
N   N5        1.0  0.19898  0.55028  0.31490  1.0000 -0.2759036576
N   N6        1.0  0.30028  0.48538  0.85130  1.0000 -0.2759036576
N   N7        1.0  0.23538  0.88408  0.68510  1.0000 -0.2759036576
N   N8        1.0  0.63408  0.44898  0.14870  1.0000 -0.2759036576
N   N9        1.0  0.77389  0.47099  0.75670  1.0000 0.0093604915
N   N10       1.0  0.71429  0.01719  0.24330  1.0000 0.0093604915
N   N11       1.0  0.22099  0.96429  0.19710  1.0000 0.0093604915
N   N12       1.0  0.76719  0.02389  0.80290  1.0000 0.0093604915
N   N13       1.0  0.27389  0.51719  0.30290  1.0000 0.0093604915
N   N14       1.0  0.26719  0.46429  0.74330  1.0000 0.0093604915
N   N15       1.0  0.21429  0.97099  0.69710  1.0000 0.0093604915
N   N16       1.0  0.72099  0.52389  0.25670  1.0000 0.0093604915
N   N17       1.0  0.04417  0.93787  0.14730  1.0000 -0.2630470754
N   N18       1.0  0.79057  0.89687  0.85270  1.0000 -0.2630470754
N   N19       1.0  0.68787  0.04057  0.39370  1.0000 -0.2630470754
N   N20       1.0  0.64687  0.29417  0.60630  1.0000 -0.2630470754
N   N21       1.0  0.54417  0.39687  0.10630  1.0000 -0.2630470754
N   N22       1.0  0.14687  0.54057  0.35270  1.0000 -0.2630470754
N   N23       1.0  0.29057  0.43787  0.89370  1.0000 -0.2630470754
N   N24       1.0  0.18787  0.79417  0.64730  1.0000 -0.2630470754
N   N25       1.0  0.99155  0.86255  0.08460  1.0000 0.0093604915
N   N26       1.0  0.77795  0.90695  0.91540  1.0000 0.0093604915
N   N27       1.0  0.61255  0.02795  0.37100  1.0000 0.0093604915
N   N28       1.0  0.65695  0.24155  0.62900  1.0000 0.0093604915
N   N29       1.0  0.49155  0.40695  0.12900  1.0000 0.0093604915
N   N30       1.0  0.15695  0.52795  0.41540  1.0000 0.0093604915
N   N31       1.0  0.27795  0.36255  0.87100  1.0000 0.0093604915
N   N32       1.0  0.11255  0.74155  0.58460  1.0000 0.0093604915
N   N33       1.0  0.55102  0.69972  0.18510  1.0000 -0.2759036576
N   N34       1.0  0.44972  0.76462  0.64870  1.0000 -0.2759036576
N   N35       1.0  0.51462  0.36592  0.81490  1.0000 -0.2759036576
N   N36       1.0  0.11592  0.80102  0.35130  1.0000 -0.2759036576
N   N37       1.0  0.05102  0.86592  0.85130  1.0000 -0.2759036576
N   N38       1.0  0.01462  0.19972  0.14870  1.0000 -0.2759036576
N   N39       1.0  0.61592  0.26462  0.31490  1.0000 -0.2759036576
N   N40       1.0  0.94972  0.30102  0.68510  1.0000 -0.2759036576
N   N41       1.0  0.47611  0.73281  0.19710  1.0000 0.0093604915
N   N42       1.0  0.48281  0.78571  0.75670  1.0000 0.0093604915
N   N43       1.0  0.53571  0.27901  0.80290  1.0000 0.0093604915
N   N44       1.0  0.02901  0.72611  0.24330  1.0000 0.0093604915
N   N45       1.0  0.97611  0.77901  0.74330  1.0000 0.0093604915
N   N46       1.0  0.03571  0.23281  0.25670  1.0000 0.0093604915
N   N47       1.0  0.52901  0.28571  0.30290  1.0000 0.0093604915
N   N48       1.0  0.98281  0.22611  0.69710  1.0000 0.0093604915
N   N49       1.0  0.20583  0.85313  0.39370  1.0000 -0.2630470754
N   N50       1.0  0.60313  0.70943  0.14730  1.0000 -0.2630470754
N   N51       1.0  0.45943  0.81213  0.60630  1.0000 -0.2630470754
N   N52       1.0  0.56213  0.45583  0.85270  1.0000 -0.2630470754
N   N53       1.0  0.70583  0.31213  0.35270  1.0000 -0.2630470754
N   N54       1.0  0.95943  0.35313  0.64730  1.0000 -0.2630470754
N   N55       1.0  0.06213  0.20943  0.10630  1.0000 -0.2630470754
N   N56       1.0  0.10313  0.95583  0.89370  1.0000 -0.2630470754
N   N57       1.0  0.25845  0.84305  0.37100  1.0000 0.0093604915
N   N58       1.0  0.59305  0.72205  0.08460  1.0000 0.0093604915
N   N59       1.0  0.47205  0.88745  0.62900  1.0000 0.0093604915
N   N60       1.0  0.63745  0.50845  0.91540  1.0000 0.0093604915
N   N61       1.0  0.75845  0.38745  0.41540  1.0000 0.0093604915
N   N62       1.0  0.97205  0.34305  0.58460  1.0000 0.0093604915
N   N63       1.0  0.13745  0.22205  0.12900  1.0000 0.0093604915
N   N64       1.0  0.09305  0.00845  0.87100  1.0000 0.0093604915
O   O1        1.0  0.54721  0.42081  0.59680  1.0000 -0.5477289813
O   O2        1.0  0.82401  0.95041  0.40320  1.0000 -0.5477289813
O   O3        1.0  0.17081  0.07401  0.37360  1.0000 -0.5477289813
O   O4        1.0  0.70041  0.79721  0.62640  1.0000 -0.5477289813
O   O5        1.0  0.04721  0.45041  0.12640  1.0000 -0.5477289813
O   O6        1.0  0.20041  0.57401  0.90320  1.0000 -0.5477289813
O   O7        1.0  0.32401  0.92081  0.87360  1.0000 -0.5477289813
O   O8        1.0  0.67081  0.29721  0.09680  1.0000 -0.5477289813
O   O9        1.0  0.54029  0.44979  0.55170  1.0000 -0.5551730586
O   O10       1.0  0.89809  0.98859  0.44830  1.0000 -0.5477289813
O   O11       1.0  0.19979  0.14809  0.40950  1.0000 -0.5551730586
O   O12       1.0  0.73859  0.79029  0.59050  1.0000 -0.5551730586
O   O13       1.0  0.04029  0.48859  0.09050  1.0000 -0.5551730586
O   O14       1.0  0.23859  0.64809  0.94830  1.0000 -0.5551730586
O   O15       1.0  0.39809  0.94979  0.90950  1.0000 -0.5477289813
O   O16       1.0  0.69979  0.29029  0.05170  1.0000 -0.5551730586
O   O17       1.0  0.35985  0.74355  0.75770  1.0000 -0.5363747669
O   O18       1.0  0.98585  0.60215  0.24230  1.0000 -0.5363747669
O   O19       1.0  0.49355  0.23585  0.88370  1.0000 -0.5363747669
O   O20       1.0  0.35215  0.60985  0.11630  1.0000 -0.5363747669
O   O21       1.0  0.85985  0.10215  0.61630  1.0000 -0.5363747669
O   O22       1.0  0.85215  0.73585  0.74230  1.0000 -0.5363747669
O   O23       1.0  0.48585  0.24355  0.38370  1.0000 -0.5363747669
O   O24       1.0  0.99355  0.10985  0.25770  1.0000 -0.5363747669
O   O25       1.0  0.32974  0.75294  0.67760  1.0000 -0.5477289813
O   O26       1.0  0.07534  0.65214  0.32240  1.0000 -0.5477289813
O   O27       1.0  0.50294  0.32534  0.92320  1.0000 -0.5477289813
O   O28       1.0  0.40214  0.57974  0.07680  1.0000 -0.5477289813
O   O29       1.0  0.82974  0.15214  0.57680  1.0000 -0.5477289813
O   O30       1.0  0.90214  0.82534  0.82240  1.0000 -0.5477289813
O   O31       1.0  0.57534  0.25294  0.42320  1.0000 -0.5477289813
O   O32       1.0  0.00294  0.07974  0.17760  1.0000 -0.5477289813
O   O33       1.0  0.89381  0.75831  0.06050  1.0000 -0.2290705392
O   O34       1.0  0.69781  0.83331  0.93950  1.0000 -0.2290705392
O   O35       1.0  0.50831  0.94781  0.36450  1.0000 -0.2290705392
O   O36       1.0  0.58331  0.14381  0.63550  1.0000 -0.2290705392
O   O37       1.0  0.39381  0.33333  0.13550  1.0000 -0.2290705392
O   O38       1.0  0.08331  0.44781  0.43950  1.0000 -0.2290705392
O   O39       1.0  0.19781  0.25831  0.86450  1.0000 -0.2290705392
O   O40       1.0  0.00831  0.64381  0.56050  1.0000 -0.2290705392
O   O41       1.0  0.70279  0.79959  0.37360  1.0000 -0.5477289813
O   O42       1.0  0.54959  0.67599  0.59680  1.0000 -0.5477289813
O   O43       1.0  0.42599  0.32919  0.62640  1.0000 -0.5477289813
O   O44       1.0  0.07919  0.95279  0.40320  1.0000 -0.5477289813
O   O45       1.0  0.20279  0.82919  0.90320  1.0000 -0.5477289813
O   O46       1.0  0.92599  0.29959  0.09680  1.0000 -0.5477289813
O   O47       1.0  0.57919  0.17599  0.12640  1.0000 -0.5477289813
O   O48       1.0  0.04959  0.45279  0.87360  1.0000 -0.5477289813
O   O49       1.0  0.70971  0.76141  0.40950  1.0000 -0.5551730586
O   O50       1.0  0.51141  0.60191  0.55170  1.0000 -0.5551730586
O   O51       1.0  0.35191  0.30021  0.59050  1.0000 -0.5551730586
O   O52       1.0  0.05021  0.95971  0.44830  1.0000 -0.5551730586
O   O53       1.0  0.20971  0.80021  0.94830  1.0000 -0.5477289813
O   O54       1.0  0.85191  0.26141  0.05170  1.0000 -0.5477289813
O   O55       1.0  0.55021  0.10191  0.09050  1.0000 -0.5551730586
O   O56       1.0  0.01141  0.45971  0.90950  1.0000 -0.5477289813
O   O57       1.0  0.89015  0.14785  0.88370  1.0000 -0.5363747669
O   O58       1.0  0.89785  0.51415  0.75770  1.0000 -0.5363747669
O   O59       1.0  0.26415  0.00645  0.11630  1.0000 -0.5363747669
O   O60       1.0  0.75645  0.14015  0.24230  1.0000 -0.5363747669
O   O61       1.0  0.39015  0.50645  0.74230  1.0000 -0.5363747669
O   O62       1.0  0.76415  0.64785  0.25770  1.0000 -0.5363747669
O   O63       1.0  0.25645  0.01415  0.61630  1.0000 -0.5363747669
O   O64       1.0  0.39785  0.64015  0.38370  1.0000 -0.5363747669
O   O65       1.0  0.92026  0.09786  0.92320  1.0000 -0.5477289813
O   O66       1.0  0.84786  0.42466  0.67760  1.0000 -0.5477289813
O   O67       1.0  0.17466  0.99706  0.07680  1.0000 -0.5477289813
O   O68       1.0  0.74706  0.17026  0.32240  1.0000 -0.5477289813
O   O69       1.0  0.42026  0.49706  0.82240  1.0000 -0.5477289813
O   O70       1.0  0.67466  0.59786  0.17760  1.0000 -0.5477289813
O   O71       1.0  0.24706  0.92466  0.57680  1.0000 -0.5477289813
O   O72       1.0  0.34786  0.67026  0.42320  1.0000 -0.5477289813
O   O73       1.0  0.35619  0.91669  0.36450  1.0000 -0.2290705392
O   O74       1.0  0.66667  0.80219  0.06050  1.0000 -0.2290705392
O   O75       1.0  0.55219  0.99169  0.63550  1.0000 -0.2290705392
O   O76       1.0  0.74169  0.60619  0.93950  1.0000 -0.2290705392
O   O77       1.0  0.85619  0.49169  0.43950  1.0000 -0.2290705392
O   O78       1.0  0.05219  0.41669  0.56050  1.0000 -0.2290705392
O   O79       1.0  0.24169  0.30219  0.13550  1.0000 -0.2290705392
O   O80       1.0  0.16669  0.10619  0.86450  1.0000 -0.2290705392
