# DDEC6 charges by PACMAN v1.1 (https://github.com/mtap-research/PACMAN-charge/)
data_2010[Mn][pts]3[FSR]1
_chemical_formula_sum              "Mn4 H104 C100 S8 N16 O16"
_cell_length_a       12.175
_cell_length_b       12.175
_cell_length_c       24.924
_cell_angle_alpha    90
_cell_angle_beta     90
_cell_angle_gamma    90

_symmetry_space_group_name_H-M    "P 1"
_symmetry_Int_Tables_number       1

loop_
  _symmetry_equiv_pos_as_xyz
  'x, y, z'

loop_
  _atom_site_type_symbol
  _atom_site_label
  _atom_site_symmetry_multiplicity
  _atom_site_fract_x
  _atom_site_fract_y
  _atom_site_fract_z
  _atom_site_occupancy
  _atom_site_charge
Mn  Mn1       1.0  0.50000  0.50000  0.67384  1.0000 0.5960857645
Mn  Mn2       1.0  0.00000  0.00000  0.17384  1.0000 0.5960857645
Mn  Mn3       1.0  0.00000  0.00000  0.82616  1.0000 0.5960857645
Mn  Mn4       1.0  0.50000  0.50000  0.32616  1.0000 0.5960857645
H   H1        1.0  0.67290  0.66910  0.62230  1.0000 0.093362096
H   H2        1.0  0.32710  0.33090  0.62230  1.0000 0.093362096
H   H3        1.0  0.83090  0.17290  0.12230  1.0000 0.093362096
H   H4        1.0  0.16910  0.82710  0.12230  1.0000 0.093362096
H   H5        1.0  0.80750  0.68870  0.55900  1.0000 0.1505709421
H   H6        1.0  0.19250  0.31130  0.55900  1.0000 0.1505709421
H   H7        1.0  0.81130  0.30750  0.05900  1.0000 0.1505709421
H   H8        1.0  0.18870  0.69250  0.05900  1.0000 0.1505709421
H   H9        1.0  0.74380  0.38140  0.51140  1.0000 0.1331918929
H   H10       1.0  0.25620  0.61860  0.51140  1.0000 0.1331918929
H   H11       1.0  0.11860  0.24380  0.01140  1.0000 0.1331918929
H   H12       1.0  0.88140  0.75620  0.01140  1.0000 0.1331918929
H   H13       1.0  0.61130  0.37490  0.57640  1.0000 0.093362096
H   H14       1.0  0.38870  0.62510  0.57640  1.0000 0.093362096
H   H15       1.0  0.12510  0.11130  0.07640  1.0000 0.093362096
H   H16       1.0  0.87490  0.88870  0.07640  1.0000 0.093362096
H   H17       1.0  0.92430  0.39750  0.47920  1.0000 0.1051384807
H   H18       1.0  0.07570  0.60250  0.47920  1.0000 0.1051384807
H   H19       1.0  0.10250  0.42430  0.97920  1.0000 0.1051384807
H   H20       1.0  0.89750  0.57570  0.97920  1.0000 0.1051384807
H   H21       1.0  0.84200  0.44290  0.43580  1.0000 0.1018418259
H   H22       1.0  0.15800  0.55710  0.43580  1.0000 0.1018418259
H   H23       1.0  0.05710  0.34200  0.93580  1.0000 0.1018418259
H   H24       1.0  0.94290  0.65800  0.93580  1.0000 0.1018418259
H   H25       1.0  0.07580  0.34960  0.41140  1.0000 0.1018418259
H   H26       1.0  0.92420  0.65040  0.41140  1.0000 0.1018418259
H   H27       1.0  0.15040  0.57580  0.91140  1.0000 0.1018418259
H   H28       1.0  0.84960  0.42420  0.91140  1.0000 0.1018418259
H   H29       1.0  0.09430  0.43190  0.36360  1.0000 0.1018418259
H   H30       1.0  0.90570  0.56810  0.36360  1.0000 0.1018418259
H   H31       1.0  0.06810  0.59430  0.86360  1.0000 0.1018418259
H   H32       1.0  0.93190  0.40570  0.86360  1.0000 0.1018418259
H   H33       1.0  0.80550  0.25060  0.31430  1.0000 0.1384076476
H   H34       1.0  0.19450  0.74940  0.31430  1.0000 0.1384076476
H   H35       1.0  0.24940  0.30550  0.81430  1.0000 0.1384076476
H   H36       1.0  0.75060  0.69450  0.81430  1.0000 0.1384076476
H   H37       1.0  0.12880  0.28540  0.31880  1.0000 0.1384076476
H   H38       1.0  0.87120  0.71460  0.31880  1.0000 0.1384076476
H   H39       1.0  0.21460  0.62880  0.81880  1.0000 0.1384076476
H   H40       1.0  0.78540  0.37120  0.81880  1.0000 0.1384076476
H   H41       1.0  0.82700  0.13110  0.24490  1.0000 0.093362096
H   H42       1.0  0.17300  0.86890  0.24490  1.0000 0.093362096
H   H43       1.0  0.36890  0.32700  0.74490  1.0000 0.093362096
H   H44       1.0  0.63110  0.67300  0.74490  1.0000 0.093362096
H   H45       1.0  0.13890  0.14930  0.25370  1.0000 0.1018418259
H   H46       1.0  0.86110  0.85070  0.25370  1.0000 0.1018418259
H   H47       1.0  0.35070  0.63890  0.75370  1.0000 0.1018418259
H   H48       1.0  0.64930  0.36110  0.75370  1.0000 0.1018418259
H   H49       1.0  0.50920  0.26800  0.63840  1.0000 0.1331918929
H   H50       1.0  0.49080  0.73200  0.63840  1.0000 0.1331918929
H   H51       1.0  0.23200  0.00920  0.13840  1.0000 0.1331918929
H   H52       1.0  0.76800  0.99080  0.13840  1.0000 0.1331918929
H   H53       1.0  0.82710  0.83090  0.87770  1.0000 0.093362096
H   H54       1.0  0.17290  0.16910  0.87770  1.0000 0.093362096
H   H55       1.0  0.66910  0.32710  0.37770  1.0000 0.093362096
H   H56       1.0  0.33090  0.67290  0.37770  1.0000 0.093362096
H   H57       1.0  0.69250  0.81130  0.94100  1.0000 0.1505709421
H   H58       1.0  0.30750  0.18870  0.94100  1.0000 0.1505709421
H   H59       1.0  0.68870  0.19250  0.44100  1.0000 0.1505709421
H   H60       1.0  0.31130  0.80750  0.44100  1.0000 0.1505709421
H   H61       1.0  0.75620  0.11860  0.98860  1.0000 0.1331918929
H   H62       1.0  0.24380  0.88140  0.98860  1.0000 0.1331918929
H   H63       1.0  0.38140  0.25620  0.48860  1.0000 0.1331918929
H   H64       1.0  0.61860  0.74380  0.48860  1.0000 0.1331918929
H   H65       1.0  0.88870  0.12510  0.92360  1.0000 0.093362096
H   H66       1.0  0.11130  0.87490  0.92360  1.0000 0.093362096
H   H67       1.0  0.37490  0.38870  0.42360  1.0000 0.093362096
H   H68       1.0  0.62510  0.61130  0.42360  1.0000 0.093362096
H   H69       1.0  0.57570  0.10250  0.02080  1.0000 0.1051384807
H   H70       1.0  0.42430  0.89750  0.02080  1.0000 0.1051384807
H   H71       1.0  0.39750  0.07570  0.52080  1.0000 0.1051384807
H   H72       1.0  0.60250  0.92430  0.52080  1.0000 0.1051384807
H   H73       1.0  0.65800  0.05710  0.06420  1.0000 0.1018418259
H   H74       1.0  0.34200  0.94290  0.06420  1.0000 0.1018418259
H   H75       1.0  0.44290  0.15800  0.56420  1.0000 0.1018418259
H   H76       1.0  0.55710  0.84200  0.56420  1.0000 0.1018418259
H   H77       1.0  0.42420  0.15040  0.08860  1.0000 0.1018418259
H   H78       1.0  0.57580  0.84960  0.08860  1.0000 0.1018418259
H   H79       1.0  0.34960  0.92420  0.58860  1.0000 0.1018418259
H   H80       1.0  0.65040  0.07580  0.58860  1.0000 0.1018418259
H   H81       1.0  0.40570  0.06810  0.13640  1.0000 0.1018418259
H   H82       1.0  0.59430  0.93190  0.13640  1.0000 0.1018418259
H   H83       1.0  0.43190  0.90570  0.63640  1.0000 0.1018418259
H   H84       1.0  0.56810  0.09430  0.63640  1.0000 0.1018418259
H   H85       1.0  0.69450  0.24940  0.18570  1.0000 0.1384076476
H   H86       1.0  0.30550  0.75060  0.18570  1.0000 0.1384076476
H   H87       1.0  0.25060  0.19450  0.68570  1.0000 0.1384076476
H   H88       1.0  0.74940  0.80550  0.68570  1.0000 0.1384076476
H   H89       1.0  0.37120  0.21460  0.18120  1.0000 0.1384076476
H   H90       1.0  0.62880  0.78540  0.18120  1.0000 0.1384076476
H   H91       1.0  0.28540  0.87120  0.68120  1.0000 0.1384076476
H   H92       1.0  0.71460  0.12880  0.68120  1.0000 0.1384076476
H   H93       1.0  0.67300  0.36890  0.25510  1.0000 0.093362096
H   H94       1.0  0.32700  0.63110  0.25510  1.0000 0.093362096
H   H95       1.0  0.13110  0.17300  0.75510  1.0000 0.093362096
H   H96       1.0  0.86890  0.82700  0.75510  1.0000 0.093362096
H   H97       1.0  0.36110  0.35070  0.24630  1.0000 0.1018418259
H   H98       1.0  0.63890  0.64930  0.24630  1.0000 0.1018418259
H   H99       1.0  0.14930  0.86110  0.74630  1.0000 0.1018418259
H   H100      1.0  0.85070  0.13890  0.74630  1.0000 0.1018418259
H   H101      1.0  0.99080  0.23200  0.86160  1.0000 0.1331918929
H   H102      1.0  0.00920  0.76800  0.86160  1.0000 0.1331918929
H   H103      1.0  0.26800  0.49080  0.36160  1.0000 0.1331918929
H   H104      1.0  0.73200  0.50920  0.36160  1.0000 0.1331918929
C   C1        1.0  0.68770  0.61000  0.59980  1.0000 0.0714102593
C   C2        1.0  0.31230  0.39000  0.59980  1.0000 0.0714102593
C   C3        1.0  0.89000  0.18770  0.09980  1.0000 0.0714102593
C   C4        1.0  0.11000  0.81230  0.09980  1.0000 0.0714102593
C   C5        1.0  0.76920  0.62290  0.56196  1.0000 -0.2684851624
C   C6        1.0  0.23080  0.37710  0.56196  1.0000 -0.2684851624
C   C7        1.0  0.87710  0.26920  0.06196  1.0000 -0.2684851624
C   C8        1.0  0.12290  0.73080  0.06196  1.0000 -0.2684851624
C   C9        1.0  0.79240  0.53620  0.52890  1.0000 0.2725068629
C   C10       1.0  0.20760  0.46380  0.52890  1.0000 0.2725068629
C   C11       1.0  0.96380  0.29240  0.02890  1.0000 0.2725068629
C   C12       1.0  0.03620  0.70760  0.02890  1.0000 0.2725068629
C   C13       1.0  0.73170  0.44140  0.53378  1.0000 -0.2806794736
C   C14       1.0  0.26830  0.55860  0.53378  1.0000 -0.2806794736
C   C15       1.0  0.05860  0.23170  0.03378  1.0000 -0.2806794736
C   C16       1.0  0.94140  0.76830  0.03378  1.0000 -0.2806794736
C   C17       1.0  0.65240  0.43900  0.57306  1.0000 0.0802830346
C   C18       1.0  0.34760  0.56100  0.57306  1.0000 0.0802830346
C   C19       1.0  0.06100  0.15240  0.07306  1.0000 0.0802830346
C   C20       1.0  0.93900  0.84760  0.07306  1.0000 0.0802830346
C   C21       1.0  0.90390  0.46180  0.45846  1.0000 -0.1000554333
C   C22       1.0  0.09610  0.53820  0.45846  1.0000 -0.1000554333
C   C23       1.0  0.03820  0.40390  0.95846  1.0000 -0.1000554333
C   C24       1.0  0.96180  0.59610  0.95846  1.0000 -0.1000554333
C   C25       1.0  0.00000  0.50000  0.42449  1.0000 0.0802830346
C   C26       1.0  0.00000  0.50000  0.92449  1.0000 0.0802830346
C   C27       1.0  0.04090  0.40520  0.38938  1.0000 -0.1000554333
C   C28       1.0  0.95910  0.59480  0.38938  1.0000 -0.1000554333
C   C29       1.0  0.09480  0.54090  0.88938  1.0000 -0.1000554333
C   C30       1.0  0.90520  0.45910  0.88938  1.0000 -0.1000554333
C   C31       1.0  0.96460  0.28660  0.32251  1.0000 0.2793468386
C   C32       1.0  0.03540  0.71340  0.32251  1.0000 0.2793468386
C   C33       1.0  0.21340  0.46460  0.82251  1.0000 0.2793468386
C   C34       1.0  0.78660  0.53540  0.82251  1.0000 0.2793468386
C   C35       1.0  0.87540  0.23570  0.30118  1.0000 -0.2806794736
C   C36       1.0  0.12460  0.76430  0.30118  1.0000 -0.2806794736
C   C37       1.0  0.26430  0.37540  0.80118  1.0000 -0.2806794736
C   C38       1.0  0.73570  0.62460  0.80118  1.0000 -0.2806794736
C   C39       1.0  0.06510  0.25480  0.30467  1.0000 -0.2684851624
C   C40       1.0  0.93490  0.74520  0.30467  1.0000 -0.2684851624
C   C41       1.0  0.24520  0.56510  0.80467  1.0000 -0.2684851624
C   C42       1.0  0.75480  0.43490  0.80467  1.0000 -0.2684851624
C   C43       1.0  0.88980  0.16190  0.25991  1.0000 0.093362096
C   C44       1.0  0.11020  0.83810  0.25991  1.0000 0.093362096
C   C45       1.0  0.33810  0.38980  0.75991  1.0000 0.093362096
C   C46       1.0  0.66190  0.61020  0.75991  1.0000 0.093362096
C   C47       1.0  0.07000  0.17430  0.26426  1.0000 0.1018418259
C   C48       1.0  0.93000  0.82570  0.26426  1.0000 0.1018418259
C   C49       1.0  0.32570  0.57000  0.76426  1.0000 0.1018418259
C   C50       1.0  0.67430  0.43000  0.76426  1.0000 0.1018418259
C   C51       1.0  0.81230  0.89000  0.90020  1.0000 0.0714102593
C   C52       1.0  0.18770  0.11000  0.90020  1.0000 0.0714102593
C   C53       1.0  0.61000  0.31230  0.40020  1.0000 0.0714102593
C   C54       1.0  0.39000  0.68770  0.40020  1.0000 0.0714102593
C   C55       1.0  0.73080  0.87710  0.93804  1.0000 -0.2684851624
C   C56       1.0  0.26920  0.12290  0.93804  1.0000 -0.2684851624
C   C57       1.0  0.62290  0.23080  0.43804  1.0000 -0.2684851624
C   C58       1.0  0.37710  0.76920  0.43804  1.0000 -0.2684851624
C   C59       1.0  0.70760  0.96380  0.97110  1.0000 0.2725068629
C   C60       1.0  0.29240  0.03620  0.97110  1.0000 0.2725068629
C   C61       1.0  0.53620  0.20760  0.47110  1.0000 0.2725068629
C   C62       1.0  0.46380  0.79240  0.47110  1.0000 0.2725068629
C   C63       1.0  0.76830  0.05860  0.96622  1.0000 -0.2806794736
C   C64       1.0  0.23170  0.94140  0.96622  1.0000 -0.2806794736
C   C65       1.0  0.44140  0.26830  0.46622  1.0000 -0.2806794736
C   C66       1.0  0.55860  0.73170  0.46622  1.0000 -0.2806794736
C   C67       1.0  0.84760  0.06100  0.92694  1.0000 0.0802830346
C   C68       1.0  0.15240  0.93900  0.92694  1.0000 0.0802830346
C   C69       1.0  0.43900  0.34760  0.42694  1.0000 0.0802830346
C   C70       1.0  0.56100  0.65240  0.42694  1.0000 0.0802830346
C   C71       1.0  0.59610  0.03820  0.04154  1.0000 -0.1000554333
C   C72       1.0  0.40390  0.96180  0.04154  1.0000 -0.1000554333
C   C73       1.0  0.46180  0.09610  0.54154  1.0000 -0.1000554333
C   C74       1.0  0.53820  0.90390  0.54154  1.0000 -0.1000554333
C   C75       1.0  0.50000  0.00000  0.07551  1.0000 0.0802830346
C   C76       1.0  0.50000  0.00000  0.57551  1.0000 0.0802830346
C   C77       1.0  0.45910  0.09480  0.11062  1.0000 -0.1000554333
C   C78       1.0  0.54090  0.90520  0.11062  1.0000 -0.1000554333
C   C79       1.0  0.40520  0.95910  0.61062  1.0000 -0.1000554333
C   C80       1.0  0.59480  0.04090  0.61062  1.0000 -0.1000554333
C   C81       1.0  0.53540  0.21340  0.17749  1.0000 0.2793468386
C   C82       1.0  0.46460  0.78660  0.17749  1.0000 0.2793468386
C   C83       1.0  0.28660  0.03540  0.67749  1.0000 0.2793468386
C   C84       1.0  0.71340  0.96460  0.67749  1.0000 0.2793468386
C   C85       1.0  0.62460  0.26430  0.19882  1.0000 -0.2806794736
C   C86       1.0  0.37540  0.73570  0.19882  1.0000 -0.2806794736
C   C87       1.0  0.23570  0.12460  0.69882  1.0000 -0.2806794736
C   C88       1.0  0.76430  0.87540  0.69882  1.0000 -0.2806794736
C   C89       1.0  0.43490  0.24520  0.19533  1.0000 -0.2684851624
C   C90       1.0  0.56510  0.75480  0.19533  1.0000 -0.2684851624
C   C91       1.0  0.25480  0.93490  0.69533  1.0000 -0.2684851624
C   C92       1.0  0.74520  0.06510  0.69533  1.0000 -0.2684851624
C   C93       1.0  0.61020  0.33810  0.24009  1.0000 0.093362096
C   C94       1.0  0.38980  0.66190  0.24009  1.0000 0.093362096
C   C95       1.0  0.16190  0.11020  0.74009  1.0000 0.093362096
C   C96       1.0  0.83810  0.88980  0.74009  1.0000 0.093362096
C   C97       1.0  0.43000  0.32570  0.23574  1.0000 0.1018418259
C   C98       1.0  0.57000  0.67430  0.23574  1.0000 0.1018418259
C   C99       1.0  0.17430  0.93000  0.73574  1.0000 0.1018418259
C   C100      1.0  0.82570  0.07000  0.73574  1.0000 0.1018418259
S   S1        1.0  0.52679  0.29627  0.67334  1.0000 -0.631422542
S   S2        1.0  0.47321  0.70373  0.67334  1.0000 -0.631422542
S   S3        1.0  0.20373  0.02679  0.17334  1.0000 -0.631422542
S   S4        1.0  0.79627  0.97321  0.17334  1.0000 -0.631422542
S   S5        1.0  0.97321  0.20373  0.82666  1.0000 -0.631422542
S   S6        1.0  0.02679  0.79627  0.82666  1.0000 -0.631422542
S   S7        1.0  0.29627  0.47321  0.32666  1.0000 -0.631422542
S   S8        1.0  0.70373  0.52679  0.32666  1.0000 -0.631422542
N   N1        1.0  0.62970  0.52050  0.60643  1.0000 -0.219402574
N   N2        1.0  0.37030  0.47950  0.60643  1.0000 -0.219402574
N   N3        1.0  0.97950  0.12970  0.10643  1.0000 -0.219402574
N   N4        1.0  0.02050  0.87030  0.10643  1.0000 -0.219402574
N   N5        1.0  0.98290  0.13190  0.24036  1.0000 -0.2272503469
N   N6        1.0  0.01710  0.86810  0.24036  1.0000 -0.2272503469
N   N7        1.0  0.36810  0.48290  0.74036  1.0000 -0.2272503469
N   N8        1.0  0.63190  0.51710  0.74036  1.0000 -0.2272503469
N   N9        1.0  0.87030  0.97950  0.89357  1.0000 -0.219402574
N   N10       1.0  0.12970  0.02050  0.89357  1.0000 -0.219402574
N   N11       1.0  0.52050  0.37030  0.39357  1.0000 -0.219402574
N   N12       1.0  0.47950  0.62970  0.39357  1.0000 -0.219402574
N   N13       1.0  0.51710  0.36810  0.25964  1.0000 -0.2272503469
N   N14       1.0  0.48290  0.63190  0.25964  1.0000 -0.2272503469
N   N15       1.0  0.13190  0.01710  0.75964  1.0000 -0.2272503469
N   N16       1.0  0.86810  0.98290  0.75964  1.0000 -0.2272503469
O   O1        1.0  0.87540  0.55070  0.49354  1.0000 -0.1733909053
O   O2        1.0  0.12460  0.44930  0.49354  1.0000 -0.1733909053
O   O3        1.0  0.94930  0.37540  0.99354  1.0000 -0.1733909053
O   O4        1.0  0.05070  0.62460  0.99354  1.0000 -0.1733909053
O   O5        1.0  0.94774  0.35933  0.36200  1.0000 -0.1733909053
O   O6        1.0  0.05226  0.64067  0.36200  1.0000 -0.1733909053
O   O7        1.0  0.14067  0.44774  0.86200  1.0000 -0.1733909053
O   O8        1.0  0.85933  0.55226  0.86200  1.0000 -0.1733909053
O   O9        1.0  0.62460  0.94930  0.00646  1.0000 -0.1733909053
O   O10       1.0  0.37540  0.05070  0.00646  1.0000 -0.1733909053
O   O11       1.0  0.55070  0.12460  0.50646  1.0000 -0.1733909053
O   O12       1.0  0.44930  0.87540  0.50646  1.0000 -0.1733909053
O   O13       1.0  0.55226  0.14067  0.13800  1.0000 -0.1733909053
O   O14       1.0  0.44774  0.85933  0.13800  1.0000 -0.1733909053
O   O15       1.0  0.35933  0.05226  0.63800  1.0000 -0.1733909053
O   O16       1.0  0.64067  0.94774  0.63800  1.0000 -0.1733909053
