# DDEC6 charges by PACMAN v1.1 (https://github.com/mtap-research/PACMAN-charge/)
data_2011[Sm][mog]3[FSR]1
_chemical_formula_sum              "Sm2 H12 C14 N4 O16"
_cell_length_a       6.1139
_cell_length_b       9.983
_cell_length_c       13.413
_cell_angle_alpha    68.931
_cell_angle_beta     80.96
_cell_angle_gamma    76.689

_symmetry_space_group_name_H-M    "P 1"
_symmetry_Int_Tables_number       1

loop_
  _symmetry_equiv_pos_as_xyz
  'x, y, z'

loop_
  _atom_site_type_symbol
  _atom_site_label
  _atom_site_symmetry_multiplicity
  _atom_site_fract_x
  _atom_site_fract_y
  _atom_site_fract_z
  _atom_site_occupancy
  _atom_site_charge
Sm  Sm1       1.0  0.16918  0.38542  0.80359  1.0000 1.9571929242
Sm  Sm2       1.0  0.83082  0.61458  0.19641  1.0000 1.9571929242
H   H1        1.0  0.67750  0.95040  0.97100  1.0000 0.1369328763
H   H2        1.0  0.32250  0.04960  0.02900  1.0000 0.1369328763
H   H3        1.0  0.29800  0.67420  0.36940  1.0000 0.1330799426
H   H4        1.0  0.70200  0.32580  0.63060  1.0000 0.1330799426
H   H5        1.0  0.13310  0.21860  0.65490  1.0000 0.3559616472
H   H6        1.0  0.86690  0.78140  0.34510  1.0000 0.3559616472
H   H7        1.0  0.29180  0.14180  0.71850  1.0000 0.3290363963
H   H8        1.0  0.70820  0.85820  0.28150  1.0000 0.3290363963
H   H9        1.0  0.54070  0.51560  0.78840  1.0000 0.347122636
H   H10       1.0  0.45930  0.48440  0.21160  1.0000 0.347122636
H   H11       1.0  0.43100  0.63770  0.72880  1.0000 0.3374295648
H   H12       1.0  0.56900  0.36230  0.27120  1.0000 0.3374295648
C   C1        1.0  0.71370  0.23280  0.85960  1.0000 0.5887483622
C   C2        1.0  0.28630  0.76720  0.14040  1.0000 0.5887483622
C   C3        1.0  0.86750  0.10470  0.93160  1.0000 0.080275562
C   C4        1.0  0.13250  0.89530  0.06840  1.0000 0.080275562
C   C5        1.0  0.81020  0.96860  0.98490  1.0000 0.080275562
C   C6        1.0  0.18980  0.03140  0.01510  1.0000 0.080275562
C   C7        1.0  0.05160  0.61650  0.56050  1.0000 0.5546551313
C   C8        1.0  0.94840  0.38350  0.43950  1.0000 0.5546551313
C   C9        1.0  0.28840  0.55610  0.52720  1.0000 0.0684471432
C   C10       1.0  0.71160  0.44390  0.47280  1.0000 0.0684471432
C   C11       1.0  0.38380  0.60220  0.42180  1.0000 0.0684471432
C   C12       1.0  0.61620  0.39780  0.57820  1.0000 0.0684471432
C   C13       1.0  0.91080  0.55930  0.96670  1.0000 0.5046848919
C   C14       1.0  0.08920  0.44070  0.03330  1.0000 0.5046848919
N   N1        1.0  0.06110  0.13530  0.94540  1.0000 -0.2703684602
N   N2        1.0  0.93890  0.86470  0.05460  1.0000 -0.2703684602
N   N3        1.0  0.40620  0.45380  0.60590  1.0000 -0.284085441
N   N4        1.0  0.59380  0.54620  0.39410  1.0000 -0.284085441
O   O1        1.0  0.78710  0.34830  0.81570  1.0000 -0.5839016174
O   O2        1.0  0.21290  0.65170  0.18430  1.0000 -0.5839016174
O   O3        1.0  0.52250  0.21500  0.84910  1.0000 -0.638433579
O   O4        1.0  0.47750  0.78500  0.15090  1.0000 -0.638433579
O   O5        1.0  0.98570  0.56890  0.65770  1.0000 -0.6108370755
O   O6        1.0  0.01430  0.43110  0.34230  1.0000 -0.6108370755
O   O7        1.0  0.93320  0.70930  0.49010  1.0000 -0.5210388635
O   O8        1.0  0.06680  0.29070  0.50990  1.0000 -0.5210388635
O   O9        1.0  0.91650  0.56950  0.87040  1.0000 -0.5614061092
O   O10       1.0  0.08350  0.43050  0.12960  1.0000 -0.5614061092
O   O11       1.0  0.77630  0.63760  0.01330  1.0000 -0.5866272186
O   O12       1.0  0.22370  0.36240  0.98670  1.0000 -0.5866272186
O   O13       1.0  0.17410  0.20870  0.71580  1.0000 -0.7631748055
O   O14       1.0  0.82590  0.79130  0.28420  1.0000 -0.7631748055
O   O15       1.0  0.40890  0.56450  0.78050  1.0000 -0.7224166129
O   O16       1.0  0.59110  0.43550  0.21950  1.0000 -0.7224166129
