# DDEC6 charges by PACMAN v1.1 (https://github.com/mtap-research/PACMAN-charge/)
data_2011[CoEu][nan]3[FSR]1
_chemical_formula_sum              "Eu4 Co6 H60 C84 N12 O60"
_cell_length_a       15.2806
_cell_length_b       15.2806
_cell_length_c       15.393
_cell_angle_alpha    90
_cell_angle_beta     90
_cell_angle_gamma    120

_symmetry_space_group_name_H-M    "P 1"
_symmetry_Int_Tables_number       1

loop_
  _symmetry_equiv_pos_as_xyz
  'x, y, z'

loop_
  _atom_site_type_symbol
  _atom_site_label
  _atom_site_symmetry_multiplicity
  _atom_site_fract_x
  _atom_site_fract_y
  _atom_site_fract_z
  _atom_site_occupancy
  _atom_site_charge
Eu  Eu1       1.0  0.33333  0.66667  0.25000  1.0000 1.8637965962
Eu  Eu2       1.0  0.66667  0.33333  0.25000  1.0000 1.8637965962
Eu  Eu3       1.0  0.66667  0.33333  0.75000  1.0000 1.8637965962
Eu  Eu4       1.0  0.33333  0.66667  0.75000  1.0000 1.8637965962
Co  Co1       1.0  0.50000  0.00000  0.00000  1.0000 1.0651811008
Co  Co2       1.0  0.00000  0.50000  0.00000  1.0000 1.0651811008
Co  Co3       1.0  0.50000  0.50000  0.00000  1.0000 1.0651811008
Co  Co4       1.0  0.00000  0.50000  0.50000  1.0000 1.0651811008
Co  Co5       1.0  0.50000  0.00000  0.50000  1.0000 1.0651811008
Co  Co6       1.0  0.50000  0.50000  0.50000  1.0000 1.0651811008
H   H1        1.0  0.47960  0.83100  0.95700  1.0000 0.3331450045
H   H2        1.0  0.16900  0.64860  0.95700  1.0000 0.3331450045
H   H3        1.0  0.35140  0.52040  0.95700  1.0000 0.3331450045
H   H4        1.0  0.52040  0.16900  0.95700  1.0000 0.3331450045
H   H5        1.0  0.83100  0.35140  0.95700  1.0000 0.3331450045
H   H6        1.0  0.64860  0.47960  0.95700  1.0000 0.3331450045
H   H7        1.0  0.83100  0.47960  0.54300  1.0000 0.3331450045
H   H8        1.0  0.64860  0.16900  0.54300  1.0000 0.3331450045
H   H9        1.0  0.52040  0.35140  0.54300  1.0000 0.3331450045
H   H10       1.0  0.16900  0.52040  0.54300  1.0000 0.3331450045
H   H11       1.0  0.35140  0.83100  0.54300  1.0000 0.3331450045
H   H12       1.0  0.47960  0.64860  0.54300  1.0000 0.3331450045
H   H13       1.0  0.52040  0.16900  0.04300  1.0000 0.3331450045
H   H14       1.0  0.83100  0.35140  0.04300  1.0000 0.3331450045
H   H15       1.0  0.64860  0.47960  0.04300  1.0000 0.3331450045
H   H16       1.0  0.47960  0.83100  0.04300  1.0000 0.3331450045
H   H17       1.0  0.16900  0.64860  0.04300  1.0000 0.3331450045
H   H18       1.0  0.35140  0.52040  0.04300  1.0000 0.3331450045
H   H19       1.0  0.16900  0.52040  0.45700  1.0000 0.3331450045
H   H20       1.0  0.35140  0.83100  0.45700  1.0000 0.3331450045
H   H21       1.0  0.47960  0.64860  0.45700  1.0000 0.3331450045
H   H22       1.0  0.83100  0.47960  0.45700  1.0000 0.3331450045
H   H23       1.0  0.64860  0.16900  0.45700  1.0000 0.3331450045
H   H24       1.0  0.52040  0.35140  0.45700  1.0000 0.3331450045
H   H25       1.0  0.23380  0.94610  0.15460  1.0000 0.1391758591
H   H26       1.0  0.05390  0.28770  0.15460  1.0000 0.1391758591
H   H27       1.0  0.71230  0.76620  0.15460  1.0000 0.1391758591
H   H28       1.0  0.76620  0.05390  0.15460  1.0000 0.1391758591
H   H29       1.0  0.94610  0.71230  0.15460  1.0000 0.1391758591
H   H30       1.0  0.28770  0.23380  0.15460  1.0000 0.1391758591
H   H31       1.0  0.94610  0.23380  0.34540  1.0000 0.1391758591
H   H32       1.0  0.28770  0.05390  0.34540  1.0000 0.1391758591
H   H33       1.0  0.76620  0.71230  0.34540  1.0000 0.1391758591
H   H34       1.0  0.05390  0.76620  0.34540  1.0000 0.1391758591
H   H35       1.0  0.71230  0.94610  0.34540  1.0000 0.1391758591
H   H36       1.0  0.23380  0.28770  0.34540  1.0000 0.1391758591
H   H37       1.0  0.76620  0.05390  0.84540  1.0000 0.1391758591
H   H38       1.0  0.94610  0.71230  0.84540  1.0000 0.1391758591
H   H39       1.0  0.28770  0.23380  0.84540  1.0000 0.1391758591
H   H40       1.0  0.23380  0.94610  0.84540  1.0000 0.1391758591
H   H41       1.0  0.05390  0.28770  0.84540  1.0000 0.1391758591
H   H42       1.0  0.71230  0.76620  0.84540  1.0000 0.1391758591
H   H43       1.0  0.05390  0.76620  0.65460  1.0000 0.1391758591
H   H44       1.0  0.71230  0.94610  0.65460  1.0000 0.1391758591
H   H45       1.0  0.23380  0.28770  0.65460  1.0000 0.1391758591
H   H46       1.0  0.94610  0.23380  0.65460  1.0000 0.1391758591
H   H47       1.0  0.28770  0.05390  0.65460  1.0000 0.1391758591
H   H48       1.0  0.76620  0.71230  0.65460  1.0000 0.1391758591
H   H49       1.0  0.09960  0.90040  0.25000  1.0000 0.108297535
H   H50       1.0  0.09960  0.19920  0.25000  1.0000 0.108297535
H   H51       1.0  0.80080  0.90040  0.25000  1.0000 0.108297535
H   H52       1.0  0.90040  0.09960  0.25000  1.0000 0.108297535
H   H53       1.0  0.90040  0.80080  0.25000  1.0000 0.108297535
H   H54       1.0  0.19920  0.09960  0.25000  1.0000 0.108297535
H   H55       1.0  0.90040  0.09960  0.75000  1.0000 0.108297535
H   H56       1.0  0.90040  0.80080  0.75000  1.0000 0.108297535
H   H57       1.0  0.19920  0.09960  0.75000  1.0000 0.108297535
H   H58       1.0  0.09960  0.90040  0.75000  1.0000 0.108297535
H   H59       1.0  0.09960  0.19920  0.75000  1.0000 0.108297535
H   H60       1.0  0.80080  0.90040  0.75000  1.0000 0.108297535
C   C1        1.0  0.35390  0.86350  0.13850  1.0000 0.5700767308
C   C2        1.0  0.13650  0.49040  0.13850  1.0000 0.5700767308
C   C3        1.0  0.50960  0.64610  0.13850  1.0000 0.5700767308
C   C4        1.0  0.64610  0.13650  0.13850  1.0000 0.5700767308
C   C5        1.0  0.86350  0.50960  0.13850  1.0000 0.5700767308
C   C6        1.0  0.49040  0.35390  0.13850  1.0000 0.5700767308
C   C7        1.0  0.86350  0.35390  0.36150  1.0000 0.5700767308
C   C8        1.0  0.49040  0.13650  0.36150  1.0000 0.5700767308
C   C9        1.0  0.64610  0.50960  0.36150  1.0000 0.5700767308
C   C10       1.0  0.13650  0.64610  0.36150  1.0000 0.5700767308
C   C11       1.0  0.50960  0.86350  0.36150  1.0000 0.5700767308
C   C12       1.0  0.35390  0.49040  0.36150  1.0000 0.5700767308
C   C13       1.0  0.64610  0.13650  0.86150  1.0000 0.5700767308
C   C14       1.0  0.86350  0.50960  0.86150  1.0000 0.5700767308
C   C15       1.0  0.49040  0.35390  0.86150  1.0000 0.5700767308
C   C16       1.0  0.35390  0.86350  0.86150  1.0000 0.5700767308
C   C17       1.0  0.13650  0.49040  0.86150  1.0000 0.5700767308
C   C18       1.0  0.50960  0.64610  0.86150  1.0000 0.5700767308
C   C19       1.0  0.13650  0.64610  0.63850  1.0000 0.5700767308
C   C20       1.0  0.50960  0.86350  0.63850  1.0000 0.5700767308
C   C21       1.0  0.35390  0.49040  0.63850  1.0000 0.5700767308
C   C22       1.0  0.86350  0.35390  0.63850  1.0000 0.5700767308
C   C23       1.0  0.49040  0.13650  0.63850  1.0000 0.5700767308
C   C24       1.0  0.64610  0.50960  0.63850  1.0000 0.5700767308
C   C25       1.0  0.26490  0.83960  0.19600  1.0000 0.1317423707
C   C26       1.0  0.16040  0.42530  0.19600  1.0000 0.1317423707
C   C27       1.0  0.57470  0.73510  0.19600  1.0000 0.1317423707
C   C28       1.0  0.73510  0.16040  0.19600  1.0000 0.1317423707
C   C29       1.0  0.83960  0.57470  0.19600  1.0000 0.1317423707
C   C30       1.0  0.42530  0.26490  0.19600  1.0000 0.1317423707
C   C31       1.0  0.83960  0.26490  0.30400  1.0000 0.1317423707
C   C32       1.0  0.42530  0.16040  0.30400  1.0000 0.1317423707
C   C33       1.0  0.73510  0.57470  0.30400  1.0000 0.1317423707
C   C34       1.0  0.16040  0.73510  0.30400  1.0000 0.1317423707
C   C35       1.0  0.57470  0.83960  0.30400  1.0000 0.1317423707
C   C36       1.0  0.26490  0.42530  0.30400  1.0000 0.1317423707
C   C37       1.0  0.73510  0.16040  0.80400  1.0000 0.1317423707
C   C38       1.0  0.83960  0.57470  0.80400  1.0000 0.1317423707
C   C39       1.0  0.42530  0.26490  0.80400  1.0000 0.1317423707
C   C40       1.0  0.26490  0.83960  0.80400  1.0000 0.1317423707
C   C41       1.0  0.16040  0.42530  0.80400  1.0000 0.1317423707
C   C42       1.0  0.57470  0.73510  0.80400  1.0000 0.1317423707
C   C43       1.0  0.16040  0.73510  0.69600  1.0000 0.1317423707
C   C44       1.0  0.57470  0.83960  0.69600  1.0000 0.1317423707
C   C45       1.0  0.26490  0.42530  0.69600  1.0000 0.1317423707
C   C46       1.0  0.83960  0.26490  0.69600  1.0000 0.1317423707
C   C47       1.0  0.42530  0.16040  0.69600  1.0000 0.1317423707
C   C48       1.0  0.73510  0.57470  0.69600  1.0000 0.1317423707
C   C49       1.0  0.21470  0.89290  0.19340  1.0000 -0.1312810623
C   C50       1.0  0.10710  0.32180  0.19340  1.0000 -0.1312810623
C   C51       1.0  0.67820  0.78530  0.19340  1.0000 -0.1312810623
C   C52       1.0  0.78530  0.10710  0.19340  1.0000 -0.1312810623
C   C53       1.0  0.89290  0.67820  0.19340  1.0000 -0.1312810623
C   C54       1.0  0.32180  0.21470  0.19340  1.0000 -0.1312810623
C   C55       1.0  0.89290  0.21470  0.30660  1.0000 -0.1312810623
C   C56       1.0  0.32180  0.10710  0.30660  1.0000 -0.1312810623
C   C57       1.0  0.78530  0.67820  0.30660  1.0000 -0.1312810623
C   C58       1.0  0.10710  0.78530  0.30660  1.0000 -0.1312810623
C   C59       1.0  0.67820  0.89290  0.30660  1.0000 -0.1312810623
C   C60       1.0  0.21470  0.32180  0.30660  1.0000 -0.1312810623
C   C61       1.0  0.78530  0.10710  0.80660  1.0000 -0.1312810623
C   C62       1.0  0.89290  0.67820  0.80660  1.0000 -0.1312810623
C   C63       1.0  0.32180  0.21470  0.80660  1.0000 -0.1312810623
C   C64       1.0  0.21470  0.89290  0.80660  1.0000 -0.1312810623
C   C65       1.0  0.10710  0.32180  0.80660  1.0000 -0.1312810623
C   C66       1.0  0.67820  0.78530  0.80660  1.0000 -0.1312810623
C   C67       1.0  0.10710  0.78530  0.69340  1.0000 -0.1312810623
C   C68       1.0  0.67820  0.89290  0.69340  1.0000 -0.1312810623
C   C69       1.0  0.21470  0.32180  0.69340  1.0000 -0.1312810623
C   C70       1.0  0.89290  0.21470  0.69340  1.0000 -0.1312810623
C   C71       1.0  0.32180  0.10710  0.69340  1.0000 -0.1312810623
C   C72       1.0  0.78530  0.67820  0.69340  1.0000 -0.1312810623
C   C73       1.0  0.13480  0.86520  0.25000  1.0000 -0.0570339507
C   C74       1.0  0.13480  0.26960  0.25000  1.0000 -0.0570339507
C   C75       1.0  0.73040  0.86520  0.25000  1.0000 -0.0570339507
C   C76       1.0  0.86520  0.13480  0.25000  1.0000 -0.0570339507
C   C77       1.0  0.86520  0.73040  0.25000  1.0000 -0.0570339507
C   C78       1.0  0.26960  0.13480  0.25000  1.0000 -0.0570339507
C   C79       1.0  0.86520  0.13480  0.75000  1.0000 -0.0570339507
C   C80       1.0  0.86520  0.73040  0.75000  1.0000 -0.0570339507
C   C81       1.0  0.26960  0.13480  0.75000  1.0000 -0.0570339507
C   C82       1.0  0.13480  0.86520  0.75000  1.0000 -0.0570339507
C   C83       1.0  0.13480  0.26960  0.75000  1.0000 -0.0570339507
C   C84       1.0  0.73040  0.86520  0.75000  1.0000 -0.0570339507
N   N1        1.0  0.23832  0.76168  0.25000  1.0000 -0.3428868135
N   N2        1.0  0.23832  0.47664  0.25000  1.0000 -0.3428868135
N   N3        1.0  0.52336  0.76168  0.25000  1.0000 -0.3428868135
N   N4        1.0  0.76168  0.23832  0.25000  1.0000 -0.3428868135
N   N5        1.0  0.76168  0.52336  0.25000  1.0000 -0.3428868135
N   N6        1.0  0.47664  0.23832  0.25000  1.0000 -0.3428868135
N   N7        1.0  0.76168  0.23832  0.75000  1.0000 -0.3428868135
N   N8        1.0  0.76168  0.52336  0.75000  1.0000 -0.3428868135
N   N9        1.0  0.47664  0.23832  0.75000  1.0000 -0.3428868135
N   N10       1.0  0.23832  0.76168  0.75000  1.0000 -0.3428868135
N   N11       1.0  0.23832  0.47664  0.75000  1.0000 -0.3428868135
N   N12       1.0  0.52336  0.76168  0.75000  1.0000 -0.3428868135
O   O1        1.0  0.38820  0.80240  0.14265  1.0000 -0.6268192188
O   O2        1.0  0.19760  0.58580  0.14265  1.0000 -0.6268192188
O   O3        1.0  0.41420  0.61180  0.14265  1.0000 -0.6268192188
O   O4        1.0  0.61180  0.19760  0.14265  1.0000 -0.6268192188
O   O5        1.0  0.80240  0.41420  0.14265  1.0000 -0.6268192188
O   O6        1.0  0.58580  0.38820  0.14265  1.0000 -0.6268192188
O   O7        1.0  0.80240  0.38820  0.35735  1.0000 -0.6268192188
O   O8        1.0  0.58580  0.19760  0.35735  1.0000 -0.6268192188
O   O9        1.0  0.61180  0.41420  0.35735  1.0000 -0.6268192188
O   O10       1.0  0.19760  0.61180  0.35735  1.0000 -0.6268192188
O   O11       1.0  0.41420  0.80240  0.35735  1.0000 -0.6268192188
O   O12       1.0  0.38820  0.58580  0.35735  1.0000 -0.6268192188
O   O13       1.0  0.61180  0.19760  0.85735  1.0000 -0.6268192188
O   O14       1.0  0.80240  0.41420  0.85735  1.0000 -0.6268192188
O   O15       1.0  0.58580  0.38820  0.85735  1.0000 -0.6268192188
O   O16       1.0  0.38820  0.80240  0.85735  1.0000 -0.6268192188
O   O17       1.0  0.19760  0.58580  0.85735  1.0000 -0.6268192188
O   O18       1.0  0.41420  0.61180  0.85735  1.0000 -0.6268192188
O   O19       1.0  0.19760  0.61180  0.64265  1.0000 -0.6268192188
O   O20       1.0  0.41420  0.80240  0.64265  1.0000 -0.6268192188
O   O21       1.0  0.38820  0.58580  0.64265  1.0000 -0.6268192188
O   O22       1.0  0.80240  0.38820  0.64265  1.0000 -0.6268192188
O   O23       1.0  0.58580  0.19760  0.64265  1.0000 -0.6268192188
O   O24       1.0  0.61180  0.41420  0.64265  1.0000 -0.6268192188
O   O25       1.0  0.38670  0.94000  0.09280  1.0000 -0.5199564949
O   O26       1.0  0.06000  0.44670  0.09280  1.0000 -0.5199564949
O   O27       1.0  0.55330  0.61330  0.09280  1.0000 -0.5199564949
O   O28       1.0  0.61330  0.06000  0.09280  1.0000 -0.5199564949
O   O29       1.0  0.94000  0.55330  0.09280  1.0000 -0.5199564949
O   O30       1.0  0.44670  0.38670  0.09280  1.0000 -0.5199564949
O   O31       1.0  0.94000  0.38670  0.40720  1.0000 -0.5199564949
O   O32       1.0  0.44670  0.06000  0.40720  1.0000 -0.5199564949
O   O33       1.0  0.61330  0.55330  0.40720  1.0000 -0.5199564949
O   O34       1.0  0.06000  0.61330  0.40720  1.0000 -0.5199564949
O   O35       1.0  0.55330  0.94000  0.40720  1.0000 -0.5199564949
O   O36       1.0  0.38670  0.44670  0.40720  1.0000 -0.5199564949
O   O37       1.0  0.61330  0.06000  0.90720  1.0000 -0.5199564949
O   O38       1.0  0.94000  0.55330  0.90720  1.0000 -0.5199564949
O   O39       1.0  0.44670  0.38670  0.90720  1.0000 -0.5199564949
O   O40       1.0  0.38670  0.94000  0.90720  1.0000 -0.5199564949
O   O41       1.0  0.06000  0.44670  0.90720  1.0000 -0.5199564949
O   O42       1.0  0.55330  0.61330  0.90720  1.0000 -0.5199564949
O   O43       1.0  0.06000  0.61330  0.59280  1.0000 -0.5199564949
O   O44       1.0  0.55330  0.94000  0.59280  1.0000 -0.5199564949
O   O45       1.0  0.38670  0.44670  0.59280  1.0000 -0.5199564949
O   O46       1.0  0.94000  0.38670  0.59280  1.0000 -0.5199564949
O   O47       1.0  0.44670  0.06000  0.59280  1.0000 -0.5199564949
O   O48       1.0  0.61330  0.55330  0.59280  1.0000 -0.5199564949
O   O49       1.0  0.51350  0.86620  0.00000  1.0000 -0.655054088
O   O50       1.0  0.13380  0.64730  0.00000  1.0000 -0.655054088
O   O51       1.0  0.35270  0.48650  0.00000  1.0000 -0.6539314771
O   O52       1.0  0.48650  0.13380  0.00000  1.0000 -0.6539314771
O   O53       1.0  0.86620  0.35270  0.00000  1.0000 -0.6539314771
O   O54       1.0  0.64730  0.51350  0.00000  1.0000 -0.655054088
O   O55       1.0  0.86620  0.51350  0.50000  1.0000 -0.6539314771
O   O56       1.0  0.64730  0.13380  0.50000  1.0000 -0.6539314771
O   O57       1.0  0.48650  0.35270  0.50000  1.0000 -0.655054088
O   O58       1.0  0.13380  0.48650  0.50000  1.0000 -0.6539314771
O   O59       1.0  0.35270  0.86620  0.50000  1.0000 -0.655054088
O   O60       1.0  0.51350  0.64730  0.50000  1.0000 -0.6539314771
