# DDEC6 charges by PACMAN v1.1 (https://github.com/mtap-research/PACMAN-charge/)
data_2011[Nd][rob]3[FSR]3
_chemical_formula_sum              "Nd8 H120 C120 S12 N32 O64"
_cell_length_a       17.0072
_cell_length_b       12.1455
_cell_length_c       27.524
_cell_angle_alpha    90
_cell_angle_beta     114.738
_cell_angle_gamma    90

_symmetry_space_group_name_H-M    "P 1"
_symmetry_Int_Tables_number       1

loop_
  _symmetry_equiv_pos_as_xyz
  'x, y, z'

loop_
  _atom_site_type_symbol
  _atom_site_label
  _atom_site_symmetry_multiplicity
  _atom_site_fract_x
  _atom_site_fract_y
  _atom_site_fract_z
  _atom_site_occupancy
  _atom_site_charge
Nd  Nd1       1.0  0.56638  0.02740  0.58101  1.0000 2.0989792307
Nd  Nd2       1.0  0.43362  0.02740  0.91899  1.0000 2.0989792307
Nd  Nd3       1.0  0.43362  0.97260  0.41899  1.0000 2.0989792307
Nd  Nd4       1.0  0.56638  0.97260  0.08101  1.0000 2.0989792307
Nd  Nd5       1.0  0.04357  0.50092  0.58282  1.0000 2.1139054259
Nd  Nd6       1.0  0.95643  0.50092  0.91718  1.0000 2.1139054259
Nd  Nd7       1.0  0.95643  0.49908  0.41718  1.0000 2.1139054259
Nd  Nd8       1.0  0.04357  0.49908  0.08282  1.0000 2.1139054259
H   H1        1.0  0.43470  0.91850  0.64420  1.0000 0.2916654632
H   H2        1.0  0.56530  0.91850  0.85580  1.0000 0.2916654632
H   H3        1.0  0.56530  0.08150  0.35580  1.0000 0.2916654632
H   H4        1.0  0.43470  0.08150  0.14420  1.0000 0.2916654632
H   H5        1.0  0.41040  0.19610  0.67650  1.0000 0.2437668552
H   H6        1.0  0.58960  0.19610  0.82350  1.0000 0.2437668552
H   H7        1.0  0.58960  0.80390  0.32350  1.0000 0.2456035276
H   H8        1.0  0.41040  0.80390  0.17650  1.0000 0.2456035276
H   H9        1.0  0.52660  0.32460  0.51010  1.0000 0.2916654632
H   H10       1.0  0.47340  0.32460  0.98990  1.0000 0.2916654632
H   H11       1.0  0.47340  0.67540  0.48990  1.0000 0.2916654632
H   H12       1.0  0.52660  0.67540  0.01010  1.0000 0.2916654632
H   H13       1.0  0.73070  0.34970  0.63550  1.0000 0.2694102337
H   H14       1.0  0.26930  0.34970  0.86450  1.0000 0.2694102337
H   H15       1.0  0.26930  0.65030  0.36450  1.0000 0.2694102337
H   H16       1.0  0.73070  0.65030  0.13550  1.0000 0.2694102337
H   H17       1.0  0.96790  0.71180  0.65470  1.0000 0.2916654632
H   H18       1.0  0.03210  0.71180  0.84530  1.0000 0.2916654632
H   H19       1.0  0.03210  0.28820  0.34530  1.0000 0.2916654632
H   H20       1.0  0.96790  0.28820  0.15470  1.0000 0.2916654632
H   H21       1.0  0.88950  0.45350  0.69580  1.0000 0.2694102337
H   H22       1.0  0.11050  0.45350  0.80420  1.0000 0.2694102337
H   H23       1.0  0.11050  0.54650  0.30420  1.0000 0.2694102337
H   H24       1.0  0.88950  0.54650  0.19580  1.0000 0.2694102337
H   H25       1.0  0.27500  0.37060  0.64780  1.0000 0.2821395395
H   H26       1.0  0.72500  0.37060  0.85220  1.0000 0.2821395395
H   H27       1.0  0.72500  0.62940  0.35220  1.0000 0.2821395395
H   H28       1.0  0.27500  0.62940  0.14780  1.0000 0.2821395395
H   H29       1.0  0.18120  0.28460  0.74660  1.0000 0.2821395395
H   H30       1.0  0.81880  0.28460  0.75340  1.0000 0.2821395395
H   H31       1.0  0.81880  0.71540  0.25340  1.0000 0.2821395395
H   H32       1.0  0.18120  0.71540  0.24660  1.0000 0.2821395395
H   H33       1.0  0.83970  0.01610  0.76430  1.0000 0.1201474469
H   H34       1.0  0.16030  0.01610  0.73570  1.0000 0.1201474469
H   H35       1.0  0.16030  0.98390  0.23570  1.0000 0.1201474469
H   H36       1.0  0.83970  0.98390  0.26430  1.0000 0.1201474469
H   H37       1.0  0.92450  0.90030  0.84100  1.0000 0.1315257789
H   H38       1.0  0.07550  0.90030  0.65900  1.0000 0.1315257789
H   H39       1.0  0.07550  0.09970  0.15900  1.0000 0.1315257789
H   H40       1.0  0.92450  0.09970  0.34100  1.0000 0.1315257789
H   H41       1.0  0.64410  0.23190  0.39610  1.0000 0.1201474469
H   H42       1.0  0.35590  0.23190  0.10390  1.0000 0.1201474469
H   H43       1.0  0.35590  0.76810  0.60390  1.0000 0.1201474469
H   H44       1.0  0.64410  0.76810  0.89610  1.0000 0.1201474469
H   H45       1.0  0.77680  0.32950  0.41060  1.0000 0.1315257789
H   H46       1.0  0.22320  0.32950  0.08940  1.0000 0.1315257789
H   H47       1.0  0.22320  0.67050  0.58940  1.0000 0.1315257789
H   H48       1.0  0.77680  0.67050  0.91060  1.0000 0.1315257789
H   H49       1.0  0.67600  0.63300  0.40850  1.0000 0.1201474469
H   H50       1.0  0.32400  0.63300  0.09150  1.0000 0.1201474469
H   H51       1.0  0.32400  0.36700  0.59150  1.0000 0.1201474469
H   H52       1.0  0.67600  0.36700  0.90850  1.0000 0.1201474469
H   H53       1.0  0.57190  0.74500  0.42530  1.0000 0.1201474469
H   H54       1.0  0.42810  0.74500  0.07470  1.0000 0.1201474469
H   H55       1.0  0.42810  0.25500  0.57470  1.0000 0.1201474469
H   H56       1.0  0.57190  0.25500  0.92530  1.0000 0.1201474469
H   H57       1.0  0.30140  0.08940  0.68590  1.0000 0.1201474469
H   H58       1.0  0.69860  0.08940  0.81410  1.0000 0.1201474469
H   H59       1.0  0.69860  0.91060  0.31410  1.0000 0.1201474469
H   H60       1.0  0.30140  0.91060  0.18590  1.0000 0.1201474469
H   H61       1.0  0.38590  0.08040  0.74020  1.0000 0.1099105759
H   H62       1.0  0.61410  0.08040  0.75980  1.0000 0.1099105759
H   H63       1.0  0.61410  0.91960  0.25980  1.0000 0.1099105759
H   H64       1.0  0.38590  0.91960  0.24020  1.0000 0.1099105759
H   H65       1.0  0.40310  0.91950  0.72230  1.0000 0.1201474469
H   H66       1.0  0.59690  0.91950  0.77770  1.0000 0.1201474469
H   H67       1.0  0.59690  0.08050  0.27770  1.0000 0.1201474469
H   H68       1.0  0.40310  0.08050  0.22230  1.0000 0.1201474469
H   H69       1.0  0.31770  0.92760  0.66880  1.0000 0.1201474469
H   H70       1.0  0.68230  0.92760  0.83120  1.0000 0.1201474469
H   H71       1.0  0.68230  0.07240  0.33120  1.0000 0.1201474469
H   H72       1.0  0.31770  0.07240  0.16880  1.0000 0.1201474469
H   H73       1.0  0.63980  0.41130  0.48930  1.0000 0.1099105759
H   H74       1.0  0.36020  0.41130  0.01070  1.0000 0.1099105759
H   H75       1.0  0.36020  0.58870  0.51070  1.0000 0.1099105759
H   H76       1.0  0.63980  0.58870  0.98930  1.0000 0.1099105759
H   H77       1.0  0.58830  0.50020  0.50660  1.0000 0.0984849562
H   H78       1.0  0.41170  0.50020  0.99340  1.0000 0.0984849562
H   H79       1.0  0.41170  0.49980  0.49340  1.0000 0.0984849562
H   H80       1.0  0.58830  0.49980  0.00660  1.0000 0.0984849562
H   H81       1.0  0.70240  0.52240  0.58670  1.0000 0.0984849562
H   H82       1.0  0.29760  0.52240  0.91330  1.0000 0.0984849562
H   H83       1.0  0.29760  0.47760  0.41330  1.0000 0.0984849562
H   H84       1.0  0.70240  0.47760  0.08670  1.0000 0.0984849562
H   H85       1.0  0.75710  0.44370  0.56680  1.0000 0.1099105759
H   H86       1.0  0.24290  0.44370  0.93320  1.0000 0.1099105759
H   H87       1.0  0.24290  0.55630  0.43320  1.0000 0.1099105759
H   H88       1.0  0.75710  0.55630  0.06680  1.0000 0.1099105759
H   H89       1.0  0.79260  0.59520  0.69380  1.0000 0.0984849562
H   H90       1.0  0.20740  0.59520  0.80620  1.0000 0.0984849562
H   H91       1.0  0.20740  0.40480  0.30620  1.0000 0.0984849562
H   H92       1.0  0.79260  0.40480  0.19380  1.0000 0.0984849562
H   H93       1.0  0.87700  0.60690  0.74770  1.0000 0.1099105759
H   H94       1.0  0.12300  0.60690  0.75230  1.0000 0.1099105759
H   H95       1.0  0.12300  0.39310  0.25230  1.0000 0.1099105759
H   H96       1.0  0.87700  0.39310  0.24770  1.0000 0.1099105759
H   H97       1.0  0.90660  0.76470  0.71610  1.0000 0.1099105759
H   H98       1.0  0.09340  0.76470  0.78390  1.0000 0.1099105759
H   H99       1.0  0.09340  0.23530  0.28390  1.0000 0.1099105759
H   H100      1.0  0.90660  0.23530  0.21610  1.0000 0.1099105759
H   H101      1.0  0.82850  0.74510  0.65980  1.0000 0.1099105759
H   H102      1.0  0.17150  0.74510  0.84020  1.0000 0.1099105759
H   H103      1.0  0.17150  0.25490  0.34020  1.0000 0.1099105759
H   H104      1.0  0.82850  0.25490  0.15980  1.0000 0.1099105759
H   H105      1.0  0.39470  0.37710  0.73280  1.0000 0.083318956
H   H106      1.0  0.60530  0.37710  0.76720  1.0000 0.083318956
H   H107      1.0  0.60530  0.62290  0.26720  1.0000 0.083318956
H   H108      1.0  0.39470  0.62290  0.23280  1.0000 0.083318956
H   H109      1.0  0.33470  0.46840  0.74100  1.0000 0.1099105759
H   H110      1.0  0.66530  0.46840  0.75900  1.0000 0.1099105759
H   H111      1.0  0.66530  0.53160  0.25900  1.0000 0.1099105759
H   H112      1.0  0.33470  0.53160  0.24100  1.0000 0.1099105759
H   H113      1.0  0.32540  0.33610  0.80120  1.0000 0.0984849562
H   H114      1.0  0.67460  0.33610  0.69880  1.0000 0.0984849562
H   H115      1.0  0.67460  0.66390  0.19880  1.0000 0.0984849562
H   H116      1.0  0.32540  0.66390  0.30120  1.0000 0.0984849562
H   H117      1.0  0.33680  0.23670  0.76740  1.0000 0.0984849562
H   H118      1.0  0.66320  0.23670  0.73260  1.0000 0.0984849562
H   H119      1.0  0.66320  0.76330  0.23260  1.0000 0.0984849562
H   H120      1.0  0.33680  0.76330  0.26740  1.0000 0.0984849562
C   C1        1.0  0.74880  0.89720  0.73670  1.0000 -0.1112627632
C   C2        1.0  0.25120  0.89720  0.76330  1.0000 -0.1112627632
C   C3        1.0  0.25120  0.10280  0.26330  1.0000 -0.1112627632
C   C4        1.0  0.74880  0.10280  0.23670  1.0000 -0.1112627632
C   C5        1.0  0.82280  0.94610  0.76990  1.0000 -0.1386523063
C   C6        1.0  0.17720  0.94610  0.73010  1.0000 -0.1386523063
C   C7        1.0  0.17720  0.05390  0.23010  1.0000 -0.1386523063
C   C8        1.0  0.82280  0.05390  0.26990  1.0000 -0.1386523063
C   C9        1.0  0.87170  0.87910  0.81400  1.0000 -0.130124575
C   C10       1.0  0.12830  0.87910  0.68600  1.0000 -0.130124575
C   C11       1.0  0.12830  0.12090  0.18600  1.0000 -0.130124575
C   C12       1.0  0.87170  0.12090  0.31400  1.0000 -0.130124575
C   C13       1.0  0.83400  0.78120  0.81300  1.0000 -0.1386523063
C   C14       1.0  0.16600  0.78120  0.68700  1.0000 -0.1386523063
C   C15       1.0  0.16600  0.21880  0.18700  1.0000 -0.1386523063
C   C16       1.0  0.83400  0.21880  0.31300  1.0000 -0.1386523063
C   C17       1.0  0.68230  0.94310  0.68570  1.0000 0.5677961072
C   C18       1.0  0.31770  0.94310  0.81430  1.0000 0.5677961072
C   C19       1.0  0.31770  0.05690  0.31430  1.0000 0.5677961072
C   C20       1.0  0.68230  0.05690  0.18570  1.0000 0.5677961072
C   C21       1.0  0.87110  0.68970  0.85090  1.0000 0.550152715
C   C22       1.0  0.12890  0.68970  0.64910  1.0000 0.550152715
C   C23       1.0  0.12890  0.31030  0.14910  1.0000 0.550152715
C   C24       1.0  0.87110  0.31030  0.35090  1.0000 0.550152715
C   C25       1.0  0.69440  0.18350  0.47360  1.0000 -0.1194298855
C   C26       1.0  0.30560  0.18350  0.02640  1.0000 -0.130124575
C   C27       1.0  0.30560  0.81650  0.52640  1.0000 -0.130124575
C   C28       1.0  0.69440  0.81650  0.97360  1.0000 -0.1194298855
C   C29       1.0  0.69180  0.23470  0.42900  1.0000 -0.1505954845
C   C30       1.0  0.30820  0.23470  0.07100  1.0000 -0.1505954845
C   C31       1.0  0.30820  0.76530  0.57100  1.0000 -0.1505954845
C   C32       1.0  0.69180  0.76530  0.92900  1.0000 -0.1505954845
C   C33       1.0  0.76790  0.29210  0.43740  1.0000 -0.1112627632
C   C34       1.0  0.23210  0.29210  0.06260  1.0000 -0.1112627632
C   C35       1.0  0.23210  0.70790  0.56260  1.0000 -0.1112627632
C   C36       1.0  0.76790  0.70790  0.93740  1.0000 -0.1112627632
C   C37       1.0  0.82690  0.28680  0.48890  1.0000 -0.130124575
C   C38       1.0  0.17310  0.28680  0.01110  1.0000 -0.130124575
C   C39       1.0  0.17310  0.71320  0.51110  1.0000 -0.130124575
C   C40       1.0  0.82690  0.71320  0.98890  1.0000 -0.130124575
C   C41       1.0  0.62610  0.11590  0.48110  1.0000 0.6302353402
C   C42       1.0  0.37390  0.11590  0.01890  1.0000 0.6302353402
C   C43       1.0  0.37390  0.88410  0.51890  1.0000 0.6302353402
C   C44       1.0  0.62610  0.88410  0.98110  1.0000 0.6302353402
C   C45       1.0  0.91220  0.33910  0.51500  1.0000 0.6094418923
C   C46       1.0  0.08780  0.33910  0.98500  1.0000 0.6094418923
C   C47       1.0  0.08780  0.66090  0.48500  1.0000 0.6094418923
C   C48       1.0  0.91220  0.66090  0.01500  1.0000 0.6094418923
C   C49       1.0  0.76500  0.65880  0.48440  1.0000 -0.1194298855
C   C50       1.0  0.23500  0.65880  0.01560  1.0000 -0.1194298855
C   C51       1.0  0.23500  0.34120  0.51560  1.0000 -0.1194298855
C   C52       1.0  0.76500  0.34120  0.98440  1.0000 -0.1194298855
C   C53       1.0  0.68770  0.66680  0.44110  1.0000 -0.1665710176
C   C54       1.0  0.31230  0.66680  0.05890  1.0000 -0.1665710176
C   C55       1.0  0.31230  0.33320  0.55890  1.0000 -0.1665710176
C   C56       1.0  0.68770  0.33320  0.94110  1.0000 -0.1665710176
C   C57       1.0  0.62780  0.73100  0.45070  1.0000 -0.1505954845
C   C58       1.0  0.37220  0.73100  0.04930  1.0000 -0.1505954845
C   C59       1.0  0.37220  0.26900  0.54930  1.0000 -0.1505954845
C   C60       1.0  0.62780  0.26900  0.95070  1.0000 -0.1505954845
C   C61       1.0  0.66030  0.77090  0.50180  1.0000 -0.1194298855
C   C62       1.0  0.33970  0.77090  0.99820  1.0000 -0.1194298855
C   C63       1.0  0.33970  0.22910  0.49820  1.0000 -0.1194298855
C   C64       1.0  0.66030  0.22910  0.00180  1.0000 -0.1194298855
C   C65       1.0  0.84530  0.60090  0.48860  1.0000 0.6401564439
C   C66       1.0  0.15470  0.60090  0.01140  1.0000 0.6401564439
C   C67       1.0  0.15470  0.39910  0.51140  1.0000 0.6401564439
C   C68       1.0  0.84530  0.39910  0.98860  1.0000 0.6401564439
C   C69       1.0  0.61860  0.84670  0.52640  1.0000 0.6094418923
C   C70       1.0  0.38140  0.84670  0.97360  1.0000 0.6094418923
C   C71       1.0  0.38140  0.15330  0.47360  1.0000 0.6094418923
C   C72       1.0  0.61860  0.15330  0.02640  1.0000 0.6094418923
C   C73       1.0  0.36200  0.06800  0.70180  1.0000 -0.130124575
C   C74       1.0  0.63800  0.06800  0.79820  1.0000 -0.130124575
C   C75       1.0  0.63800  0.93200  0.29820  1.0000 -0.130124575
C   C76       1.0  0.36200  0.93200  0.20180  1.0000 -0.130124575
C   C77       1.0  0.37290  0.96230  0.69000  1.0000 -0.1194298855
C   C78       1.0  0.62710  0.96230  0.81000  1.0000 -0.1194298855
C   C79       1.0  0.62710  0.03770  0.31000  1.0000 -0.1194298855
C   C80       1.0  0.37290  0.03770  0.19000  1.0000 -0.1194298855
C   C81       1.0  0.45240  0.07040  0.65860  1.0000 0.5055672487
C   C82       1.0  0.54760  0.07040  0.84140  1.0000 0.5055672487
C   C83       1.0  0.54760  0.92960  0.34140  1.0000 0.5055672487
C   C84       1.0  0.45240  0.92960  0.15860  1.0000 0.5055672487
C   C85       1.0  0.62320  0.43390  0.51750  1.0000 -0.0836692846
C   C86       1.0  0.37680  0.43390  0.98250  1.0000 -0.0836692846
C   C87       1.0  0.37680  0.56610  0.48250  1.0000 -0.0836692846
C   C88       1.0  0.62320  0.56610  0.01750  1.0000 -0.0836692846
C   C89       1.0  0.70370  0.45100  0.57130  1.0000 -0.0924063731
C   C90       1.0  0.29630  0.45100  0.92870  1.0000 -0.0924063731
C   C91       1.0  0.29630  0.54900  0.42870  1.0000 -0.0924063731
C   C92       1.0  0.70370  0.54900  0.07130  1.0000 -0.0924063731
C   C93       1.0  0.62320  0.30390  0.57920  1.0000 0.6007496824
C   C94       1.0  0.37680  0.30390  0.92080  1.0000 0.6007496824
C   C95       1.0  0.37680  0.69610  0.42080  1.0000 0.6007496824
C   C96       1.0  0.62320  0.69610  0.07920  1.0000 0.6007496824
C   C97       1.0  0.85480  0.60560  0.70900  1.0000 -0.0924063731
C   C98       1.0  0.14520  0.60560  0.79100  1.0000 -0.0924063731
C   C99       1.0  0.14520  0.39440  0.29100  1.0000 -0.0924063731
C   C100      1.0  0.85480  0.39440  0.20900  1.0000 -0.0924063731
C   C101      1.0  0.87900  0.71160  0.68770  1.0000 -0.0924063731
C   C102      1.0  0.12100  0.71160  0.81230  1.0000 -0.0924063731
C   C103      1.0  0.12100  0.28840  0.31230  1.0000 -0.0924063731
C   C104      1.0  0.87900  0.28840  0.18770  1.0000 -0.0924063731
C   C105      1.0  0.94410  0.56190  0.66830  1.0000 0.6094418923
C   C106      1.0  0.05590  0.56190  0.83170  1.0000 0.6094418923
C   C107      1.0  0.05590  0.43810  0.33170  1.0000 0.6094418923
C   C108      1.0  0.94410  0.43810  0.16830  1.0000 0.6094418923
C   C109      1.0  0.33700  0.39300  0.73070  1.0000 -0.0682079589
C   C110      1.0  0.66300  0.39300  0.76930  1.0000 -0.0682079589
C   C111      1.0  0.66300  0.60700  0.26930  1.0000 -0.0682079589
C   C112      1.0  0.33700  0.60700  0.23070  1.0000 -0.0682079589
C   C113      1.0  0.31050  0.30800  0.76540  1.0000 -0.0682079589
C   C114      1.0  0.68950  0.30800  0.73460  1.0000 -0.0682079589
C   C115      1.0  0.68950  0.69200  0.23460  1.0000 -0.0682079589
C   C116      1.0  0.31050  0.69200  0.26540  1.0000 -0.0682079589
C   C117      1.0  0.19470  0.33800  0.68150  1.0000 0.6302353402
C   C118      1.0  0.80530  0.33800  0.81850  1.0000 0.6302353402
C   C119      1.0  0.80530  0.66200  0.31850  1.0000 0.6302353402
C   C120      1.0  0.19470  0.66200  0.18150  1.0000 0.6302353402
S   S1        1.0  0.73639  0.76983  0.75852  1.0000 0.1201474469
S   S2        1.0  0.26361  0.76983  0.74148  1.0000 0.1201474469
S   S3        1.0  0.26361  0.23017  0.24148  1.0000 0.1201474469
S   S4        1.0  0.73639  0.23017  0.25852  1.0000 0.1201474469
S   S5        1.0  0.78916  0.20991  0.52757  1.0000 0.1874748329
S   S6        1.0  0.21084  0.20991  0.97243  1.0000 0.1849732359
S   S7        1.0  0.21084  0.79009  0.47243  1.0000 0.1874748329
S   S8        1.0  0.78916  0.79009  0.02757  1.0000 0.1874748329
S   S9        1.0  0.76324  0.72473  0.53826  1.0000 0.1661355456
S   S10       1.0  0.23676  0.72473  0.96174  1.0000 0.1642145475
S   S11       1.0  0.23676  0.27527  0.46174  1.0000 0.1642145475
S   S12       1.0  0.76324  0.27527  0.03826  1.0000 0.1661355456
N   N1        1.0  0.42390  0.97300  0.66010  1.0000 -0.2520304809
N   N2        1.0  0.57610  0.97300  0.83990  1.0000 -0.2520304809
N   N3        1.0  0.57610  0.02700  0.33990  1.0000 -0.2520304809
N   N4        1.0  0.42390  0.02700  0.16010  1.0000 -0.2520304809
N   N5        1.0  0.41000  0.12530  0.67770  1.0000 -0.2593144665
N   N6        1.0  0.59000  0.12530  0.82230  1.0000 -0.2593144665
N   N7        1.0  0.59000  0.87470  0.32230  1.0000 -0.2593144665
N   N8        1.0  0.41000  0.87470  0.17770  1.0000 -0.2593144665
N   N9        1.0  0.57770  0.34650  0.53110  1.0000 -0.3600988167
N   N10       1.0  0.42230  0.34650  0.96890  1.0000 -0.3600988167
N   N11       1.0  0.42230  0.65350  0.46890  1.0000 -0.3600988167
N   N12       1.0  0.57770  0.65350  0.03110  1.0000 -0.3600988167
N   N13       1.0  0.69360  0.36270  0.60330  1.0000 -0.3536514605
N   N14       1.0  0.30640  0.36270  0.89670  1.0000 -0.3536514605
N   N15       1.0  0.30640  0.63730  0.39670  1.0000 -0.3536514605
N   N16       1.0  0.69360  0.63730  0.10330  1.0000 -0.3536514605
N   N17       1.0  0.93910  0.67030  0.66667  1.0000 -0.3654102872
N   N18       1.0  0.06090  0.67030  0.83333  1.0000 -0.3654102872
N   N19       1.0  0.06090  0.32970  0.33333  1.0000 -0.3654102872
N   N20       1.0  0.93910  0.32970  0.16667  1.0000 -0.3654102872
N   N21       1.0  0.89560  0.52270  0.69170  1.0000 -0.3600988167
N   N22       1.0  0.10440  0.52270  0.80830  1.0000 -0.3600988167
N   N23       1.0  0.10440  0.47730  0.30830  1.0000 -0.3600988167
N   N24       1.0  0.89560  0.47730  0.19170  1.0000 -0.3600988167
N   N25       1.0  0.26900  0.36700  0.67730  1.0000 -0.4017108122
N   N26       1.0  0.73100  0.36700  0.82270  1.0000 -0.4017108122
N   N27       1.0  0.73100  0.63300  0.32270  1.0000 -0.4017108122
N   N28       1.0  0.26900  0.63300  0.17730  1.0000 -0.4017108122
N   N29       1.0  0.21770  0.30500  0.73420  1.0000 -0.4083516935
N   N30       1.0  0.78230  0.30500  0.76580  1.0000 -0.4083516935
N   N31       1.0  0.78230  0.69500  0.26580  1.0000 -0.4083516935
N   N32       1.0  0.21770  0.69500  0.23420  1.0000 -0.4083516935
O   O1        1.0  0.61090  0.89520  0.66280  1.0000 -0.6231721083
O   O2        1.0  0.38910  0.89520  0.83720  1.0000 -0.6231721083
O   O3        1.0  0.38910  0.10480  0.33720  1.0000 -0.6231721083
O   O4        1.0  0.61090  0.10480  0.16280  1.0000 -0.6231721083
O   O5        1.0  0.70040  0.02840  0.66650  1.0000 -0.6256752054
O   O6        1.0  0.29960  0.02840  0.83350  1.0000 -0.6256752054
O   O7        1.0  0.29960  0.97160  0.33350  1.0000 -0.6256752054
O   O8        1.0  0.70040  0.97160  0.16650  1.0000 -0.6256752054
O   O9        1.0  0.94650  0.70050  0.88730  1.0000 -0.6057582686
O   O10       1.0  0.05350  0.70050  0.61270  1.0000 -0.6057582686
O   O11       1.0  0.05350  0.29950  0.11270  1.0000 -0.6057582686
O   O12       1.0  0.94650  0.29950  0.38730  1.0000 -0.6057582686
O   O13       1.0  0.82830  0.60110  0.84570  1.0000 -0.6516848544
O   O14       1.0  0.17170  0.60110  0.65430  1.0000 -0.6516848544
O   O15       1.0  0.17170  0.39890  0.15430  1.0000 -0.6516848544
O   O16       1.0  0.82830  0.39890  0.34570  1.0000 -0.6516848544
O   O17       1.0  0.64190  0.08880  0.52792  1.0000 -0.6390640477
O   O18       1.0  0.35810  0.08880  0.97208  1.0000 -0.6390640477
O   O19       1.0  0.35810  0.91120  0.47208  1.0000 -0.6390640477
O   O20       1.0  0.64190  0.91120  0.02792  1.0000 -0.6390640477
O   O21       1.0  0.55910  0.09300  0.43990  1.0000 -0.6671367178
O   O22       1.0  0.44090  0.09300  0.06010  1.0000 -0.6671367178
O   O23       1.0  0.44090  0.90700  0.56010  1.0000 -0.6671367178
O   O24       1.0  0.55910  0.90700  0.93990  1.0000 -0.6671367178
O   O25       1.0  0.94560  0.38890  0.48800  1.0000 -0.71177936
O   O26       1.0  0.05440  0.38890  0.01200  1.0000 -0.71177936
O   O27       1.0  0.05440  0.61110  0.51200  1.0000 -0.71177936
O   O28       1.0  0.94560  0.61110  0.98800  1.0000 -0.71177936
O   O29       1.0  0.95090  0.33490  0.56530  1.0000 -0.5997944216
O   O30       1.0  0.04910  0.33490  0.93470  1.0000 -0.5997944216
O   O31       1.0  0.04910  0.66510  0.43470  1.0000 -0.5997944216
O   O32       1.0  0.95090  0.66510  0.06530  1.0000 -0.5997944216
O   O33       1.0  0.90000  0.57970  0.53490  1.0000 -0.6516848544
O   O34       1.0  0.10000  0.57970  0.96510  1.0000 -0.6516848544
O   O35       1.0  0.10000  0.42030  0.46510  1.0000 -0.6516848544
O   O36       1.0  0.90000  0.42030  0.03490  1.0000 -0.6516848544
O   O37       1.0  0.85130  0.57990  0.44550  1.0000 -0.6615952591
O   O38       1.0  0.14870  0.57990  0.05450  1.0000 -0.6615952591
O   O39       1.0  0.14870  0.42010  0.55450  1.0000 -0.6615952591
O   O40       1.0  0.85130  0.42010  0.94550  1.0000 -0.6615952591
O   O41       1.0  0.65810  0.86960  0.57480  1.0000 -0.5910331051
O   O42       1.0  0.34190  0.86960  0.92520  1.0000 -0.5910331051
O   O43       1.0  0.34190  0.13040  0.42520  1.0000 -0.5910331051
O   O44       1.0  0.65810  0.13040  0.07480  1.0000 -0.5910331051
O   O45       1.0  0.54610  0.88780  0.49755  1.0000 -0.725374345
O   O46       1.0  0.45390  0.88780  0.00245  1.0000 -0.725374345
O   O47       1.0  0.45390  0.11220  0.50245  1.0000 -0.725374345
O   O48       1.0  0.54610  0.11220  0.99755  1.0000 -0.725374345
O   O49       1.0  0.49810  0.09760  0.63770  1.0000 -0.564595137
O   O50       1.0  0.50190  0.09760  0.86230  1.0000 -0.564595137
O   O51       1.0  0.50190  0.90240  0.36230  1.0000 -0.564595137
O   O52       1.0  0.49810  0.90240  0.13770  1.0000 -0.564595137
O   O53       1.0  0.60090  0.22360  0.59880  1.0000 -0.6516848544
O   O54       1.0  0.39910  0.22360  0.90120  1.0000 -0.6516848544
O   O55       1.0  0.39910  0.77640  0.40120  1.0000 -0.6516848544
O   O56       1.0  0.60090  0.77640  0.09880  1.0000 -0.6516848544
O   O57       1.0  0.98850  0.50300  0.65190  1.0000 -0.6615952591
O   O58       1.0  0.01150  0.50300  0.84810  1.0000 -0.6615952591
O   O59       1.0  0.01150  0.49700  0.34810  1.0000 -0.6615952591
O   O60       1.0  0.98850  0.49700  0.15190  1.0000 -0.6615952591
O   O61       1.0  0.12150  0.35760  0.64970  1.0000 -0.5796260277
O   O62       1.0  0.87850  0.35760  0.85030  1.0000 -0.5796260277
O   O63       1.0  0.87850  0.64240  0.35030  1.0000 -0.5796260277
O   O64       1.0  0.12150  0.64240  0.14970  1.0000 -0.5796260277
