# DDEC6 charges by PACMAN v1.1 (https://github.com/mtap-research/PACMAN-charge/)
data_2011[Ce][nan]3[FSR]1
_chemical_formula_sum              "Ce8 H40 C56 N16 O60"
_cell_length_a       11.036
_cell_length_b       12.056
_cell_length_c       19.561
_cell_angle_alpha    90
_cell_angle_beta     90
_cell_angle_gamma    90

_symmetry_space_group_name_H-M    "P 1"
_symmetry_Int_Tables_number       1

loop_
  _symmetry_equiv_pos_as_xyz
  'x, y, z'

loop_
  _atom_site_type_symbol
  _atom_site_label
  _atom_site_symmetry_multiplicity
  _atom_site_fract_x
  _atom_site_fract_y
  _atom_site_fract_z
  _atom_site_occupancy
  _atom_site_charge
Ce  Ce1       1.0  0.63569  0.15983  0.12121  1.0000 1.9564797918
Ce  Ce2       1.0  0.36431  0.84017  0.62121  1.0000 1.9564797918
Ce  Ce3       1.0  0.13569  0.34017  0.62121  1.0000 1.9564797918
Ce  Ce4       1.0  0.86431  0.65983  0.12121  1.0000 1.9564797918
Ce  Ce5       1.0  0.11731  0.97929  0.33556  1.0000 1.9884802739
Ce  Ce6       1.0  0.88269  0.02071  0.83556  1.0000 1.9884802739
Ce  Ce7       1.0  0.61731  0.52071  0.83556  1.0000 1.9884802739
Ce  Ce8       1.0  0.38269  0.47929  0.33556  1.0000 1.9884802739
H   H1        1.0  0.84660  0.01010  0.23010  1.0000 0.0920902232
H   H2        1.0  0.15340  0.98990  0.73010  1.0000 0.0920902232
H   H3        1.0  0.34660  0.48990  0.73010  1.0000 0.0920902232
H   H4        1.0  0.65340  0.51010  0.23010  1.0000 0.0920902232
H   H5        1.0  0.73140  0.26420  0.38840  1.0000 0.1682005564
H   H6        1.0  0.26860  0.73580  0.88840  1.0000 0.1682005564
H   H7        1.0  0.23140  0.23580  0.88840  1.0000 0.1682005564
H   H8        1.0  0.76860  0.76420  0.38840  1.0000 0.1682005564
H   H9        1.0  0.36990  0.10070  0.23230  1.0000 0.1079127121
H   H10       1.0  0.63010  0.89930  0.73230  1.0000 0.1079127121
H   H11       1.0  0.86990  0.39930  0.73230  1.0000 0.1079127121
H   H12       1.0  0.13010  0.60070  0.23230  1.0000 0.1079127121
H   H13       1.0  0.50690  0.74680  0.22200  1.0000 0.1616077612
H   H14       1.0  0.49310  0.25320  0.72200  1.0000 0.1616077612
H   H15       1.0  0.00690  0.75320  0.72200  1.0000 0.1616077612
H   H16       1.0  0.99310  0.24680  0.22200  1.0000 0.1616077612
H   H17       1.0  0.37200  0.12000  0.09760  1.0000 0.3639662306
H   H18       1.0  0.62800  0.88000  0.59760  1.0000 0.3639662306
H   H19       1.0  0.87200  0.38000  0.59760  1.0000 0.3639662306
H   H20       1.0  0.12800  0.62000  0.09760  1.0000 0.3639662306
H   H21       1.0  0.38970  0.21240  0.05480  1.0000 0.3933179269
H   H22       1.0  0.61030  0.78760  0.55480  1.0000 0.3933179269
H   H23       1.0  0.88970  0.28760  0.55480  1.0000 0.3933179269
H   H24       1.0  0.11030  0.71240  0.05480  1.0000 0.3933179269
H   H25       1.0  0.60890  0.36200  0.01690  1.0000 0.3715324069
H   H26       1.0  0.39110  0.63800  0.51690  1.0000 0.3715324069
H   H27       1.0  0.10890  0.13800  0.51690  1.0000 0.3715324069
H   H28       1.0  0.89110  0.86200  0.01690  1.0000 0.3715324069
H   H29       1.0  0.67080  0.38780  0.07410  1.0000 0.3477542887
H   H30       1.0  0.32920  0.61220  0.57410  1.0000 0.3477542887
H   H31       1.0  0.17080  0.11220  0.57410  1.0000 0.3477542887
H   H32       1.0  0.82920  0.88780  0.07410  1.0000 0.3477542887
H   H33       1.0  0.00260  0.92490  0.20270  1.0000 0.3933179269
H   H34       1.0  0.99740  0.07510  0.70270  1.0000 0.3933179269
H   H35       1.0  0.50260  0.57510  0.70270  1.0000 0.3933179269
H   H36       1.0  0.49740  0.42490  0.20270  1.0000 0.3933179269
H   H37       1.0  0.11380  0.95010  0.16760  1.0000 0.4138167913
H   H38       1.0  0.88620  0.04990  0.66760  1.0000 0.4138167913
H   H39       1.0  0.61380  0.54990  0.66760  1.0000 0.4138167913
H   H40       1.0  0.38620  0.45010  0.16760  1.0000 0.4138167913
C   C1        1.0  0.82590  0.06480  0.26150  1.0000 0.2259313057
C   C2        1.0  0.17410  0.93520  0.76150  1.0000 0.2259313057
C   C3        1.0  0.32590  0.43520  0.76150  1.0000 0.2259313057
C   C4        1.0  0.67410  0.56480  0.26150  1.0000 0.2259313057
C   C5        1.0  0.86270  0.15250  0.36320  1.0000 0.1616077612
C   C6        1.0  0.13730  0.84750  0.86320  1.0000 0.1616077612
C   C7        1.0  0.36270  0.34750  0.86320  1.0000 0.1616077612
C   C8        1.0  0.63730  0.65250  0.36320  1.0000 0.1616077612
C   C9        1.0  0.75730  0.21450  0.35510  1.0000 -0.1767479998
C   C10       1.0  0.24270  0.78550  0.85510  1.0000 -0.1767479998
C   C11       1.0  0.25730  0.28550  0.85510  1.0000 -0.1767479998
C   C12       1.0  0.74270  0.71450  0.35510  1.0000 -0.1767479998
C   C13       1.0  0.69290  0.19900  0.29540  1.0000 0.1616077612
C   C14       1.0  0.30710  0.80100  0.79540  1.0000 0.1616077612
C   C15       1.0  0.19290  0.30100  0.79540  1.0000 0.1616077612
C   C16       1.0  0.80710  0.69900  0.29540  1.0000 0.1616077612
C   C17       1.0  0.58550  0.27410  0.27760  1.0000 0.5567080418
C   C18       1.0  0.41450  0.72590  0.77760  1.0000 0.5567080418
C   C19       1.0  0.08550  0.22590  0.77760  1.0000 0.5567080418
C   C20       1.0  0.91450  0.77410  0.27760  1.0000 0.5567080418
C   C21       1.0  0.94560  0.17280  0.42400  1.0000 0.5396094958
C   C22       1.0  0.05440  0.82720  0.92400  1.0000 0.5396094958
C   C23       1.0  0.44560  0.32720  0.92400  1.0000 0.5396094958
C   C24       1.0  0.55440  0.67280  0.42400  1.0000 0.5396094958
C   C25       1.0  0.39830  0.02810  0.23100  1.0000 0.241618518
C   C26       1.0  0.60170  0.97190  0.73100  1.0000 0.241618518
C   C27       1.0  0.89830  0.47190  0.73100  1.0000 0.241618518
C   C28       1.0  0.10170  0.52810  0.23100  1.0000 0.241618518
C   C29       1.0  0.37470  0.84720  0.26020  1.0000 0.1515918619
C   C30       1.0  0.62530  0.15280  0.76020  1.0000 0.1515918619
C   C31       1.0  0.87470  0.65280  0.76020  1.0000 0.1515918619
C   C32       1.0  0.12530  0.34720  0.26020  1.0000 0.1515918619
C   C33       1.0  0.47990  0.81970  0.22520  1.0000 -0.1767479998
C   C34       1.0  0.52010  0.18030  0.72520  1.0000 -0.1767479998
C   C35       1.0  0.97990  0.68030  0.72520  1.0000 -0.1767479998
C   C36       1.0  0.02010  0.31970  0.22520  1.0000 -0.1767479998
C   C37       1.0  0.54180  0.90550  0.19580  1.0000 0.1515918619
C   C38       1.0  0.45820  0.09450  0.69580  1.0000 0.1515918619
C   C39       1.0  0.04180  0.59450  0.69580  1.0000 0.1515918619
C   C40       1.0  0.95820  0.40550  0.19580  1.0000 0.1515918619
C   C41       1.0  0.66000  0.88640  0.15750  1.0000 0.5728315453
C   C42       1.0  0.34000  0.11360  0.65750  1.0000 0.5728315453
C   C43       1.0  0.16000  0.61360  0.65750  1.0000 0.5728315453
C   C44       1.0  0.84000  0.38640  0.15750  1.0000 0.5728315453
C   C45       1.0  0.29700  0.75730  0.29450  1.0000 0.5784408639
C   C46       1.0  0.70300  0.24270  0.79450  1.0000 0.5784408639
C   C47       1.0  0.79700  0.74270  0.79450  1.0000 0.5784408639
C   C48       1.0  0.20300  0.25730  0.29450  1.0000 0.5784408639
C   C49       1.0  0.17850  0.88410  0.48980  1.0000 0.4901208135
C   C50       1.0  0.82150  0.11590  0.98980  1.0000 0.4901208135
C   C51       1.0  0.67850  0.61590  0.98980  1.0000 0.4901208135
C   C52       1.0  0.32150  0.38410  0.48980  1.0000 0.4901208135
C   C53       1.0  0.29980  0.93660  0.46720  1.0000 0.4901208135
C   C54       1.0  0.70020  0.06340  0.96720  1.0000 0.4901208135
C   C55       1.0  0.79980  0.56340  0.96720  1.0000 0.4901208135
C   C56       1.0  0.20020  0.43660  0.46720  1.0000 0.4901208135
N   N1        1.0  0.72580  0.12480  0.24900  1.0000 -0.3513486942
N   N2        1.0  0.27420  0.87520  0.74900  1.0000 -0.3513486942
N   N3        1.0  0.22580  0.37520  0.74900  1.0000 -0.3513486942
N   N4        1.0  0.77420  0.62480  0.24900  1.0000 -0.3513486942
N   N5        1.0  0.89830  0.07800  0.31630  1.0000 -0.3697712233
N   N6        1.0  0.10170  0.92200  0.81630  1.0000 -0.3697712233
N   N7        1.0  0.39830  0.42200  0.81630  1.0000 -0.3697712233
N   N8        1.0  0.60170  0.57800  0.31630  1.0000 -0.3697712233
N   N9        1.0  0.50050  0.00950  0.19590  1.0000 -0.3832134639
N   N10       1.0  0.49950  0.99050  0.69590  1.0000 -0.3832134639
N   N11       1.0  0.00050  0.49050  0.69590  1.0000 -0.3832134639
N   N12       1.0  0.99950  0.50950  0.19590  1.0000 -0.3832134639
N   N13       1.0  0.33400  0.95270  0.26400  1.0000 -0.3447287639
N   N14       1.0  0.66600  0.04730  0.76400  1.0000 -0.3513486942
N   N15       1.0  0.83400  0.54730  0.76400  1.0000 -0.3447287639
N   N16       1.0  0.16600  0.45270  0.26400  1.0000 -0.3447287639
O   O1        1.0  0.54430  0.26380  0.21840  1.0000 -0.6206411009
O   O2        1.0  0.45570  0.73620  0.71840  1.0000 -0.6206411009
O   O3        1.0  0.04430  0.23620  0.71840  1.0000 -0.6206411009
O   O4        1.0  0.95570  0.76380  0.21840  1.0000 -0.6206411009
O   O5        1.0  0.55060  0.34020  0.32260  1.0000 -0.577528135
O   O6        1.0  0.44940  0.65980  0.82260  1.0000 -0.577528135
O   O7        1.0  0.05060  0.15980  0.82260  1.0000 -0.577528135
O   O8        1.0  0.94940  0.84020  0.32260  1.0000 -0.577528135
O   O9        1.0  0.04050  0.11120  0.42640  1.0000 -0.6206411009
O   O10       1.0  0.95950  0.88880  0.92640  1.0000 -0.6206411009
O   O11       1.0  0.54050  0.38880  0.92640  1.0000 -0.6206411009
O   O12       1.0  0.45950  0.61120  0.42640  1.0000 -0.6206411009
O   O13       1.0  0.91400  0.24170  0.46470  1.0000 -0.5036720668
O   O14       1.0  0.08600  0.75830  0.96470  1.0000 -0.5036720668
O   O15       1.0  0.41400  0.25830  0.96470  1.0000 -0.5036720668
O   O16       1.0  0.58600  0.74170  0.46470  1.0000 -0.5036720668
O   O17       1.0  0.70880  0.96630  0.12670  1.0000 -0.6142122706
O   O18       1.0  0.29120  0.03370  0.62670  1.0000 -0.6142122706
O   O19       1.0  0.20880  0.53370  0.62670  1.0000 -0.6142122706
O   O20       1.0  0.79120  0.46630  0.12670  1.0000 -0.6142122706
O   O21       1.0  0.70410  0.78970  0.16380  1.0000 -0.5993165334
O   O22       1.0  0.29590  0.21030  0.66380  1.0000 -0.5993165334
O   O23       1.0  0.20410  0.71030  0.66380  1.0000 -0.5993165334
O   O24       1.0  0.79590  0.28970  0.16380  1.0000 -0.5993165334
O   O25       1.0  0.20090  0.78820  0.32290  1.0000 -0.577528135
O   O26       1.0  0.79910  0.21180  0.82290  1.0000 -0.577528135
O   O27       1.0  0.70090  0.71180  0.82290  1.0000 -0.577528135
O   O28       1.0  0.29910  0.28820  0.32290  1.0000 -0.577528135
O   O29       1.0  0.33410  0.66090  0.29110  1.0000 -0.6142122706
O   O30       1.0  0.66590  0.33910  0.79110  1.0000 -0.6142122706
O   O31       1.0  0.83410  0.83910  0.79110  1.0000 -0.6142122706
O   O32       1.0  0.16590  0.16090  0.29110  1.0000 -0.6142122706
O   O33       1.0  0.17430  0.84850  0.55090  1.0000 -0.577528135
O   O34       1.0  0.82570  0.15150  0.05090  1.0000 -0.577528135
O   O35       1.0  0.67430  0.65150  0.05090  1.0000 -0.577528135
O   O36       1.0  0.32570  0.34850  0.55090  1.0000 -0.577528135
O   O37       1.0  0.09260  0.88230  0.44780  1.0000 -0.5404893716
O   O38       1.0  0.90740  0.11770  0.94780  1.0000 -0.5404893716
O   O39       1.0  0.59260  0.61770  0.94780  1.0000 -0.5404893716
O   O40       1.0  0.40740  0.38230  0.44780  1.0000 -0.5404893716
O   O41       1.0  0.38920  0.92220  0.50470  1.0000 -0.5554218849
O   O42       1.0  0.61080  0.07780  0.00470  1.0000 -0.5554218849
O   O43       1.0  0.88920  0.57780  0.00470  1.0000 -0.5554218849
O   O44       1.0  0.11080  0.42220  0.50470  1.0000 -0.5548075398
O   O45       1.0  0.29510  0.99070  0.41220  1.0000 -0.5739662607
O   O46       1.0  0.70490  0.00930  0.91220  1.0000 -0.5739662607
O   O47       1.0  0.79510  0.50930  0.91220  1.0000 -0.5739662607
O   O48       1.0  0.20490  0.49070  0.41220  1.0000 -0.5739662607
O   O49       1.0  0.41610  0.17850  0.09290  1.0000 -0.7586386313
O   O50       1.0  0.58390  0.82150  0.59290  1.0000 -0.7586386313
O   O51       1.0  0.91610  0.32150  0.59290  1.0000 -0.7586386313
O   O52       1.0  0.08390  0.67850  0.09290  1.0000 -0.7586386313
O   O53       1.0  0.61540  0.34220  0.05990  1.0000 -0.7586386313
O   O54       1.0  0.38460  0.65780  0.55990  1.0000 -0.7586386313
O   O55       1.0  0.11540  0.15780  0.55990  1.0000 -0.7586386313
O   O56       1.0  0.88460  0.84220  0.05990  1.0000 -0.7586386313
O   O57       1.0  0.07890  0.95920  0.20950  1.0000 -0.7837634643
O   O58       1.0  0.92110  0.04080  0.70950  1.0000 -0.7837634643
O   O59       1.0  0.57890  0.54080  0.70950  1.0000 -0.7837634643
O   O60       1.0  0.42110  0.45920  0.20950  1.0000 -0.7837634643
