# DDEC6 charges by PACMAN v1.1 (https://github.com/mtap-research/PACMAN-charge/)
data_2011[Co][nan]3[FSR]5
_chemical_formula_sum              "Co8 H72 C120 N48"
_cell_length_a       18.1182
_cell_length_b       18.1182
_cell_length_c       18.1182
_cell_angle_alpha    99.7815
_cell_angle_beta     99.7815
_cell_angle_gamma    131.316

_symmetry_space_group_name_H-M    "P 1"
_symmetry_Int_Tables_number       1

loop_
  _symmetry_equiv_pos_as_xyz
  'x, y, z'

loop_
  _atom_site_type_symbol
  _atom_site_label
  _atom_site_symmetry_multiplicity
  _atom_site_fract_x
  _atom_site_fract_y
  _atom_site_fract_z
  _atom_site_occupancy
  _atom_site_charge
Co  Co1       1.0  0.91840  0.59043  0.08077  1.0000 0.6558692929
Co  Co2       1.0  0.50966  0.83763  0.91923  1.0000 0.6558692929
Co  Co3       1.0  0.08763  0.66840  0.82797  1.0000 0.6558692929
Co  Co4       1.0  0.84043  0.25966  0.17203  1.0000 0.6558692929
Co  Co5       1.0  0.33160  0.15957  0.41923  1.0000 0.6558692929
Co  Co6       1.0  0.74034  0.91237  0.58077  1.0000 0.6558692929
Co  Co7       1.0  0.16237  0.08160  0.67203  1.0000 0.6558692929
Co  Co8       1.0  0.40957  0.49034  0.32797  1.0000 0.6558692929
H   H1        1.0  0.16330  0.90940  0.89750  1.0000 0.1217707355
H   H2        1.0  0.01190  0.26580  0.10250  1.0000 0.1217707355
H   H3        1.0  0.51580  0.91330  0.75390  1.0000 0.1217707355
H   H4        1.0  0.15940  0.76190  0.24610  1.0000 0.1217707355
H   H5        1.0  0.08670  0.84060  0.60250  1.0000 0.1217707355
H   H6        1.0  0.23810  0.48420  0.39750  1.0000 0.1217707355
H   H7        1.0  0.73420  0.83670  0.74610  1.0000 0.1217707355
H   H8        1.0  0.09060  0.98810  0.25390  1.0000 0.1217707355
H   H9        1.0  0.47640  0.17110  0.00270  1.0000 0.1217707355
H   H10       1.0  0.16840  0.47370  0.99730  1.0000 0.1217707355
H   H11       1.0  0.72370  0.22640  0.80530  1.0000 0.1217707355
H   H12       1.0  0.42110  0.91840  0.19470  1.0000 0.1217707355
H   H13       1.0  0.77360  0.57890  0.49730  1.0000 0.1217707355
H   H14       1.0  0.08160  0.27630  0.50270  1.0000 0.1217707355
H   H15       1.0  0.52630  0.52360  0.69470  1.0000 0.1217707355
H   H16       1.0  0.82890  0.83160  0.30530  1.0000 0.1217707355
H   H17       1.0  0.33930  0.94390  0.09360  1.0000 0.1217707355
H   H18       1.0  0.85030  0.24570  0.90640  1.0000 0.1217707355
H   H19       1.0  0.49570  0.08930  0.89540  1.0000 0.1217707355
H   H20       1.0  0.19390  0.60030  0.10460  1.0000 0.1217707355
H   H21       1.0  0.91070  0.80610  0.40640  1.0000 0.1217707355
H   H22       1.0  0.39970  0.50430  0.59360  1.0000 0.1217707355
H   H23       1.0  0.75430  0.66070  0.60460  1.0000 0.1217707355
H   H24       1.0  0.05610  0.14970  0.39540  1.0000 0.1217707355
H   H25       1.0  0.13690  0.83440  0.10710  1.0000 0.125458524
H   H26       1.0  0.72730  0.02980  0.89290  1.0000 0.125458524
H   H27       1.0  0.27980  0.88690  0.80250  1.0000 0.125458524
H   H28       1.0  0.08440  0.47730  0.19750  1.0000 0.125458524
H   H29       1.0  0.11310  0.91560  0.39290  1.0000 0.125458524
H   H30       1.0  0.52270  0.72020  0.60710  1.0000 0.125458524
H   H31       1.0  0.97020  0.86310  0.69750  1.0000 0.125458524
H   H32       1.0  0.16560  0.27270  0.30250  1.0000 0.125458524
H   H33       1.0  0.93940  0.57060  0.91700  1.0000 0.1007140346
H   H34       1.0  0.65360  0.02240  0.08300  1.0000 0.1007140346
H   H35       1.0  0.27240  0.68940  0.86880  1.0000 0.1007140346
H   H36       1.0  0.82060  0.40360  0.13120  1.0000 0.1007140346
H   H37       1.0  0.31060  0.17940  0.58300  1.0000 0.1007140346
H   H38       1.0  0.59640  0.72760  0.41700  1.0000 0.1007140346
H   H39       1.0  0.97760  0.06060  0.63120  1.0000 0.1007140346
H   H40       1.0  0.42940  0.34640  0.36880  1.0000 0.1007140346
H   H41       1.0  0.15330  0.99050  0.81240  1.0000 0.1217707355
H   H42       1.0  0.17810  0.34090  0.18760  1.0000 0.1217707355
H   H43       1.0  0.59090  0.90330  0.66280  1.0000 0.1217707355
H   H44       1.0  0.24050  0.92810  0.33720  1.0000 0.1217707355
H   H45       1.0  0.09670  0.75950  0.68760  1.0000 0.1217707355
H   H46       1.0  0.07190  0.40910  0.31240  1.0000 0.1217707355
H   H47       1.0  0.65910  0.84670  0.83720  1.0000 0.1217707355
H   H48       1.0  0.00950  0.82190  0.16280  1.0000 0.1217707355
H   H49       1.0  0.40150  0.23420  0.78610  1.0000 0.1007140346
H   H50       1.0  0.44810  0.61540  0.21390  1.0000 0.1007140346
H   H51       1.0  0.86540  0.15150  0.66730  1.0000 0.1007140346
H   H52       1.0  0.48420  0.19810  0.33270  1.0000 0.1007140346
H   H53       1.0  0.84850  0.51580  0.71390  1.0000 0.1007140346
H   H54       1.0  0.80190  0.13460  0.28610  1.0000 0.1007140346
H   H55       1.0  0.38460  0.59850  0.83270  1.0000 0.1007140346
H   H56       1.0  0.76580  0.55190  0.16730  1.0000 0.1007140346
H   H57       1.0  0.63360  0.18930  0.05510  1.0000 0.125458524
H   H58       1.0  0.13420  0.57850  0.94490  1.0000 0.125458524
H   H59       1.0  0.82850  0.38360  0.94430  1.0000 0.125458524
H   H60       1.0  0.43930  0.88420  0.05570  1.0000 0.125458524
H   H61       1.0  0.61640  0.56070  0.44490  1.0000 0.125458524
H   H62       1.0  0.11580  0.17150  0.55510  1.0000 0.125458524
H   H63       1.0  0.42150  0.36640  0.55570  1.0000 0.125458524
H   H64       1.0  0.81070  0.86580  0.44430  1.0000 0.125458524
H   H65       1.0  0.68590  0.18260  0.27150  1.0000 0.1007140346
H   H66       1.0  0.91110  0.41440  0.72850  1.0000 0.1007140346
H   H67       1.0  0.66440  0.43590  0.00330  1.0000 0.1007140346
H   H68       1.0  0.43260  0.66110  0.99670  1.0000 0.1007140346
H   H69       1.0  0.56410  0.56740  0.22850  1.0000 0.1007140346
H   H70       1.0  0.33890  0.33560  0.77150  1.0000 0.1007140346
H   H71       1.0  0.58560  0.31410  0.49670  1.0000 0.1007140346
H   H72       1.0  0.81740  0.08890  0.50330  1.0000 0.1007140346
C   C1        1.0  0.23598  0.90969  0.99507  1.0000 0.0787796373
C   C2        1.0  0.91462  0.24091  0.00493  1.0000 0.0787796373
C   C3        1.0  0.49091  0.98598  0.82629  1.0000 0.0787796373
C   C4        1.0  0.15969  0.66462  0.17371  1.0000 0.0787796373
C   C5        1.0  0.01402  0.84031  0.50493  1.0000 0.0787796373
C   C6        1.0  0.33538  0.50909  0.49507  1.0000 0.0787796373
C   C7        1.0  0.75909  0.76402  0.67371  1.0000 0.0787796373
C   C8        1.0  0.09031  0.08538  0.32629  1.0000 0.0787796373
C   C9        1.0  0.22909  0.94884  0.93773  1.0000 -0.1948234114
C   C10       1.0  0.01111  0.29136  0.06227  1.0000 -0.1948234114
C   C11       1.0  0.54136  0.97909  0.78025  1.0000 -0.1948234114
C   C12       1.0  0.19884  0.76111  0.21975  1.0000 -0.1948234114
C   C13       1.0  0.02091  0.80116  0.56227  1.0000 -0.1948234114
C   C14       1.0  0.23889  0.45864  0.43773  1.0000 -0.1948234114
C   C15       1.0  0.70864  0.77091  0.71975  1.0000 -0.1948234114
C   C16       1.0  0.05116  0.98889  0.28025  1.0000 -0.1948234114
C   C17       1.0  0.31917  0.04634  0.93951  1.0000 0.0787796373
C   C18       1.0  0.10683  0.37966  0.06049  1.0000 0.0787796373
C   C19       1.0  0.62966  0.06917  0.77283  1.0000 0.0787796373
C   C20       1.0  0.29634  0.85683  0.22717  1.0000 0.0787796373
C   C21       1.0  0.93083  0.70366  0.56049  1.0000 0.0787796373
C   C22       1.0  0.14317  0.37034  0.43951  1.0000 0.0787796373
C   C23       1.0  0.62034  0.68083  0.72717  1.0000 0.0787796373
C   C24       1.0  0.95366  0.89317  0.27283  1.0000 0.0787796373
C   C25       1.0  0.41649  0.10479  0.99988  1.0000 -0.174187632
C   C26       1.0  0.10491  0.41661  0.00012  1.0000 -0.174187632
C   C27       1.0  0.66667  0.16649  0.81170  1.0000 -0.174187632
C   C28       1.0  0.35479  0.85491  0.18830  1.0000 -0.174187632
C   C29       1.0  0.83351  0.64521  0.50012  1.0000 -0.1752899412
C   C30       1.0  0.14509  0.33339  0.49988  1.0000 -0.174187632
C   C31       1.0  0.58339  0.58351  0.68830  1.0000 -0.174187632
C   C32       1.0  0.89521  0.89509  0.31170  1.0000 -0.1752899412
C   C33       1.0  0.42562  0.06521  0.05643  1.0000 0.0787796373
C   C34       1.0  0.00878  0.36919  0.94357  1.0000 0.0787796373
C   C35       1.0  0.61919  0.17562  0.86041  1.0000 0.0787796373
C   C36       1.0  0.31521  0.75878  0.13959  1.0000 0.0787796373
C   C37       1.0  0.82438  0.68479  0.44357  1.0000 0.0787796373
C   C38       1.0  0.24122  0.38081  0.55643  1.0000 0.0787796373
C   C39       1.0  0.63081  0.57438  0.63959  1.0000 0.0787796373
C   C40       1.0  0.93479  0.99122  0.36041  1.0000 0.0787796373
C   C41       1.0  0.33427  0.96900  0.05427  1.0000 -0.174187632
C   C42       1.0  0.91473  0.28000  0.94573  1.0000 -0.174187632
C   C43       1.0  0.53000  0.08427  0.86527  1.0000 -0.174187632
C   C44       1.0  0.21900  0.66473  0.13473  1.0000 -0.174187632
C   C45       1.0  0.91573  0.78100  0.44573  1.0000 -0.174187632
C   C46       1.0  0.33527  0.47000  0.55427  1.0000 -0.174187632
C   C47       1.0  0.72000  0.66573  0.63473  1.0000 -0.174187632
C   C48       1.0  0.03100  0.08527  0.36527  1.0000 -0.174187632
C   C49       1.0  0.14148  0.80781  0.99449  1.0000 0.1129371672
C   C50       1.0  0.81332  0.14699  0.00551  1.0000 0.1129371672
C   C51       1.0  0.39699  0.89148  0.83367  1.0000 0.1129371672
C   C52       1.0  0.05781  0.56332  0.16633  1.0000 0.1129371672
C   C53       1.0  0.10852  0.94219  0.50551  1.0000 0.1129371672
C   C54       1.0  0.43668  0.60301  0.49449  1.0000 0.1129371672
C   C55       1.0  0.85301  0.85852  0.66633  1.0000 0.1129371672
C   C56       1.0  0.19219  0.18668  0.33367  1.0000 0.1129371672
C   C57       1.0  0.10435  0.78519  0.05494  1.0000 -0.0791528683
C   C58       1.0  0.73025  0.04941  0.94506  1.0000 -0.0791528683
C   C59       1.0  0.29941  0.85435  0.81916  1.0000 -0.0791528683
C   C60       1.0  0.03519  0.48025  0.18084  1.0000 -0.0791528683
C   C61       1.0  0.14565  0.96481  0.44506  1.0000 -0.0791528683
C   C62       1.0  0.51975  0.70059  0.55494  1.0000 -0.0791528683
C   C63       1.0  0.95059  0.89565  0.68084  1.0000 -0.0791528683
C   C64       1.0  0.21481  0.26975  0.31916  1.0000 -0.0791528683
C   C65       1.0  0.99720  0.64170  0.95090  1.0000 0.1604128059
C   C66       1.0  0.69080  0.04630  0.04910  1.0000 0.1604128059
C   C67       1.0  0.29630  0.74720  0.85550  1.0000 0.1604128059
C   C68       1.0  0.89170  0.44080  0.14450  1.0000 0.1604128059
C   C69       1.0  0.25280  0.10830  0.54910  1.0000 0.1604128059
C   C70       1.0  0.55920  0.70370  0.45090  1.0000 0.1604128059
C   C71       1.0  0.95370  0.00280  0.64450  1.0000 0.1604128059
C   C72       1.0  0.35830  0.30920  0.35550  1.0000 0.1604128059
C   C73       1.0  0.30999  0.08541  0.87760  1.0000 0.1129371672
C   C74       1.0  0.20781  0.43239  0.12240  1.0000 0.1129371672
C   C75       1.0  0.68239  0.05999  0.72458  1.0000 0.1129371672
C   C76       1.0  0.33541  0.95781  0.27542  1.0000 0.1129371672
C   C77       1.0  0.94001  0.66459  0.62240  1.0000 0.1129371672
C   C78       1.0  0.04219  0.31761  0.37760  1.0000 0.1129371672
C   C79       1.0  0.56761  0.69001  0.77542  1.0000 0.1129371672
C   C80       1.0  0.91459  0.79219  0.22458  1.0000 0.1129371672
C   C81       1.0  0.22336  0.04830  0.81966  1.0000 -0.1185065332
C   C82       1.0  0.22864  0.40370  0.18034  1.0000 -0.1185065332
C   C83       1.0  0.65370  0.97336  0.67506  1.0000 -0.1185065332
C   C84       1.0  0.29830  0.97864  0.32494  1.0000 -0.1185065332
C   C85       1.0  0.02664  0.70170  0.68034  1.0000 -0.1185065332
C   C86       1.0  0.02136  0.34630  0.31966  1.0000 -0.1185065332
C   C87       1.0  0.59630  0.77664  0.82494  1.0000 -0.1185065332
C   C88       1.0  0.95170  0.77136  0.17506  1.0000 -0.1185065332
C   C89       1.0  0.35870  0.18100  0.80510  1.0000 0.1604128059
C   C90       1.0  0.37590  0.55360  0.19490  1.0000 0.1604128059
C   C91       1.0  0.80360  0.10870  0.67770  1.0000 0.1604128059
C   C92       1.0  0.43100  0.12590  0.32230  1.0000 0.1604128059
C   C93       1.0  0.89130  0.56900  0.69490  1.0000 0.1604128059
C   C94       1.0  0.87410  0.19640  0.30510  1.0000 0.1604128059
C   C95       1.0  0.44640  0.64130  0.82230  1.0000 0.1604128059
C   C96       1.0  0.81900  0.62410  0.17770  1.0000 0.1604128059
C   C97       1.0  0.53118  0.12101  0.11339  1.0000 0.1217707355
C   C98       1.0  0.00762  0.41779  0.88661  1.0000 0.1217707355
C   C99       1.0  0.66779  0.28118  0.91017  1.0000 0.1217707355
C   C100      1.0  0.37101  0.75762  0.08983  1.0000 0.1217707355
C   C101      1.0  0.71882  0.62899  0.38661  1.0000 0.1217707355
C   C102      1.0  0.24238  0.33221  0.61339  1.0000 0.1217707355
C   C103      1.0  0.58221  0.46882  0.58983  1.0000 0.1217707355
C   C104      1.0  0.87899  0.99238  0.41017  1.0000 0.1217707355
C   C105      1.0  0.62383  0.17560  0.10163  1.0000 -0.1185065332
C   C106      1.0  0.07397  0.52220  0.89837  1.0000 -0.1185065332
C   C107      1.0  0.77220  0.37383  0.94823  1.0000 -0.1185065332
C   C108      1.0  0.42560  0.82397  0.05177  1.0000 -0.1185065332
C   C109      1.0  0.62617  0.57440  0.39837  1.0000 -0.1185065332
C   C110      1.0  0.17603  0.22780  0.60163  1.0000 -0.1185065332
C   C111      1.0  0.47780  0.37617  0.55177  1.0000 -0.1185065332
C   C112      1.0  0.82440  0.92603  0.44823  1.0000 -0.1185065332
C   C113      1.0  0.65228  0.17153  0.22001  1.0000 0.1479479026
C   C114      1.0  0.95152  0.43227  0.77999  1.0000 0.1479479026
C   C115      1.0  0.68227  0.40228  0.98075  1.0000 0.1479479026
C   C116      1.0  0.42153  0.70152  0.01925  1.0000 0.1479479026
C   C117      1.0  0.59772  0.57847  0.27999  1.0000 0.1479479026
C   C118      1.0  0.29848  0.31773  0.72001  1.0000 0.1479479026
C   C119      1.0  0.56773  0.34772  0.51925  1.0000 0.1479479026
C   C120      1.0  0.82847  0.04848  0.48075  1.0000 0.1479479026
N   N1        1.0  0.01265  0.68005  0.02772  1.0000 -0.2860080201
N   N2        1.0  0.65233  0.98493  0.97228  1.0000 -0.2860080201
N   N3        1.0  0.23493  0.76265  0.83260  1.0000 -0.2860080201
N   N4        1.0  0.93005  0.40233  0.16740  1.0000 -0.2860080201
N   N5        1.0  0.23735  0.06995  0.47228  1.0000 -0.2860080201
N   N6        1.0  0.59767  0.76507  0.52772  1.0000 -0.2860080201
N   N7        1.0  0.01507  0.98735  0.66740  1.0000 -0.2860080201
N   N8        1.0  0.31995  0.34767  0.33260  1.0000 -0.2860080201
N   N9        1.0  0.07116  0.71326  0.92662  1.0000 -0.3382664892
N   N10       1.0  0.78664  0.14454  0.07338  1.0000 -0.3382664892
N   N11       1.0  0.39454  0.82116  0.85790  1.0000 -0.3382664892
N   N12       1.0  0.96326  0.53664  0.14210  1.0000 -0.3382664892
N   N13       1.0  0.17884  0.03674  0.57338  1.0000 -0.3382664892
N   N14       1.0  0.46336  0.60546  0.42662  1.0000 -0.3382664892
N   N15       1.0  0.85546  0.92884  0.64210  1.0000 -0.3382664892
N   N16       1.0  0.28674  0.21336  0.35790  1.0000 -0.3382664892
N   N17       1.0  0.25422  0.10891  0.77273  1.0000 -0.3148856584
N   N18       1.0  0.33618  0.48149  0.22727  1.0000 -0.3148856584
N   N19       1.0  0.73149  0.00422  0.64531  1.0000 -0.3148856584
N   N20       1.0  0.35891  0.08618  0.35469  1.0000 -0.3148856584
N   N21       1.0  0.99578  0.64109  0.72727  1.0000 -0.3148856584
N   N22       1.0  0.91382  0.26851  0.27273  1.0000 -0.3173852124
N   N23       1.0  0.51851  0.74578  0.85469  1.0000 -0.3148856584
N   N24       1.0  0.89109  0.66382  0.14531  1.0000 -0.3148856584
N   N25       1.0  0.39762  0.17126  0.86748  1.0000 -0.3173852124
N   N26       1.0  0.30378  0.53014  0.13252  1.0000 -0.3173852124
N   N27       1.0  0.78014  0.14762  0.72636  1.0000 -0.3173852124
N   N28       1.0  0.42126  0.05378  0.27364  1.0000 -0.3173852124
N   N29       1.0  0.85238  0.57874  0.63252  1.0000 -0.3173852124
N   N30       1.0  0.94622  0.21986  0.36748  1.0000 -0.3173852124
N   N31       1.0  0.46986  0.60238  0.77364  1.0000 -0.3173852124
N   N32       1.0  0.82874  0.69622  0.22636  1.0000 -0.3173852124
N   N33       1.0  0.70161  0.20792  0.16933  1.0000 -0.3148856584
N   N34       1.0  0.03859  0.53228  0.83067  1.0000 -0.3148856584
N   N35       1.0  0.78228  0.45161  0.99369  1.0000 -0.3148856584
N   N36       1.0  0.45792  0.78859  0.00631  1.0000 -0.3148856584
N   N37       1.0  0.54839  0.54208  0.33067  1.0000 -0.3148856584
N   N38       1.0  0.21141  0.21772  0.66933  1.0000 -0.3148856584
N   N39       1.0  0.46772  0.29839  0.50631  1.0000 -0.3148856584
N   N40       1.0  0.79208  0.96141  0.49369  1.0000 -0.3148856584
N   N41       1.0  0.54976  0.11782  0.18918  1.0000 -0.3173852124
N   N42       1.0  0.92864  0.36058  0.81082  1.0000 -0.3173852124
N   N43       1.0  0.61058  0.29976  0.93194  1.0000 -0.3173852124
N   N44       1.0  0.36782  0.67864  0.06806  1.0000 -0.3173852124
N   N45       1.0  0.70024  0.63218  0.31082  1.0000 -0.3173852124
N   N46       1.0  0.32136  0.38942  0.68918  1.0000 -0.3173852124
N   N47       1.0  0.63942  0.45024  0.56806  1.0000 -0.3173852124
N   N48       1.0  0.88218  0.07136  0.43194  1.0000 -0.3173852124
