# DDEC6 charges by PACMAN v1.1 (https://github.com/mtap-research/PACMAN-charge/)
data_2011[Nd][flu]3[FSR]2
_chemical_formula_sum              "Nd2 H24 C30 N2 O18"
_cell_length_a       9.5211
_cell_length_b       9.9835
_cell_length_c       11.4843
_cell_angle_alpha    96.342
_cell_angle_beta     97.063
_cell_angle_gamma    111.763

_symmetry_space_group_name_H-M    "P 1"
_symmetry_Int_Tables_number       1

loop_
  _symmetry_equiv_pos_as_xyz
  'x, y, z'

loop_
  _atom_site_type_symbol
  _atom_site_label
  _atom_site_symmetry_multiplicity
  _atom_site_fract_x
  _atom_site_fract_y
  _atom_site_fract_z
  _atom_site_occupancy
  _atom_site_charge
Nd  Nd1       1.0  0.28629  0.04512  0.99079  1.0000 2.1104525405
Nd  Nd2       1.0  0.71371  0.95488  0.00921  1.0000 2.1104525405
H   H1        1.0  0.68090  0.50390  0.97130  1.0000 0.1329674898
H   H2        1.0  0.31910  0.49610  0.02870  1.0000 0.1387344796
H   H3        1.0  0.80570  0.20670  0.78660  1.0000 0.1387344796
H   H4        1.0  0.19430  0.79330  0.21340  1.0000 0.1387344796
H   H5        1.0  0.07960  0.63780  0.84290  1.0000 0.1387344796
H   H6        1.0  0.92040  0.36220  0.15710  1.0000 0.1387344796
H   H7        1.0  0.82880  0.40870  0.58050  1.0000 0.1329674898
H   H8        1.0  0.17120  0.59130  0.41950  1.0000 0.1329674898
H   H9        1.0  0.74310  0.29310  0.38140  1.0000 0.1163464267
H   H10       1.0  0.25690  0.70690  0.61860  1.0000 0.1163464267
H   H11       1.0  0.05330  0.10510  0.41380  1.0000 0.1163464267
H   H12       1.0  0.94670  0.89490  0.58620  1.0000 0.1163464267
H   H13       1.0  0.16780  0.15270  0.68150  1.0000 0.2996562201
H   H14       1.0  0.83220  0.84730  0.31850  1.0000 0.2996562201
H   H15       1.0  0.26210  0.30380  0.68460  1.0000 0.2996562201
H   H16       1.0  0.73790  0.69620  0.31540  1.0000 0.2996562201
H   H17       1.0  0.24820  0.08670  0.26380  1.0000 0.3878990639
H   H18       1.0  0.75180  0.91330  0.73620  1.0000 0.3878990639
H   H19       1.0  0.09760  0.04430  0.19630  1.0000 0.4089593071
H   H20       1.0  0.90240  0.95570  0.80370  1.0000 0.4089593071
H   H21       1.0  0.51510  0.32120  0.17170  1.0000 0.4272565622
H   H22       1.0  0.48490  0.67880  0.82830  1.0000 0.4272565622
H   H23       1.0  0.57170  0.19150  0.16240  1.0000 0.4089593071
H   H24       1.0  0.42830  0.80850  0.83760  1.0000 0.4089593071
C   C1        1.0  0.92240  0.74760  0.97470  1.0000 0.6446412879
C   C2        1.0  0.07760  0.25240  0.02530  1.0000 0.6446412879
C   C3        1.0  0.88830  0.59280  0.91830  1.0000 -0.0086360799
C   C4        1.0  0.11170  0.40720  0.08170  1.0000 -0.0086360799
C   C5        1.0  0.75240  0.48160  0.93020  1.0000 -0.1422038299
C   C6        1.0  0.24760  0.51840  0.06980  1.0000 -0.1422038299
C   C7        1.0  0.72180  0.33700  0.88150  1.0000 0.0081240534
C   C8        1.0  0.27820  0.66300  0.11850  1.0000 0.0081240534
C   C9        1.0  0.57760  0.21730  0.89880  1.0000 0.6128872115
C   C10       1.0  0.42240  0.78270  0.10120  1.0000 0.6128872115
C   C11       1.0  0.82380  0.30500  0.81760  1.0000 -0.222401333
C   C12       1.0  0.17620  0.69500  0.18240  1.0000 -0.222401333
C   C13       1.0  0.95160  0.41900  0.80010  1.0000 0.242942341
C   C14       1.0  0.04840  0.58100  0.19990  1.0000 0.242942341
C   C15       1.0  0.98760  0.56180  0.85230  1.0000 -0.203127436
C   C16       1.0  0.01240  0.43820  0.14770  1.0000 -0.203127436
C   C17       1.0  0.99260  0.32410  0.61450  1.0000 0.159063958
C   C18       1.0  0.00740  0.67590  0.38550  1.0000 0.159063958
C   C19       1.0  0.87410  0.34700  0.54660  1.0000 -0.222401333
C   C20       1.0  0.12590  0.65300  0.45340  1.0000 -0.222401333
C   C21       1.0  0.82350  0.27800  0.42860  1.0000 -0.1144605611
C   C22       1.0  0.17650  0.72200  0.57140  1.0000 -0.1144605611
C   C23       1.0  0.88890  0.18730  0.37890  1.0000 -0.0407831442
C   C24       1.0  0.11110  0.81270  0.62110  1.0000 -0.0407831442
C   C25       1.0  0.82820  0.10580  0.25540  1.0000 0.5742035586
C   C26       1.0  0.17180  0.89420  0.74460  1.0000 0.5742035586
C   C27       1.0  0.00820  0.16680  0.44780  1.0000 -0.211510412
C   C28       1.0  0.99180  0.83320  0.55220  1.0000 -0.211510412
C   C29       1.0  0.06170  0.23580  0.56570  1.0000 0.1742240492
C   C30       1.0  0.93830  0.76420  0.43430  1.0000 0.1742240492
N   N1        1.0  0.18830  0.22400  0.63530  1.0000 -0.5912763995
N   N2        1.0  0.81170  0.77600  0.36470  1.0000 -0.5912763995
O   O1        1.0  0.45540  0.23910  0.88960  1.0000 -0.6070244235
O   O2        1.0  0.54460  0.76090  0.11040  1.0000 -0.6070244235
O   O3        1.0  0.88040  0.01270  0.21500  1.0000 -0.6382194382
O   O4        1.0  0.11960  0.98730  0.78500  1.0000 -0.6382194382
O   O5        1.0  0.81480  0.77230  0.01230  1.0000 -0.6606598418
O   O6        1.0  0.18520  0.22770  0.98770  1.0000 -0.6606598418
O   O7        1.0  0.05440  0.84120  0.98120  1.0000 -0.6684886139
O   O8        1.0  0.94560  0.15880  0.01880  1.0000 -0.6684886139
O   O9        1.0  0.58350  0.09770  0.92320  1.0000 -0.7395834845
O   O10       1.0  0.41650  0.90230  0.07680  1.0000 -0.7395834845
O   O11       1.0  0.05330  0.39030  0.73210  1.0000 -0.222401333
O   O12       1.0  0.94670  0.60970  0.26790  1.0000 -0.222401333
O   O13       1.0  0.72260  0.12630  0.19030  1.0000 -0.6382194382
O   O14       1.0  0.27740  0.87370  0.80970  1.0000 -0.6382194382
O   O15       1.0  0.19390  0.05870  0.18890  1.0000 -0.7819863778
O   O16       1.0  0.80610  0.94130  0.81110  1.0000 -0.7819863778
O   O17       1.0  0.49550  0.22430  0.14800  1.0000 -0.8245224875
O   O18       1.0  0.50450  0.77570  0.85200  1.0000 -0.8245224875
