# DDEC6 charges by PACMAN v1.1 (https://github.com/mtap-research/PACMAN-charge/)
data_2011[WCu][nan]3[FSR]1
_chemical_formula_sum              "Cu12 H80 W4 C104 S16 N24 O4"
_cell_length_a       20.906
_cell_length_b       20.906
_cell_length_c       24.7394
_cell_angle_alpha    75.397
_cell_angle_beta     104.603
_cell_angle_gamma    153.144

_symmetry_space_group_name_H-M    "P 1"
_symmetry_Int_Tables_number       1

loop_
  _symmetry_equiv_pos_as_xyz
  'x, y, z'

loop_
  _atom_site_type_symbol
  _atom_site_label
  _atom_site_symmetry_multiplicity
  _atom_site_fract_x
  _atom_site_fract_y
  _atom_site_fract_z
  _atom_site_occupancy
  _atom_site_charge
Cu  Cu1       1.0  0.06373  0.35449  0.46101  1.0000 0.3595716138
Cu  Cu2       1.0  0.35449  0.06373  0.03899  1.0000 0.3595716138
Cu  Cu3       1.0  0.93627  0.64551  0.53899  1.0000 0.3595716138
Cu  Cu4       1.0  0.64551  0.93627  0.96101  1.0000 0.3595716138
Cu  Cu5       1.0  0.74681  0.96213  0.50972  1.0000 0.2715706799
Cu  Cu6       1.0  0.96213  0.74681  0.99028  1.0000 0.2715706799
Cu  Cu7       1.0  0.25319  0.03787  0.49028  1.0000 0.2715706799
Cu  Cu8       1.0  0.03787  0.25319  0.00972  1.0000 0.2715706799
Cu  Cu9       1.0  0.97346  0.23474  0.60871  1.0000 0.2715706799
Cu  Cu10      1.0  0.23474  0.97346  0.89129  1.0000 0.2753790472
Cu  Cu11      1.0  0.02654  0.76526  0.39129  1.0000 0.2753790472
Cu  Cu12      1.0  0.76526  0.02654  0.10871  1.0000 0.2753790472
H   H1        1.0  0.55970  0.73970  0.91560  1.0000 0.1085096504
H   H2        1.0  0.73970  0.55970  0.58440  1.0000 0.1085096504
H   H3        1.0  0.44030  0.26030  0.08440  1.0000 0.1085096504
H   H4        1.0  0.26030  0.44030  0.41560  1.0000 0.1085096504
H   H5        1.0  0.40460  0.57400  0.84920  1.0000 0.131949255
H   H6        1.0  0.57400  0.40460  0.65080  1.0000 0.131949255
H   H7        1.0  0.59540  0.42600  0.15080  1.0000 0.131949255
H   H8        1.0  0.42600  0.59540  0.34920  1.0000 0.131949255
H   H9        1.0  0.22270  0.59030  0.82370  1.0000 0.131949255
H   H10       1.0  0.59030  0.22270  0.67630  1.0000 0.131949255
H   H11       1.0  0.77730  0.40970  0.17630  1.0000 0.131949255
H   H12       1.0  0.40970  0.77730  0.32370  1.0000 0.131949255
H   H13       1.0  0.38350  0.75650  0.88870  1.0000 0.1085096504
H   H14       1.0  0.75650  0.38350  0.61130  1.0000 0.1085096504
H   H15       1.0  0.61650  0.24350  0.11130  1.0000 0.1085096504
H   H16       1.0  0.24350  0.61650  0.38870  1.0000 0.1085096504
H   H17       1.0  0.06700  0.23540  0.72700  1.0000 0.1085096504
H   H18       1.0  0.23540  0.06700  0.77300  1.0000 0.1085096504
H   H19       1.0  0.93300  0.76460  0.27300  1.0000 0.1085096504
H   H20       1.0  0.76460  0.93300  0.22700  1.0000 0.1085096504
H   H21       1.0  0.19330  0.36290  0.80460  1.0000 0.131949255
H   H22       1.0  0.36290  0.19330  0.69540  1.0000 0.131949255
H   H23       1.0  0.80670  0.63710  0.19540  1.0000 0.131949255
H   H24       1.0  0.63710  0.80670  0.30460  1.0000 0.131949255
H   H25       1.0  0.17760  0.54120  0.73820  1.0000 0.1367215108
H   H26       1.0  0.54120  0.17760  0.76180  1.0000 0.1367215108
H   H27       1.0  0.82240  0.45880  0.26180  1.0000 0.1367215108
H   H28       1.0  0.45880  0.82240  0.23820  1.0000 0.1367215108
H   H29       1.0  0.05650  0.41330  0.66140  1.0000 0.1006471407
H   H30       1.0  0.41330  0.05650  0.83860  1.0000 0.1006471407
H   H31       1.0  0.94350  0.58670  0.33860  1.0000 0.1006471407
H   H32       1.0  0.58670  0.94350  0.16140  1.0000 0.1006471407
H   H33       1.0  0.77640  0.87980  0.45160  1.0000 0.1085096504
H   H34       1.0  0.87980  0.77640  0.04840  1.0000 0.1085096504
H   H35       1.0  0.22360  0.12020  0.54840  1.0000 0.1085096504
H   H36       1.0  0.12020  0.22360  0.95160  1.0000 0.1085096504
H   H37       1.0  0.68930  0.70030  0.45060  1.0000 0.1367215108
H   H38       1.0  0.70030  0.68930  0.04940  1.0000 0.1367215108
H   H39       1.0  0.31070  0.29970  0.54940  1.0000 0.1367215108
H   H40       1.0  0.29970  0.31070  0.95060  1.0000 0.1367215108
H   H41       1.0  0.38520  0.46120  0.54310  1.0000 0.1367215108
H   H42       1.0  0.46120  0.38520  0.95690  1.0000 0.1367215108
H   H43       1.0  0.61480  0.53880  0.45690  1.0000 0.1367215108
H   H44       1.0  0.53880  0.61480  0.04310  1.0000 0.1367215108
H   H45       1.0  0.48300  0.64740  0.54270  1.0000 0.1085096504
H   H46       1.0  0.64740  0.48300  0.95730  1.0000 0.1085096504
H   H47       1.0  0.51700  0.35260  0.45730  1.0000 0.1085096504
H   H48       1.0  0.35260  0.51700  0.04270  1.0000 0.1085096504
H   H49       1.0  0.45570  0.74130  0.53880  1.0000 0.1085096504
H   H50       1.0  0.74130  0.45570  0.96120  1.0000 0.1085096504
H   H51       1.0  0.54430  0.25870  0.46120  1.0000 0.1085096504
H   H52       1.0  0.25870  0.54430  0.03880  1.0000 0.1085096504
H   H53       1.0  0.30370  0.69590  0.51830  1.0000 0.1367215108
H   H54       1.0  0.69590  0.30370  0.98170  1.0000 0.1367215108
H   H55       1.0  0.69630  0.30410  0.48170  1.0000 0.1367215108
H   H56       1.0  0.30410  0.69630  0.01830  1.0000 0.1367215108
H   H57       1.0  0.56690  0.02110  0.40290  1.0000 0.131949255
H   H58       1.0  0.02110  0.56690  0.09710  1.0000 0.131949255
H   H59       1.0  0.43310  0.97890  0.59710  1.0000 0.131949255
H   H60       1.0  0.97890  0.43310  0.90290  1.0000 0.131949255
H   H61       1.0  0.71000  0.05680  0.42840  1.0000 0.1085096504
H   H62       1.0  0.05680  0.71000  0.07160  1.0000 0.1085096504
H   H63       1.0  0.29000  0.94320  0.57160  1.0000 0.1085096504
H   H64       1.0  0.94320  0.29000  0.92840  1.0000 0.1085096504
H   H65       1.0  0.99120  0.39720  0.55100  1.0000 0.1006471407
H   H66       1.0  0.39720  0.99120  0.94900  1.0000 0.1006471407
H   H67       1.0  0.00880  0.60280  0.44900  1.0000 0.1006471407
H   H68       1.0  0.60280  0.00880  0.05100  1.0000 0.1006471407
H   H69       1.0  0.85950  0.37410  0.52960  1.0000 0.131949255
H   H70       1.0  0.37410  0.85950  0.97040  1.0000 0.131949255
H   H71       1.0  0.14050  0.62590  0.47040  1.0000 0.131949255
H   H72       1.0  0.62590  0.14050  0.02960  1.0000 0.131949255
H   H73       1.0  0.47670  0.03350  0.41420  1.0000 0.131949255
H   H74       1.0  0.03350  0.47670  0.08580  1.0000 0.131949255
H   H75       1.0  0.52330  0.96650  0.58580  1.0000 0.131949255
H   H76       1.0  0.96650  0.52330  0.91420  1.0000 0.131949255
H   H77       1.0  0.66820  0.00420  0.60710  1.0000 0.1085096504
H   H78       1.0  0.00420  0.66820  0.89290  1.0000 0.1085096504
H   H79       1.0  0.33180  0.99580  0.39290  1.0000 0.1085096504
H   H80       1.0  0.99580  0.33180  0.10710  1.0000 0.1085096504
W   W1        1.0  0.02753  0.20735  0.53907  1.0000 1.1007307027
W   W2        1.0  0.20735  0.02753  0.96093  1.0000 1.1007307027
W   W3        1.0  0.97247  0.79265  0.46093  1.0000 1.1007307027
W   W4        1.0  0.79265  0.97247  0.03907  1.0000 1.1007307027
C   C1        1.0  0.49237  0.71083  0.89630  1.0000 0.089558409
C   C2        1.0  0.71083  0.49237  0.60370  1.0000 0.089558409
C   C3        1.0  0.50763  0.28917  0.10370  1.0000 0.089558409
C   C4        1.0  0.28917  0.50763  0.39630  1.0000 0.089558409
C   C5        1.0  0.39899  0.61061  0.85600  1.0000 -0.1957628481
C   C6        1.0  0.61061  0.39899  0.64400  1.0000 -0.1957628481
C   C7        1.0  0.60101  0.38939  0.14400  1.0000 -0.1957628481
C   C8        1.0  0.38939  0.60101  0.35600  1.0000 -0.1957628481
C   C9        1.0  0.29805  0.56655  0.82640  1.0000 0.11599654
C   C10       1.0  0.56655  0.29805  0.67360  1.0000 0.11599654
C   C11       1.0  0.70195  0.43345  0.17360  1.0000 0.11599654
C   C12       1.0  0.43345  0.70195  0.32640  1.0000 0.11599654
C   C13       1.0  0.29201  0.62079  0.84080  1.0000 -0.190048762
C   C14       1.0  0.62079  0.29201  0.65920  1.0000 -0.190048762
C   C15       1.0  0.70799  0.37921  0.15920  1.0000 -0.190048762
C   C16       1.0  0.37921  0.70799  0.34080  1.0000 -0.190048762
C   C17       1.0  0.38854  0.72006  0.88060  1.0000 0.089558409
C   C18       1.0  0.72006  0.38854  0.61940  1.0000 0.089558409
C   C19       1.0  0.61146  0.27994  0.11940  1.0000 0.089558409
C   C20       1.0  0.27994  0.61146  0.38060  1.0000 0.089558409
C   C21       1.0  0.09154  0.30006  0.72820  1.0000 0.079206378
C   C22       1.0  0.30006  0.09154  0.77180  1.0000 0.079206378
C   C23       1.0  0.90846  0.69994  0.27180  1.0000 0.079206378
C   C24       1.0  0.69994  0.90846  0.22820  1.0000 0.079206378
C   C25       1.0  0.16840  0.37720  0.77530  1.0000 -0.190048762
C   C26       1.0  0.37720  0.16840  0.72470  1.0000 -0.190048762
C   C27       1.0  0.83160  0.62280  0.22470  1.0000 -0.190048762
C   C28       1.0  0.62280  0.83160  0.27530  1.0000 -0.190048762
C   C29       1.0  0.20755  0.47345  0.77890  1.0000 0.1006471407
C   C30       1.0  0.47345  0.20755  0.72110  1.0000 0.1006471407
C   C31       1.0  0.79245  0.52655  0.22110  1.0000 0.1006471407
C   C32       1.0  0.52655  0.79245  0.27890  1.0000 0.1006471407
C   C33       1.0  0.16020  0.48240  0.73650  1.0000 -0.181241431
C   C34       1.0  0.48240  0.16020  0.76350  1.0000 -0.181241431
C   C35       1.0  0.83980  0.51760  0.26350  1.0000 -0.181241431
C   C36       1.0  0.51760  0.83980  0.23650  1.0000 -0.181241431
C   C37       1.0  0.08540  0.40300  0.69060  1.0000 0.079206378
C   C38       1.0  0.40300  0.08540  0.80940  1.0000 0.079206378
C   C39       1.0  0.91460  0.59700  0.30940  1.0000 0.079206378
C   C40       1.0  0.59700  0.91460  0.19060  1.0000 0.079206378
C   C41       1.0  0.69850  0.79530  0.47220  1.0000 0.0687459861
C   C42       1.0  0.79530  0.69850  0.02780  1.0000 0.0687459861
C   C43       1.0  0.30150  0.20470  0.52780  1.0000 0.0687459861
C   C44       1.0  0.20470  0.30150  0.97220  1.0000 0.0687459861
C   C45       1.0  0.64560  0.68660  0.47100  1.0000 -0.181241431
C   C46       1.0  0.68660  0.64560  0.02900  1.0000 -0.181241431
C   C47       1.0  0.35440  0.31340  0.52900  1.0000 -0.181241431
C   C48       1.0  0.31340  0.35440  0.97100  1.0000 -0.181241431
C   C49       1.0  0.52959  0.55961  0.49960  1.0000 0.1006471407
C   C50       1.0  0.55961  0.52959  0.00040  1.0000 0.1006471407
C   C51       1.0  0.47041  0.44039  0.50040  1.0000 0.1006471407
C   C52       1.0  0.44039  0.47041  0.99960  1.0000 0.1006471407
C   C53       1.0  0.46863  0.54737  0.52510  1.0000 -0.181241431
C   C54       1.0  0.54737  0.46863  0.97490  1.0000 -0.181241431
C   C55       1.0  0.53137  0.45263  0.47490  1.0000 -0.181241431
C   C56       1.0  0.45263  0.53137  0.02510  1.0000 -0.181241431
C   C57       1.0  0.52876  0.66084  0.52460  1.0000 0.079206378
C   C58       1.0  0.66084  0.52876  0.97540  1.0000 0.079206378
C   C59       1.0  0.47124  0.33916  0.47540  1.0000 0.079206378
C   C60       1.0  0.33916  0.47124  0.02460  1.0000 0.079206378
C   C61       1.0  0.47971  0.80009  0.51180  1.0000 0.079206378
C   C62       1.0  0.80009  0.47971  0.98820  1.0000 0.079206378
C   C63       1.0  0.52029  0.19991  0.48820  1.0000 0.079206378
C   C64       1.0  0.19991  0.52029  0.01180  1.0000 0.079206378
C   C65       1.0  0.38623  0.77077  0.49940  1.0000 -0.181241431
C   C66       1.0  0.77077  0.38623  0.00060  1.0000 -0.181241431
C   C67       1.0  0.61377  0.22923  0.50060  1.0000 -0.181241431
C   C68       1.0  0.22923  0.61377  0.99940  1.0000 -0.181241431
C   C69       1.0  0.41900  0.85580  0.45820  1.0000 0.1006471407
C   C70       1.0  0.85580  0.41900  0.04180  1.0000 0.1006471407
C   C71       1.0  0.58100  0.14420  0.54180  1.0000 0.1006471407
C   C72       1.0  0.14420  0.58100  0.95820  1.0000 0.1006471407
C   C73       1.0  0.54204  0.96316  0.43140  1.0000 -0.190048762
C   C74       1.0  0.96316  0.54204  0.06860  1.0000 -0.190048762
C   C75       1.0  0.45796  0.03684  0.56860  1.0000 -0.190048762
C   C76       1.0  0.03684  0.45796  0.93140  1.0000 -0.190048762
C   C77       1.0  0.62783  0.98397  0.44710  1.0000 0.079206378
C   C78       1.0  0.98397  0.62783  0.05290  1.0000 0.079206378
C   C79       1.0  0.37217  0.01603  0.55290  1.0000 0.079206378
C   C80       1.0  0.01603  0.37217  0.94710  1.0000 0.079206378
C   C81       1.0  0.89600  0.30980  0.55880  1.0000 0.079206378
C   C82       1.0  0.30980  0.89600  0.94120  1.0000 0.0687459861
C   C83       1.0  0.10400  0.69020  0.44120  1.0000 0.079206378
C   C84       1.0  0.69020  0.10400  0.05880  1.0000 0.079206378
C   C85       1.0  0.81744  0.29656  0.54550  1.0000 -0.181241431
C   C86       1.0  0.29656  0.81744  0.95450  1.0000 -0.181241431
C   C87       1.0  0.18256  0.70344  0.45450  1.0000 -0.181241431
C   C88       1.0  0.70344  0.18256  0.04550  1.0000 -0.181241431
C   C89       1.0  0.32740  0.83420  0.44410  1.0000 0.1085096504
C   C90       1.0  0.83420  0.32740  0.05590  1.0000 0.1085096504
C   C91       1.0  0.67260  0.16580  0.55590  1.0000 0.1085096504
C   C92       1.0  0.16580  0.67260  0.94410  1.0000 0.1085096504
C   C93       1.0  0.38101  0.94379  0.42120  1.0000 -0.181241431
C   C94       1.0  0.94379  0.38101  0.07880  1.0000 -0.181241431
C   C95       1.0  0.61899  0.05621  0.57880  1.0000 -0.181241431
C   C96       1.0  0.05621  0.61899  0.92120  1.0000 -0.181241431
C   C97       1.0  0.70702  0.07978  0.59140  1.0000 0.079206378
C   C98       1.0  0.07978  0.70702  0.90860  1.0000 0.079206378
C   C99       1.0  0.29298  0.92022  0.40860  1.0000 0.079206378
C   C100      1.0  0.92022  0.29298  0.09140  1.0000 0.079206378
C   C101      1.0  0.91280  0.35660  0.41450  1.0000 0.2588135157
C   C102      1.0  0.35660  0.91280  0.08550  1.0000 0.2588135157
C   C103      1.0  0.08720  0.64340  0.58550  1.0000 0.2588135157
C   C104      1.0  0.64340  0.08720  0.91450  1.0000 0.2588135157
S   S1        1.0  0.93041  0.14599  0.45057  1.0000 -0.6209466304
S   S2        1.0  0.14599  0.93041  0.04943  1.0000 -0.6209466304
S   S3        1.0  0.06959  0.85401  0.54943  1.0000 -0.6209466304
S   S4        1.0  0.85401  0.06959  0.95057  1.0000 -0.6209466304
S   S5        1.0  0.85132  0.03460  0.59911  1.0000 -0.5887702103
S   S6        1.0  0.03460  0.85132  0.90089  1.0000 -0.5887702103
S   S7        1.0  0.14868  0.96540  0.40089  1.0000 -0.5887702103
S   S8        1.0  0.96540  0.14868  0.09911  1.0000 -0.5887702103
S   S9        1.0  0.15956  0.41094  0.55141  1.0000 -0.6083058562
S   S10       1.0  0.41094  0.15956  0.94859  1.0000 -0.6083058562
S   S11       1.0  0.84044  0.58906  0.44859  1.0000 -0.6083058562
S   S12       1.0  0.58906  0.84044  0.05141  1.0000 -0.6083058562
S   S13       1.0  0.81832  0.34068  0.38981  1.0000 -0.4087068285
S   S14       1.0  0.34068  0.81832  0.11019  1.0000 -0.4087068285
S   S15       1.0  0.18168  0.65932  0.61019  1.0000 -0.4087068285
S   S16       1.0  0.65932  0.18168  0.88981  1.0000 -0.4087068285
N   N1        1.0  0.97756  0.36664  0.43120  1.0000 -0.4484455358
N   N2        1.0  0.36664  0.97756  0.06880  1.0000 -0.4484455358
N   N3        1.0  0.02244  0.63336  0.56880  1.0000 -0.4484455358
N   N4        1.0  0.63336  0.02244  0.93120  1.0000 -0.4484455358
N   N5        1.0  0.76650  0.48910  0.59170  1.0000 -0.1957628481
N   N6        1.0  0.48910  0.76650  0.90830  1.0000 -0.1957628481
N   N7        1.0  0.23350  0.51090  0.40830  1.0000 -0.1957628481
N   N8        1.0  0.51090  0.23350  0.09170  1.0000 -0.1957628481
N   N9        1.0  0.05194  0.31346  0.68550  1.0000 -0.1710547204
N   N10       1.0  0.31346  0.05194  0.81450  1.0000 -0.1710547204
N   N11       1.0  0.94806  0.68654  0.31450  1.0000 -0.1710547204
N   N12       1.0  0.68654  0.94806  0.18550  1.0000 -0.1710547204
N   N13       1.0  0.64521  0.78619  0.50090  1.0000 -0.190048762
N   N14       1.0  0.78619  0.64521  0.99910  1.0000 -0.190048762
N   N15       1.0  0.35479  0.21381  0.49910  1.0000 -0.190048762
N   N16       1.0  0.21381  0.35479  0.00090  1.0000 -0.190048762
N   N17       1.0  0.60009  0.90611  0.48760  1.0000 -0.181241431
N   N18       1.0  0.90611  0.60009  0.01240  1.0000 -0.181241431
N   N19       1.0  0.39991  0.09389  0.51240  1.0000 -0.181241431
N   N20       1.0  0.09389  0.39991  0.98760  1.0000 -0.181241431
N   N21       1.0  0.84506  0.20514  0.58240  1.0000 -0.190048762
N   N22       1.0  0.20514  0.84506  0.91760  1.0000 -0.190048762
N   N23       1.0  0.15494  0.79486  0.41760  1.0000 -0.190048762
N   N24       1.0  0.79486  0.15494  0.08240  1.0000 -0.190048762
O   O1        1.0  0.13257  0.23083  0.55190  1.0000 -0.5425171848
O   O2        1.0  0.23083  0.13257  0.94810  1.0000 -0.5425171848
O   O3        1.0  0.86743  0.76917  0.44810  1.0000 -0.5425171848
O   O4        1.0  0.76917  0.86743  0.05190  1.0000 -0.5425171848
