# DDEC6 charges by PACMAN v1.1 (https://github.com/mtap-research/PACMAN-charge/)
data_2011[U][nan]3[FSR]1
_chemical_formula_sum              "U6 P8 H20 C24 O38 F2"
_cell_length_a       8.5409
_cell_length_b       19.1605
_cell_length_c       11.3037
_cell_angle_alpha    90
_cell_angle_beta     110.327
_cell_angle_gamma    90

_symmetry_space_group_name_H-M    "P 1"
_symmetry_Int_Tables_number       1

loop_
  _symmetry_equiv_pos_as_xyz
  'x, y, z'

loop_
  _atom_site_type_symbol
  _atom_site_label
  _atom_site_symmetry_multiplicity
  _atom_site_fract_x
  _atom_site_fract_y
  _atom_site_fract_z
  _atom_site_occupancy
  _atom_site_charge
U   U1        1.0  0.92295  0.25000  0.71975  1.0000 2.6217404019
U   U2        1.0  0.07705  0.75000  0.28025  1.0000 2.6217404019
U   U3        1.0  0.22773  0.49209  0.98384  1.0000 2.6090863954
U   U4        1.0  0.77227  0.99209  0.01616  1.0000 2.6090863954
U   U5        1.0  0.77227  0.50791  0.01616  1.0000 2.6090863954
U   U6        1.0  0.22773  0.00791  0.98384  1.0000 2.6090863954
P   P1        1.0  0.23403  0.38445  0.70954  1.0000 1.340882213
P   P2        1.0  0.76597  0.88445  0.29046  1.0000 1.340882213
P   P3        1.0  0.76597  0.61555  0.29046  1.0000 1.340882213
P   P4        1.0  0.23403  0.11555  0.70954  1.0000 1.340882213
P   P5        1.0  0.19895  0.56391  0.22512  1.0000 1.340882213
P   P6        1.0  0.80105  0.06391  0.77488  1.0000 1.340882213
P   P7        1.0  0.80105  0.43609  0.77488  1.0000 1.340882213
P   P8        1.0  0.19895  0.93609  0.22512  1.0000 1.340882213
H   H1        1.0  0.61060  0.20900  0.75230  1.0000 0.4336870174
H   H2        1.0  0.38940  0.70900  0.24770  1.0000 0.4336870174
H   H3        1.0  0.38940  0.79100  0.24770  1.0000 0.4336870174
H   H4        1.0  0.61060  0.29100  0.75230  1.0000 0.4336870174
H   H5        1.0  0.17840  0.35210  0.44910  1.0000 0.1407106772
H   H6        1.0  0.82160  0.85210  0.55090  1.0000 0.1407106772
H   H7        1.0  0.82160  0.64790  0.55090  1.0000 0.1407106772
H   H8        1.0  0.17840  0.14790  0.44910  1.0000 0.1407106772
H   H9        1.0  0.16840  0.41680  0.27260  1.0000 0.1407106772
H   H10       1.0  0.83160  0.91680  0.72740  1.0000 0.1407106772
H   H11       1.0  0.83160  0.58320  0.72740  1.0000 0.1407106772
H   H12       1.0  0.16840  0.08320  0.27260  1.0000 0.1407106772
H   H13       1.0  0.24520  0.59420  0.48040  1.0000 0.1407106772
H   H14       1.0  0.75480  0.09420  0.51960  1.0000 0.1407106772
H   H15       1.0  0.75480  0.40580  0.51960  1.0000 0.1407106772
H   H16       1.0  0.24520  0.90580  0.48040  1.0000 0.1407106772
H   H17       1.0  0.25570  0.52910  0.65800  1.0000 0.1407106772
H   H18       1.0  0.74430  0.02910  0.34200  1.0000 0.1407106772
H   H19       1.0  0.74430  0.47090  0.34200  1.0000 0.1407106772
H   H20       1.0  0.25570  0.97090  0.65800  1.0000 0.1407106772
C   C1        1.0  0.22020  0.43397  0.57150  1.0000 -0.1037038647
C   C2        1.0  0.77980  0.93397  0.42850  1.0000 -0.1037038647
C   C3        1.0  0.77980  0.56603  0.42850  1.0000 -0.1037038647
C   C4        1.0  0.22020  0.06603  0.57150  1.0000 -0.1037038647
C   C5        1.0  0.19310  0.40130  0.45580  1.0000 -0.0518720338
C   C6        1.0  0.80690  0.90130  0.54420  1.0000 -0.0518720338
C   C7        1.0  0.80690  0.59870  0.54420  1.0000 -0.0518720338
C   C8        1.0  0.19310  0.09870  0.45580  1.0000 -0.0518720338
C   C9        1.0  0.18730  0.43960  0.35100  1.0000 -0.0518720338
C   C10       1.0  0.81270  0.93960  0.64900  1.0000 -0.0518720338
C   C11       1.0  0.81270  0.56040  0.64900  1.0000 -0.0518720338
C   C12       1.0  0.18730  0.06040  0.35100  1.0000 -0.0518720338
C   C13       1.0  0.20920  0.51216  0.35980  1.0000 -0.1146398027
C   C14       1.0  0.79080  0.01216  0.64020  1.0000 -0.1159688298
C   C15       1.0  0.79080  0.48784  0.64020  1.0000 -0.1159688298
C   C16       1.0  0.20920  0.98784  0.35980  1.0000 -0.1146398027
C   C17       1.0  0.23290  0.54500  0.47420  1.0000 -0.0518720338
C   C18       1.0  0.76710  0.04500  0.52580  1.0000 -0.0518720338
C   C19       1.0  0.76710  0.45500  0.52580  1.0000 -0.0518720338
C   C20       1.0  0.23290  0.95500  0.47420  1.0000 -0.0518720338
C   C21       1.0  0.23890  0.50620  0.58000  1.0000 -0.0403820694
C   C22       1.0  0.76110  0.00620  0.42000  1.0000 -0.0403820694
C   C23       1.0  0.76110  0.49380  0.42000  1.0000 -0.0403820694
C   C24       1.0  0.23890  0.99380  0.58000  1.0000 -0.0403820694
O   O1        1.0  0.80230  0.25000  0.55570  1.0000 -0.6600549509
O   O2        1.0  0.19770  0.75000  0.44430  1.0000 -0.6600549509
O   O3        1.0  0.04190  0.25000  0.88310  1.0000 -0.6077044596
O   O4        1.0  0.95810  0.75000  0.11690  1.0000 -0.6077044596
O   O5        1.0  0.19380  0.57348  0.90360  1.0000 -0.6298196454
O   O6        1.0  0.80620  0.07348  0.09640  1.0000 -0.6298196454
O   O7        1.0  0.80620  0.42652  0.09640  1.0000 -0.6298196454
O   O8        1.0  0.19380  0.92652  0.90360  1.0000 -0.6298196454
O   O9        1.0  0.26530  0.41204  0.06780  1.0000 -0.6298196454
O   O10       1.0  0.73470  0.91204  0.93220  1.0000 -0.6298196454
O   O11       1.0  0.73470  0.58796  0.93220  1.0000 -0.6298196454
O   O12       1.0  0.26530  0.08796  0.06780  1.0000 -0.6298196454
O   O13       1.0  0.64750  0.25000  0.75700  1.0000 -0.7527105202
O   O14       1.0  0.35250  0.75000  0.24300  1.0000 -0.7527105202
O   O15       1.0  0.11540  0.32404  0.67570  1.0000 -0.786281376
O   O16       1.0  0.88460  0.82404  0.32430  1.0000 -0.7814846227
O   O17       1.0  0.88460  0.67596  0.32430  1.0000 -0.7814846227
O   O18       1.0  0.11540  0.17596  0.67570  1.0000 -0.786281376
O   O19       1.0  0.21050  0.43581  0.80350  1.0000 -0.8047879328
O   O20       1.0  0.78950  0.93581  0.19650  1.0000 -0.8047879328
O   O21       1.0  0.78950  0.56419  0.19650  1.0000 -0.8047879328
O   O22       1.0  0.21050  0.06419  0.80350  1.0000 -0.8047879328
O   O23       1.0  0.41840  0.35537  0.76310  1.0000 -0.6298196454
O   O24       1.0  0.58160  0.85537  0.23690  1.0000 -0.6298196454
O   O25       1.0  0.58160  0.64463  0.23690  1.0000 -0.6298196454
O   O26       1.0  0.41840  0.14463  0.76310  1.0000 -0.6298196454
O   O27       1.0  0.17410  0.63855  0.25460  1.0000 -0.7814846227
O   O28       1.0  0.82590  0.13855  0.74540  1.0000 -0.7814846227
O   O29       1.0  0.82590  0.36145  0.74540  1.0000 -0.7814846227
O   O30       1.0  0.17410  0.86145  0.25460  1.0000 -0.7814846227
O   O31       1.0  0.05920  0.53312  0.10900  1.0000 -0.8823930611
O   O32       1.0  0.94080  0.03312  0.89100  1.0000 -0.8852622797
O   O33       1.0  0.94080  0.46688  0.89100  1.0000 -0.8852622797
O   O34       1.0  0.05920  0.96688  0.10900  1.0000 -0.8823930611
O   O35       1.0  0.35430  0.55177  0.18750  1.0000 -0.7190349091
O   O36       1.0  0.64570  0.05177  0.81250  1.0000 -0.7190349091
O   O37       1.0  0.64570  0.44823  0.81250  1.0000 -0.7190349091
O   O38       1.0  0.35430  0.94823  0.18750  1.0000 -0.7190349091
F   F1        1.0  0.50000  0.50000  0.00000  1.0000 -0.6210647215
F   F2        1.0  0.50000  0.00000  0.00000  1.0000 -0.6210647215
