# DDEC6 charges by PACMAN v1.1 (https://github.com/mtap-research/PACMAN-charge/)
data_2011[Er][nan]3[FSR]3
_chemical_formula_sum              "Er4 H48 C36 O36"
_cell_length_a       19.7425
_cell_length_b       19.7425
_cell_length_c       6.767
_cell_angle_alpha    89.0797
_cell_angle_beta     90.9203
_cell_angle_gamma    146.95

_symmetry_space_group_name_H-M    "P 1"
_symmetry_Int_Tables_number       1

loop_
  _symmetry_equiv_pos_as_xyz
  'x, y, z'

loop_
  _atom_site_type_symbol
  _atom_site_label
  _atom_site_symmetry_multiplicity
  _atom_site_fract_x
  _atom_site_fract_y
  _atom_site_fract_z
  _atom_site_occupancy
  _atom_site_charge
Er  Er1       1.0  0.33879  0.07975  0.80984  1.0000 2.1092118267
Er  Er2       1.0  0.07975  0.33879  0.69016  1.0000 2.1092118267
Er  Er3       1.0  0.66121  0.92025  0.19016  1.0000 2.1092118267
Er  Er4       1.0  0.92025  0.66121  0.30984  1.0000 2.1092118267
H   H1        1.0  0.20260  0.16680  0.47160  1.0000 0.1323489342
H   H2        1.0  0.16680  0.20260  0.02840  1.0000 0.1323489342
H   H3        1.0  0.79740  0.83320  0.52840  1.0000 0.1323489342
H   H4        1.0  0.83320  0.79740  0.97160  1.0000 0.1323489342
H   H5        1.0  0.98740  0.92500  0.59490  1.0000 0.1127590208
H   H6        1.0  0.92500  0.98740  0.90510  1.0000 0.1127590208
H   H7        1.0  0.01260  0.07500  0.40510  1.0000 0.1127590208
H   H8        1.0  0.07500  0.01260  0.09490  1.0000 0.1127590208
H   H9        1.0  0.18450  0.75170  0.48510  1.0000 0.1410763953
H   H10       1.0  0.75170  0.18450  0.01490  1.0000 0.1410763953
H   H11       1.0  0.81550  0.24830  0.51490  1.0000 0.1410763953
H   H12       1.0  0.24830  0.81550  0.98510  1.0000 0.1410763953
H   H13       1.0  0.41310  0.98690  0.62900  1.0000 0.1127590208
H   H14       1.0  0.98690  0.41310  0.87100  1.0000 0.1127590208
H   H15       1.0  0.58690  0.01310  0.37100  1.0000 0.1127590208
H   H16       1.0  0.01310  0.58690  0.12900  1.0000 0.1127590208
H   H17       1.0  0.31860  0.77240  0.61960  1.0000 0.1127590208
H   H18       1.0  0.77240  0.31860  0.88040  1.0000 0.1127590208
H   H19       1.0  0.68140  0.22760  0.38040  1.0000 0.1127590208
H   H20       1.0  0.22760  0.68140  0.11960  1.0000 0.1127590208
H   H21       1.0  0.51900  0.98900  0.82790  1.0000 0.1410763953
H   H22       1.0  0.98900  0.51900  0.67210  1.0000 0.1410763953
H   H23       1.0  0.48100  0.01100  0.17210  1.0000 0.1410763953
H   H24       1.0  0.01100  0.48100  0.32790  1.0000 0.1410763953
H   H25       1.0  0.61500  0.28900  0.67600  1.0000 0.4132530335
H   H26       1.0  0.28900  0.61500  0.82400  1.0000 0.4132530335
H   H27       1.0  0.38500  0.71100  0.32400  1.0000 0.4132530335
H   H28       1.0  0.71100  0.38500  0.17600  1.0000 0.4132530335
H   H29       1.0  0.51100  0.19700  0.50200  1.0000 0.3945184592
H   H30       1.0  0.19700  0.51100  0.99800  1.0000 0.3945184592
H   H31       1.0  0.48900  0.80300  0.49800  1.0000 0.3945184592
H   H32       1.0  0.80300  0.48900  0.00200  1.0000 0.3945184592
H   H33       1.0  0.46030  0.28570  0.06500  1.0000 0.4005658012
H   H34       1.0  0.28570  0.46030  0.43500  1.0000 0.4005658012
H   H35       1.0  0.53970  0.71430  0.93500  1.0000 0.4005658012
H   H36       1.0  0.71430  0.53970  0.56500  1.0000 0.4005658012
H   H37       1.0  0.54200  0.35200  0.88400  1.0000 0.4293470625
H   H38       1.0  0.35200  0.54200  0.61600  1.0000 0.4293470625
H   H39       1.0  0.45800  0.64800  0.11600  1.0000 0.4293470625
H   H40       1.0  0.64800  0.45800  0.38400  1.0000 0.4293470625
H   H41       1.0  0.26300  0.02100  0.24700  1.0000 0.4132530335
H   H42       1.0  0.02100  0.26300  0.25300  1.0000 0.4132530335
H   H43       1.0  0.73700  0.97900  0.75300  1.0000 0.4132530335
H   H44       1.0  0.97900  0.73700  0.74700  1.0000 0.4132530335
H   H45       1.0  0.27120  0.10680  0.14700  1.0000 0.4005658012
H   H46       1.0  0.10680  0.27120  0.35300  1.0000 0.4005658012
H   H47       1.0  0.72880  0.89320  0.85300  1.0000 0.4005658012
H   H48       1.0  0.89320  0.72880  0.64700  1.0000 0.4005658012
C   C1        1.0  0.21932  0.08908  0.62760  1.0000 0.6082561258
C   C2        1.0  0.08908  0.21932  0.87240  1.0000 0.6082561258
C   C3        1.0  0.78068  0.91092  0.37240  1.0000 0.6082561258
C   C4        1.0  0.91092  0.78068  0.12760  1.0000 0.6082561258
C   C5        1.0  0.15538  0.09402  0.53490  1.0000 -0.2336828317
C   C6        1.0  0.09402  0.15538  0.96510  1.0000 -0.2336828317
C   C7        1.0  0.84462  0.90598  0.46510  1.0000 -0.2336828317
C   C8        1.0  0.90598  0.84462  0.03490  1.0000 -0.2336828317
C   C9        1.0  0.03361  0.99879  0.53880  1.0000 -0.0502210483
C   C10       1.0  0.99879  0.03361  0.96120  1.0000 -0.0502210483
C   C11       1.0  0.96639  0.00121  0.46120  1.0000 -0.0502210483
C   C12       1.0  0.00121  0.96639  0.03880  1.0000 -0.0502210483
C   C13       1.0  0.22318  0.88802  0.46230  1.0000 0.6938888673
C   C14       1.0  0.88802  0.22318  0.03770  1.0000 0.6938888673
C   C15       1.0  0.77682  0.11198  0.53770  1.0000 0.6938888673
C   C16       1.0  0.11198  0.77682  0.96230  1.0000 0.6938888673
C   C17       1.0  0.24500  0.83440  0.51460  1.0000 -0.2629112061
C   C18       1.0  0.83440  0.24500  0.98540  1.0000 -0.2629112061
C   C19       1.0  0.75500  0.16560  0.48540  1.0000 -0.2629112061
C   C20       1.0  0.16560  0.75500  0.01460  1.0000 -0.2629112061
C   C21       1.0  0.35145  0.90335  0.60470  1.0000 -0.0586473234
C   C22       1.0  0.90335  0.35145  0.89530  1.0000 -0.0586473234
C   C23       1.0  0.64855  0.09665  0.39530  1.0000 -0.0586473234
C   C24       1.0  0.09665  0.64855  0.10470  1.0000 -0.0586473234
C   C25       1.0  0.37262  0.85078  0.66470  1.0000 -0.0586473234
C   C26       1.0  0.85078  0.37262  0.83530  1.0000 -0.0586473234
C   C27       1.0  0.62738  0.14922  0.33530  1.0000 -0.0586473234
C   C28       1.0  0.14922  0.62738  0.16470  1.0000 -0.0586473234
C   C29       1.0  0.46642  0.91118  0.78170  1.0000 -0.2521987837
C   C30       1.0  0.91118  0.46642  0.71830  1.0000 -0.2521987837
C   C31       1.0  0.53358  0.08882  0.21830  1.0000 -0.2521987837
C   C32       1.0  0.08882  0.53358  0.28170  1.0000 -0.2521987837
C   C33       1.0  0.49202  0.86138  0.84280  1.0000 0.6560988668
C   C34       1.0  0.86138  0.49202  0.65720  1.0000 0.6560988668
C   C35       1.0  0.50798  0.13862  0.15720  1.0000 0.6560988668
C   C36       1.0  0.13862  0.50798  0.34280  1.0000 0.6560988668
O   O1        1.0  0.15888  0.99412  0.72270  1.0000 -0.5985421147
O   O2        1.0  0.99412  0.15888  0.77730  1.0000 -0.5985421147
O   O3        1.0  0.84112  0.00588  0.27730  1.0000 -0.5985421147
O   O4        1.0  0.00588  0.84112  0.22270  1.0000 -0.5985421147
O   O5        1.0  0.33505  0.17975  0.61360  1.0000 -0.6507731434
O   O6        1.0  0.17975  0.33505  0.88640  1.0000 -0.6507731434
O   O7        1.0  0.66495  0.82025  0.38640  1.0000 -0.6507731434
O   O8        1.0  0.82025  0.66495  0.11360  1.0000 -0.6507731434
O   O9        1.0  0.29970  0.99750  0.51100  1.0000 -0.6855037715
O   O10       1.0  0.99750  0.29970  0.98900  1.0000 -0.6855037715
O   O11       1.0  0.70030  0.00250  0.48900  1.0000 -0.6855037715
O   O12       1.0  0.00250  0.70030  0.01100  1.0000 -0.6855037715
O   O13       1.0  0.12540  0.81840  0.37020  1.0000 -0.640479302
O   O14       1.0  0.81840  0.12540  0.12980  1.0000 -0.640479302
O   O15       1.0  0.87460  0.18160  0.62980  1.0000 -0.640479302
O   O16       1.0  0.18160  0.87460  0.87020  1.0000 -0.640479302
O   O17       1.0  0.56448  0.91572  0.99080  1.0000 -0.6855037715
O   O18       1.0  0.91572  0.56448  0.50920  1.0000 -0.6855037715
O   O19       1.0  0.43552  0.08428  0.00920  1.0000 -0.6855037715
O   O20       1.0  0.08428  0.43552  0.49080  1.0000 -0.6855037715
O   O21       1.0  0.44022  0.77038  0.75720  1.0000 -0.5344261881
O   O22       1.0  0.77038  0.44022  0.74280  1.0000 -0.5344261881
O   O23       1.0  0.55978  0.22962  0.24280  1.0000 -0.5344261881
O   O24       1.0  0.22962  0.55978  0.25720  1.0000 -0.5344261881
O   O25       1.0  0.52631  0.22229  0.64020  1.0000 -0.8803699967
O   O26       1.0  0.22229  0.52631  0.85980  1.0000 -0.8803699967
O   O27       1.0  0.47369  0.77771  0.35980  1.0000 -0.8803699967
O   O28       1.0  0.77771  0.47369  0.14020  1.0000 -0.8803699967
O   O29       1.0  0.48597  0.27423  0.96120  1.0000 -0.8399154302
O   O30       1.0  0.27423  0.48597  0.53880  1.0000 -0.8399154302
O   O31       1.0  0.51403  0.72577  0.03880  1.0000 -0.8399154302
O   O32       1.0  0.72577  0.51403  0.46120  1.0000 -0.8399154302
O   O33       1.0  0.25867  0.04733  0.12590  1.0000 -0.8399154302
O   O34       1.0  0.04733  0.25867  0.37410  1.0000 -0.8399154302
O   O35       1.0  0.74133  0.95267  0.87410  1.0000 -0.8399154302
O   O36       1.0  0.95267  0.74133  0.62590  1.0000 -0.8399154302
