# DDEC6 charges by PACMAN v1.1 (https://github.com/mtap-research/PACMAN-charge/)
data_2011[Gd][nan]3[FSR]6
_chemical_formula_sum              "Gd4 H36 C44 O28"
_cell_length_a       10.3197
_cell_length_b       10.3197
_cell_length_c       14.0444
_cell_angle_alpha    90
_cell_angle_beta     90
_cell_angle_gamma    90

_symmetry_space_group_name_H-M    "P 1"
_symmetry_Int_Tables_number       1

loop_
  _symmetry_equiv_pos_as_xyz
  'x, y, z'

loop_
  _atom_site_type_symbol
  _atom_site_label
  _atom_site_symmetry_multiplicity
  _atom_site_fract_x
  _atom_site_fract_y
  _atom_site_fract_z
  _atom_site_occupancy
  _atom_site_charge
Gd  Gd1       1.0  0.86321  0.12896  0.08374  1.0000 2.0410197242
Gd  Gd2       1.0  0.13679  0.87104  0.58374  1.0000 2.0410197242
Gd  Gd3       1.0  0.87104  0.86321  0.33374  1.0000 2.0410197242
Gd  Gd4       1.0  0.12896  0.13679  0.83374  1.0000 2.0410197242
H   H1        1.0  0.69480  0.23480  0.21640  1.0000 0.3517045542
H   H2        1.0  0.30520  0.76520  0.71640  1.0000 0.3517045542
H   H3        1.0  0.76520  0.69480  0.46640  1.0000 0.3517045542
H   H4        1.0  0.23480  0.30520  0.96640  1.0000 0.3517045542
H   H5        1.0  0.00600  0.54560  0.80010  1.0000 0.1322918893
H   H6        1.0  0.99400  0.45440  0.30010  1.0000 0.1322918893
H   H7        1.0  0.45440  0.00600  0.05010  1.0000 0.1322918893
H   H8        1.0  0.54560  0.99400  0.55010  1.0000 0.1322918893
H   H9        1.0  0.99160  0.88380  0.95060  1.0000 0.1322918893
H   H10       1.0  0.00840  0.11620  0.45060  1.0000 0.1322918893
H   H11       1.0  0.11620  0.99160  0.20060  1.0000 0.1322918893
H   H12       1.0  0.88380  0.00840  0.70060  1.0000 0.1322918893
H   H13       1.0  0.90480  0.54760  0.07830  1.0000 0.1322918893
H   H14       1.0  0.09520  0.45240  0.57830  1.0000 0.1322918893
H   H15       1.0  0.45240  0.90480  0.32830  1.0000 0.1322918893
H   H16       1.0  0.54760  0.09520  0.82830  1.0000 0.1322918893
H   H17       1.0  0.80900  0.43800  0.18450  1.0000 0.0856238096
H   H18       1.0  0.19100  0.56200  0.68450  1.0000 0.0856238096
H   H19       1.0  0.56200  0.80900  0.43450  1.0000 0.0856238096
H   H20       1.0  0.43800  0.19100  0.93450  1.0000 0.0856238096
H   H21       1.0  0.69350  0.41760  0.25910  1.0000 0.0835375669
H   H22       1.0  0.30650  0.58240  0.75910  1.0000 0.0835375669
H   H23       1.0  0.58240  0.69350  0.50910  1.0000 0.0835375669
H   H24       1.0  0.41760  0.30650  0.00910  1.0000 0.0835375669
H   H25       1.0  0.63770  0.57930  0.15520  1.0000 0.1399063314
H   H26       1.0  0.36230  0.42070  0.65520  1.0000 0.1399063314
H   H27       1.0  0.42070  0.63770  0.40520  1.0000 0.1399063314
H   H28       1.0  0.57930  0.36230  0.90520  1.0000 0.1399063314
H   H29       1.0  0.54430  0.45800  0.13720  1.0000 0.1322918893
H   H30       1.0  0.45570  0.54200  0.63720  1.0000 0.1322918893
H   H31       1.0  0.54200  0.54430  0.38720  1.0000 0.1322918893
H   H32       1.0  0.45800  0.45570  0.88720  1.0000 0.1322918893
H   H33       1.0  0.66230  0.48580  0.06610  1.0000 0.1399063314
H   H34       1.0  0.33770  0.51420  0.56610  1.0000 0.1399063314
H   H35       1.0  0.51420  0.66230  0.31610  1.0000 0.1399063314
H   H36       1.0  0.48580  0.33770  0.81610  1.0000 0.1399063314
C   C1        1.0  0.95520  0.37740  0.94150  1.0000 0.6318370565
C   C2        1.0  0.04480  0.62260  0.44150  1.0000 0.6318370565
C   C3        1.0  0.62260  0.95520  0.19150  1.0000 0.6318370565
C   C4        1.0  0.37740  0.04480  0.69150  1.0000 0.6318370565
C   C5        1.0  0.04170  0.79980  0.77230  1.0000 0.593254508
C   C6        1.0  0.95830  0.20020  0.27230  1.0000 0.593254508
C   C7        1.0  0.20020  0.04170  0.02230  1.0000 0.593254508
C   C8        1.0  0.79980  0.95830  0.52230  1.0000 0.593254508
C   C9        1.0  0.92280  0.79870  0.11670  1.0000 0.6318370565
C   C10       1.0  0.07720  0.20130  0.61670  1.0000 0.6318370565
C   C11       1.0  0.20130  0.92280  0.36670  1.0000 0.6318370565
C   C12       1.0  0.79870  0.07720  0.86670  1.0000 0.6318370565
C   C13       1.0  0.95600  0.52500  0.94090  1.0000 -0.0285272621
C   C14       1.0  0.04400  0.47500  0.44090  1.0000 -0.0285272621
C   C15       1.0  0.47500  0.95600  0.19090  1.0000 -0.0285272621
C   C16       1.0  0.52500  0.04400  0.69090  1.0000 -0.0285272621
C   C17       1.0  0.99110  0.59190  0.85750  1.0000 -0.0985625
C   C18       1.0  0.00890  0.40810  0.35750  1.0000 -0.0985625
C   C19       1.0  0.40810  0.99110  0.10750  1.0000 -0.0985625
C   C20       1.0  0.59190  0.00890  0.60750  1.0000 -0.0985625
C   C21       1.0  0.00420  0.72770  0.85940  1.0000 -0.0285272621
C   C22       1.0  0.99580  0.27230  0.35940  1.0000 -0.0285272621
C   C23       1.0  0.27230  0.00420  0.10940  1.0000 -0.0285272621
C   C24       1.0  0.72770  0.99580  0.60940  1.0000 -0.0285272621
C   C25       1.0  0.98160  0.79240  0.94730  1.0000 -0.0985625
C   C26       1.0  0.01840  0.20760  0.44730  1.0000 -0.0985625
C   C27       1.0  0.20760  0.98160  0.19730  1.0000 -0.0985625
C   C28       1.0  0.79240  0.01840  0.69730  1.0000 -0.0985625
C   C29       1.0  0.94630  0.72660  0.02590  1.0000 -0.0285272621
C   C30       1.0  0.05370  0.27340  0.52590  1.0000 -0.0285272621
C   C31       1.0  0.27340  0.94630  0.27590  1.0000 -0.0285272621
C   C32       1.0  0.72660  0.05370  0.77590  1.0000 -0.0285272621
C   C33       1.0  0.93180  0.59270  0.02280  1.0000 -0.1068762378
C   C34       1.0  0.06820  0.40730  0.52280  1.0000 -0.1068762378
C   C35       1.0  0.40730  0.93180  0.27280  1.0000 -0.1068762378
C   C36       1.0  0.59270  0.06820  0.77280  1.0000 -0.1068762378
C   C37       1.0  0.71840  0.40810  0.19140  1.0000 0.0637422442
C   C38       1.0  0.28160  0.59190  0.69140  1.0000 0.0637422442
C   C39       1.0  0.59190  0.71840  0.44140  1.0000 0.0637422442
C   C40       1.0  0.40810  0.28160  0.94140  1.0000 0.0637422442
C   C41       1.0  0.63360  0.48950  0.13260  1.0000 -0.427700086
C   C42       1.0  0.36640  0.51050  0.63260  1.0000 -0.427700086
C   C43       1.0  0.51050  0.63360  0.38260  1.0000 -0.427700086
C   C44       1.0  0.48950  0.36640  0.88260  1.0000 -0.427700086
O   O1        1.0  0.89290  0.32500  0.00590  1.0000 -0.6252009408
O   O2        1.0  0.10710  0.67500  0.50590  1.0000 -0.6246662871
O   O3        1.0  0.67500  0.89290  0.25590  1.0000 -0.6246662871
O   O4        1.0  0.32500  0.10710  0.75590  1.0000 -0.6252009408
O   O5        1.0  0.02090  0.32600  0.87620  1.0000 -0.6590080992
O   O6        1.0  0.97910  0.67400  0.37620  1.0000 -0.6590080992
O   O7        1.0  0.67400  0.02090  0.12620  1.0000 -0.6590080992
O   O8        1.0  0.32600  0.97910  0.62620  1.0000 -0.6590080992
O   O9        1.0  0.00820  0.74800  0.69100  1.0000 -0.6590080992
O   O10       1.0  0.99180  0.25200  0.19100  1.0000 -0.6590080992
O   O11       1.0  0.25200  0.00820  0.94100  1.0000 -0.6590080992
O   O12       1.0  0.74800  0.99180  0.44100  1.0000 -0.6590080992
O   O13       1.0  0.10480  0.90570  0.77550  1.0000 -0.7066010819
O   O14       1.0  0.89520  0.09430  0.27550  1.0000 -0.7066010819
O   O15       1.0  0.09430  0.10480  0.02550  1.0000 -0.7066010819
O   O16       1.0  0.90570  0.89520  0.52550  1.0000 -0.7066010819
O   O17       1.0  0.92800  0.92110  0.11490  1.0000 -0.7039963887
O   O18       1.0  0.07200  0.07890  0.61490  1.0000 -0.7039963887
O   O19       1.0  0.07890  0.92800  0.36490  1.0000 -0.7039963887
O   O20       1.0  0.92110  0.07200  0.86490  1.0000 -0.7039963887
O   O21       1.0  0.90710  0.73820  0.19240  1.0000 -0.5965130464
O   O22       1.0  0.09290  0.26180  0.69240  1.0000 -0.5965130464
O   O23       1.0  0.26180  0.90710  0.44240  1.0000 -0.5965130464
O   O24       1.0  0.73820  0.09290  0.94240  1.0000 -0.5965130464
O   O25       1.0  0.71050  0.27280  0.16480  1.0000 -0.5241933004
O   O26       1.0  0.28950  0.72720  0.66480  1.0000 -0.5241933004
O   O27       1.0  0.72720  0.71050  0.41480  1.0000 -0.5241933004
O   O28       1.0  0.27280  0.28950  0.91480  1.0000 -0.5241933004
