# DDEC6 charges by PACMAN v1.1 (https://github.com/mtap-research/PACMAN-charge/)
data_2011[Zn][nan]3[FSR]15
_chemical_formula_sum              "Zn4 H68 C92 N24 O16"
_cell_length_a       10.836
_cell_length_b       14.962
_cell_length_c       14.967
_cell_angle_alpha    90
_cell_angle_beta     92.494
_cell_angle_gamma    90

_symmetry_space_group_name_H-M    "P 1"
_symmetry_Int_Tables_number       1

loop_
  _symmetry_equiv_pos_as_xyz
  'x, y, z'

loop_
  _atom_site_type_symbol
  _atom_site_label
  _atom_site_symmetry_multiplicity
  _atom_site_fract_x
  _atom_site_fract_y
  _atom_site_fract_z
  _atom_site_occupancy
  _atom_site_charge
Zn  Zn1       1.0  0.42952  0.65761  0.12123  1.0000 0.78381187
Zn  Zn2       1.0  0.07048  0.15761  0.87877  1.0000 0.78381187
Zn  Zn3       1.0  0.57048  0.34239  0.87877  1.0000 0.78381187
Zn  Zn4       1.0  0.92952  0.84239  0.12123  1.0000 0.78381187
H   H1        1.0  0.25150  0.58980  0.26590  1.0000 0.119234324
H   H2        1.0  0.24850  0.08980  0.73410  1.0000 0.119234324
H   H3        1.0  0.74850  0.41020  0.73410  1.0000 0.119234324
H   H4        1.0  0.75150  0.91020  0.26590  1.0000 0.119234324
H   H5        1.0  0.47160  0.79050  0.29760  1.0000 0.1298158555
H   H6        1.0  0.02840  0.29050  0.70240  1.0000 0.1298158555
H   H7        1.0  0.52840  0.20950  0.70240  1.0000 0.1298158555
H   H8        1.0  0.97160  0.70950  0.29760  1.0000 0.1298158555
H   H9        1.0  0.43010  0.82580  0.46610  1.0000 0.1298158555
H   H10       1.0  0.06990  0.32580  0.53390  1.0000 0.1298158555
H   H11       1.0  0.56990  0.17420  0.53390  1.0000 0.1298158555
H   H12       1.0  0.93010  0.67420  0.46610  1.0000 0.1298158555
H   H13       1.0  0.36340  0.74780  0.51430  1.0000 0.1298158555
H   H14       1.0  0.13660  0.24780  0.48570  1.0000 0.1298158555
H   H15       1.0  0.63660  0.25220  0.48570  1.0000 0.1298158555
H   H16       1.0  0.86340  0.75220  0.51430  1.0000 0.1298158555
H   H17       1.0  0.21010  0.86940  0.34460  1.0000 0.1103030713
H   H18       1.0  0.28990  0.36940  0.65540  1.0000 0.1103030713
H   H19       1.0  0.78990  0.13060  0.65540  1.0000 0.1103030713
H   H20       1.0  0.71010  0.63060  0.34460  1.0000 0.1103030713
H   H21       1.0  0.04710  0.96450  0.36030  1.0000 0.1103030713
H   H22       1.0  0.45290  0.46450  0.63970  1.0000 0.1103030713
H   H23       1.0  0.95290  0.03550  0.63970  1.0000 0.1103030713
H   H24       1.0  0.54710  0.53550  0.36030  1.0000 0.1103030713
H   H25       1.0  0.08260  0.93720  0.62380  1.0000 0.119234324
H   H26       1.0  0.41740  0.43720  0.37620  1.0000 0.119234324
H   H27       1.0  0.91740  0.06280  0.37620  1.0000 0.119234324
H   H28       1.0  0.58260  0.56280  0.62380  1.0000 0.119234324
H   H29       1.0  0.24030  0.83730  0.60460  1.0000 0.1298158555
H   H30       1.0  0.25970  0.33730  0.39540  1.0000 0.1298158555
H   H31       1.0  0.75970  0.16270  0.39540  1.0000 0.1298158555
H   H32       1.0  0.74030  0.66270  0.60460  1.0000 0.1298158555
H   H33       1.0  0.83560  0.40970  0.49490  1.0000 0.1103030713
H   H34       1.0  0.66440  0.90970  0.50510  1.0000 0.1103030713
H   H35       1.0  0.16440  0.59030  0.50510  1.0000 0.1103030713
H   H36       1.0  0.33560  0.09030  0.49490  1.0000 0.1103030713
H   H37       1.0  0.75610  0.37180  0.35570  1.0000 0.119234324
H   H38       1.0  0.74390  0.87180  0.64430  1.0000 0.119234324
H   H39       1.0  0.24390  0.62820  0.64430  1.0000 0.119234324
H   H40       1.0  0.25610  0.12820  0.35570  1.0000 0.119234324
H   H41       1.0  0.02450  0.50280  0.24380  1.0000 0.1298158555
H   H42       1.0  0.47550  0.00280  0.75620  1.0000 0.1298158555
H   H43       1.0  0.97550  0.49720  0.75620  1.0000 0.1298158555
H   H44       1.0  0.52450  0.99720  0.24380  1.0000 0.1298158555
H   H45       1.0  0.10480  0.54300  0.38460  1.0000 0.1103030713
H   H46       1.0  0.39520  0.04300  0.61540  1.0000 0.1103030713
H   H47       1.0  0.89520  0.45700  0.61540  1.0000 0.1103030713
H   H48       1.0  0.60480  0.95700  0.38460  1.0000 0.1103030713
H   H49       1.0  0.87990  0.41310  0.14840  1.0000 0.1298158555
H   H50       1.0  0.62010  0.91310  0.85160  1.0000 0.1298158555
H   H51       1.0  0.12010  0.58690  0.85160  1.0000 0.1298158555
H   H52       1.0  0.37990  0.08690  0.14840  1.0000 0.1298158555
H   H53       1.0  0.76760  0.36590  0.19220  1.0000 0.1298158555
H   H54       1.0  0.73240  0.86590  0.80780  1.0000 0.1298158555
H   H55       1.0  0.23240  0.63410  0.80780  1.0000 0.1298158555
H   H56       1.0  0.26760  0.13410  0.19220  1.0000 0.1298158555
H   H57       1.0  0.56500  0.45610  0.14210  1.0000 0.1399399283
H   H58       1.0  0.93500  0.95610  0.85790  1.0000 0.1399399283
H   H59       1.0  0.43500  0.54390  0.85790  1.0000 0.1399399283
H   H60       1.0  0.06500  0.04390  0.14210  1.0000 0.1399399283
H   H61       1.0  0.70200  0.69490  0.14590  1.0000 0.119234324
H   H62       1.0  0.79800  0.19490  0.85410  1.0000 0.119234324
H   H63       1.0  0.29800  0.30510  0.85410  1.0000 0.119234324
H   H64       1.0  0.20200  0.80510  0.14590  1.0000 0.119234324
H   H65       1.0  0.34570  0.89460  0.98510  1.0000 0.1298158555
H   H66       1.0  0.15430  0.39460  0.01490  1.0000 0.1298158555
H   H67       1.0  0.65430  0.10540  0.01490  1.0000 0.1298158555
H   H68       1.0  0.84570  0.60540  0.98510  1.0000 0.1298158555
C   C1        1.0  0.29470  0.63770  0.29160  1.0000 0.1733679054
C   C2        1.0  0.20530  0.13770  0.70840  1.0000 0.1733679054
C   C3        1.0  0.70530  0.36230  0.70840  1.0000 0.1733679054
C   C4        1.0  0.79470  0.86230  0.29160  1.0000 0.1733679054
C   C5        1.0  0.41410  0.74570  0.30700  1.0000 0.0973270303
C   C6        1.0  0.08590  0.24570  0.69300  1.0000 0.0973270303
C   C7        1.0  0.58590  0.25430  0.69300  1.0000 0.0973270303
C   C8        1.0  0.91410  0.75430  0.30700  1.0000 0.0973270303
C   C9        1.0  0.35700  0.78830  0.46370  1.0000 -0.1967772516
C   C10       1.0  0.14300  0.28830  0.53630  1.0000 -0.1967772516
C   C11       1.0  0.64300  0.21170  0.53630  1.0000 -0.1967772516
C   C12       1.0  0.85700  0.71170  0.46370  1.0000 -0.1967772516
C   C13       1.0  0.24540  0.84660  0.47320  1.0000 0.0916986326
C   C14       1.0  0.25460  0.34660  0.52680  1.0000 0.0916986326
C   C15       1.0  0.75460  0.15340  0.52680  1.0000 0.0916986326
C   C16       1.0  0.74540  0.65340  0.47320  1.0000 0.0916986326
C   C17       1.0  0.18540  0.88350  0.40170  1.0000 -0.1493287774
C   C18       1.0  0.31460  0.38350  0.59830  1.0000 -0.1493287774
C   C19       1.0  0.81460  0.11650  0.59830  1.0000 -0.1493287774
C   C20       1.0  0.68540  0.61650  0.40170  1.0000 -0.1493287774
C   C21       1.0  0.08810  0.94170  0.41120  1.0000 -0.1493287774
C   C22       1.0  0.41190  0.44170  0.58880  1.0000 -0.1493287774
C   C23       1.0  0.91190  0.05830  0.58880  1.0000 -0.1493287774
C   C24       1.0  0.58810  0.55830  0.41120  1.0000 -0.1493287774
C   C25       1.0  0.05000  0.96680  0.49440  1.0000 0.0743640987
C   C26       1.0  0.45000  0.46680  0.50560  1.0000 0.0743640987
C   C27       1.0  0.95000  0.03320  0.50560  1.0000 0.0743640987
C   C28       1.0  0.55000  0.53320  0.49440  1.0000 0.0743640987
C   C29       1.0  0.10790  0.92520  0.56640  1.0000 -0.1493287774
C   C30       1.0  0.39210  0.42520  0.43360  1.0000 -0.1493287774
C   C31       1.0  0.89210  0.07480  0.43360  1.0000 -0.1493287774
C   C32       1.0  0.60790  0.57480  0.56640  1.0000 -0.1493287774
C   C33       1.0  0.20370  0.86540  0.55470  1.0000 -0.1493287774
C   C34       1.0  0.29630  0.36540  0.44530  1.0000 -0.1493287774
C   C35       1.0  0.79630  0.13460  0.44530  1.0000 -0.1493287774
C   C36       1.0  0.70370  0.63460  0.55470  1.0000 -0.1493287774
C   C37       1.0  0.97590  0.48470  0.45610  1.0000 0.0575313447
C   C38       1.0  0.52410  0.98470  0.54390  1.0000 0.0575313447
C   C39       1.0  0.02410  0.51530  0.54390  1.0000 0.0575313447
C   C40       1.0  0.47590  0.01530  0.45610  1.0000 0.0575313447
C   C41       1.0  0.87390  0.43110  0.44470  1.0000 -0.1493287774
C   C42       1.0  0.62610  0.93110  0.55530  1.0000 -0.1493287774
C   C43       1.0  0.12610  0.56890  0.55530  1.0000 -0.1493287774
C   C44       1.0  0.37390  0.06890  0.44470  1.0000 -0.1493287774
C   C45       1.0  0.82610  0.40780  0.36020  1.0000 -0.1564247357
C   C46       1.0  0.67390  0.90780  0.63980  1.0000 -0.1564247357
C   C47       1.0  0.17390  0.59220  0.63980  1.0000 -0.1564247357
C   C48       1.0  0.32610  0.09220  0.36020  1.0000 -0.1564247357
C   C49       1.0  0.87740  0.43540  0.28440  1.0000 0.0973270303
C   C50       1.0  0.62260  0.93540  0.71560  1.0000 0.0973270303
C   C51       1.0  0.12260  0.56460  0.71560  1.0000 0.0973270303
C   C52       1.0  0.37740  0.06460  0.28440  1.0000 0.0973270303
C   C53       1.0  0.98390  0.48500  0.29430  1.0000 -0.1387937861
C   C54       1.0  0.51610  0.98500  0.70570  1.0000 -0.1387937861
C   C55       1.0  0.01610  0.51500  0.70570  1.0000 -0.1387937861
C   C56       1.0  0.48390  0.01500  0.29430  1.0000 -0.1387937861
C   C57       1.0  0.03260  0.50940  0.37990  1.0000 -0.1564247357
C   C58       1.0  0.46740  0.00940  0.62010  1.0000 -0.1564247357
C   C59       1.0  0.96740  0.49060  0.62010  1.0000 -0.1564247357
C   C60       1.0  0.53260  0.99060  0.37990  1.0000 -0.1564247357
C   C61       1.0  0.81730  0.41980  0.19230  1.0000 -0.1767057898
C   C62       1.0  0.68270  0.91980  0.80770  1.0000 -0.1767057898
C   C63       1.0  0.18270  0.58020  0.80770  1.0000 -0.1767057898
C   C64       1.0  0.31730  0.08020  0.19230  1.0000 -0.1767057898
C   C65       1.0  0.61920  0.50410  0.14760  1.0000 0.0916986326
C   C66       1.0  0.88080  0.00410  0.85240  1.0000 0.0916986326
C   C67       1.0  0.38080  0.49590  0.85240  1.0000 0.0916986326
C   C68       1.0  0.11920  0.99590  0.14760  1.0000 0.0916986326
C   C69       1.0  0.69590  0.63310  0.15030  1.0000 0.1399399283
C   C70       1.0  0.80410  0.13310  0.84970  1.0000 0.1399399283
C   C71       1.0  0.30410  0.36690  0.84970  1.0000 0.1450696615
C   C72       1.0  0.19590  0.86690  0.15030  1.0000 0.1399399283
C   C73       1.0  0.52420  0.82730  0.08810  1.0000 0.560717049
C   C74       1.0  0.97580  0.32730  0.91190  1.0000 0.560717049
C   C75       1.0  0.47580  0.17270  0.91190  1.0000 0.560717049
C   C76       1.0  0.02420  0.67270  0.08810  1.0000 0.560717049
C   C77       1.0  0.51720  0.91520  0.03640  1.0000 -0.0374358864
C   C78       1.0  0.98280  0.41520  0.96360  1.0000 -0.0374358864
C   C79       1.0  0.48280  0.08480  0.96360  1.0000 -0.0374358864
C   C80       1.0  0.01720  0.58480  0.03640  1.0000 -0.0374358864
C   C81       1.0  0.61120  0.97800  0.04660  1.0000 -0.0268830834
C   C82       1.0  0.88880  0.47800  0.95340  1.0000 -0.0268830834
C   C83       1.0  0.38880  0.02200  0.95340  1.0000 -0.0268830834
C   C84       1.0  0.11120  0.52200  0.04660  1.0000 -0.0268830834
C   C85       1.0  0.40800  0.93710  0.99090  1.0000 -0.1387937861
C   C86       1.0  0.09200  0.43710  0.00910  1.0000 -0.1387937861
C   C87       1.0  0.59200  0.06290  0.00910  1.0000 -0.1387937861
C   C88       1.0  0.90800  0.56290  0.99090  1.0000 -0.1387937861
C   C89       1.0  0.73870  0.95540  0.08510  1.0000 0.560717049
C   C90       1.0  0.76130  0.45540  0.91490  1.0000 0.560717049
C   C91       1.0  0.26130  0.04460  0.91490  1.0000 0.560717049
C   C92       1.0  0.23870  0.54460  0.08510  1.0000 0.560717049
N   N1        1.0  0.37950  0.68280  0.24650  1.0000 -0.3402802693
N   N2        1.0  0.12050  0.18280  0.75350  1.0000 -0.3402802693
N   N3        1.0  0.62050  0.31720  0.75350  1.0000 -0.3402802693
N   N4        1.0  0.87950  0.81720  0.24650  1.0000 -0.3402802693
N   N5        1.0  0.27590  0.66380  0.37200  1.0000 -0.2700697379
N   N6        1.0  0.22410  0.16380  0.62800  1.0000 -0.2700697379
N   N7        1.0  0.72410  0.33620  0.62800  1.0000 -0.2700697379
N   N8        1.0  0.77590  0.83620  0.37200  1.0000 -0.2700697379
N   N9        1.0  0.35580  0.73510  0.38040  1.0000 0.1626200406
N   N10       1.0  0.14420  0.23510  0.61960  1.0000 0.1626200406
N   N11       1.0  0.64420  0.26490  0.61960  1.0000 0.1626200406
N   N12       1.0  0.85580  0.76490  0.38040  1.0000 0.1626200406
N   N13       1.0  0.58850  0.58900  0.13380  1.0000 -0.3238628627
N   N14       1.0  0.91150  0.08900  0.86620  1.0000 -0.3238628627
N   N15       1.0  0.41150  0.41100  0.86620  1.0000 -0.3238628627
N   N16       1.0  0.08850  0.91100  0.13380  1.0000 -0.3238628627
N   N17       1.0  0.79110  0.58200  0.17290  1.0000 -0.2539910348
N   N18       1.0  0.70890  0.08200  0.82710  1.0000 -0.2539910348
N   N19       1.0  0.20890  0.41800  0.82710  1.0000 -0.2539910348
N   N20       1.0  0.29110  0.91800  0.17290  1.0000 -0.2539910348
N   N21       1.0  0.73920  0.49770  0.17050  1.0000 0.1626200406
N   N22       1.0  0.76080  0.99770  0.82950  1.0000 0.1626200406
N   N23       1.0  0.26080  0.50230  0.82950  1.0000 0.1626200406
N   N24       1.0  0.23920  0.00230  0.17050  1.0000 0.1626200406
O   O1        1.0  0.46300  0.76220  0.04900  1.0000 -0.5581144066
O   O2        1.0  0.03700  0.26220  0.95100  1.0000 -0.5581144066
O   O3        1.0  0.53700  0.23780  0.95100  1.0000 -0.5581144066
O   O4        1.0  0.96300  0.73780  0.04900  1.0000 -0.5581144066
O   O5        1.0  0.57700  0.82300  0.16070  1.0000 -0.5328752669
O   O6        1.0  0.92300  0.32300  0.83930  1.0000 -0.5328752669
O   O7        1.0  0.42300  0.17700  0.83930  1.0000 -0.5328752669
O   O8        1.0  0.07700  0.67700  0.16070  1.0000 -0.5328752669
O   O9        1.0  0.78530  0.88480  0.05370  1.0000 -0.5394485118
O   O10       1.0  0.71470  0.38480  0.94630  1.0000 -0.5394485118
O   O11       1.0  0.21470  0.11520  0.94630  1.0000 -0.5394485118
O   O12       1.0  0.28530  0.61520  0.05370  1.0000 -0.5394485118
O   O13       1.0  0.78880  0.00480  0.14080  1.0000 -0.5581144066
O   O14       1.0  0.71120  0.50480  0.85920  1.0000 -0.5581144066
O   O15       1.0  0.21120  0.99520  0.85920  1.0000 -0.5581144066
O   O16       1.0  0.28880  0.49520  0.14080  1.0000 -0.5581144066
