# DDEC6 charges by PACMAN v1.1 (https://github.com/mtap-research/PACMAN-charge/)
data_2011[LaMg][nan]3[FSR]1
_chemical_formula_sum              "La4 Mg6 H60 C84 N12 O60"
_cell_length_a       15.677
_cell_length_b       15.677
_cell_length_c       15.1
_cell_angle_alpha    90
_cell_angle_beta     90
_cell_angle_gamma    120

_symmetry_space_group_name_H-M    "P 1"
_symmetry_Int_Tables_number       1

loop_
  _symmetry_equiv_pos_as_xyz
  'x, y, z'

loop_
  _atom_site_type_symbol
  _atom_site_label
  _atom_site_symmetry_multiplicity
  _atom_site_fract_x
  _atom_site_fract_y
  _atom_site_fract_z
  _atom_site_occupancy
  _atom_site_charge
La  La1       1.0  0.66667  0.33333  0.25000  1.0000 1.6384621504
La  La2       1.0  0.33333  0.66667  0.25000  1.0000 1.6384621504
La  La3       1.0  0.33333  0.66667  0.75000  1.0000 1.6384621504
La  La4       1.0  0.66667  0.33333  0.75000  1.0000 1.6384621504
Mg  Mg1       1.0  0.50000  0.50000  0.00000  1.0000 1.3115489129
Mg  Mg2       1.0  0.50000  0.00000  0.00000  1.0000 1.3115489129
Mg  Mg3       1.0  0.00000  0.50000  0.00000  1.0000 1.3115489129
Mg  Mg4       1.0  0.50000  0.50000  0.50000  1.0000 1.3115489129
Mg  Mg5       1.0  0.00000  0.50000  0.50000  1.0000 1.3115489129
Mg  Mg6       1.0  0.50000  0.00000  0.50000  1.0000 1.3115489129
H   H1        1.0  0.52250  0.36480  0.04630  1.0000 0.3676530725
H   H2        1.0  0.63520  0.15770  0.04630  1.0000 0.3676530725
H   H3        1.0  0.84230  0.47750  0.04630  1.0000 0.3676530725
H   H4        1.0  0.47750  0.63520  0.04630  1.0000 0.3676530725
H   H5        1.0  0.36480  0.84230  0.04630  1.0000 0.3676530725
H   H6        1.0  0.15770  0.52250  0.04630  1.0000 0.3676530725
H   H7        1.0  0.36480  0.52250  0.45370  1.0000 0.3676530725
H   H8        1.0  0.15770  0.63520  0.45370  1.0000 0.3676530725
H   H9        1.0  0.47750  0.84230  0.45370  1.0000 0.3676530725
H   H10       1.0  0.63520  0.47750  0.45370  1.0000 0.3676530725
H   H11       1.0  0.84230  0.36480  0.45370  1.0000 0.3676530725
H   H12       1.0  0.52250  0.15770  0.45370  1.0000 0.3676530725
H   H13       1.0  0.47750  0.63520  0.95370  1.0000 0.3676530725
H   H14       1.0  0.36480  0.84230  0.95370  1.0000 0.3676530725
H   H15       1.0  0.15770  0.52250  0.95370  1.0000 0.3676530725
H   H16       1.0  0.52250  0.36480  0.95370  1.0000 0.3676530725
H   H17       1.0  0.63520  0.15770  0.95370  1.0000 0.3676530725
H   H18       1.0  0.84230  0.47750  0.95370  1.0000 0.3676530725
H   H19       1.0  0.63520  0.47750  0.54630  1.0000 0.3676530725
H   H20       1.0  0.84230  0.36480  0.54630  1.0000 0.3676530725
H   H21       1.0  0.52250  0.15770  0.54630  1.0000 0.3676530725
H   H22       1.0  0.36480  0.52250  0.54630  1.0000 0.3676530725
H   H23       1.0  0.15770  0.63520  0.54630  1.0000 0.3676530725
H   H24       1.0  0.47750  0.84230  0.54630  1.0000 0.3676530725
H   H25       1.0  0.89900  0.79800  0.25000  1.0000 0.1094206218
H   H26       1.0  0.20200  0.10100  0.25000  1.0000 0.1094206218
H   H27       1.0  0.89900  0.10100  0.25000  1.0000 0.1094206218
H   H28       1.0  0.10100  0.20200  0.25000  1.0000 0.1094206218
H   H29       1.0  0.79800  0.89900  0.25000  1.0000 0.1094206218
H   H30       1.0  0.10100  0.89900  0.25000  1.0000 0.1094206218
H   H31       1.0  0.10100  0.20200  0.75000  1.0000 0.1094206218
H   H32       1.0  0.79800  0.89900  0.75000  1.0000 0.1094206218
H   H33       1.0  0.10100  0.89900  0.75000  1.0000 0.1094206218
H   H34       1.0  0.89900  0.79800  0.75000  1.0000 0.1094206218
H   H35       1.0  0.20200  0.10100  0.75000  1.0000 0.1094206218
H   H36       1.0  0.89900  0.10100  0.75000  1.0000 0.1094206218
H   H37       1.0  0.76500  0.71160  0.15600  1.0000 0.1383057181
H   H38       1.0  0.28840  0.05340  0.15600  1.0000 0.1383057181
H   H39       1.0  0.94660  0.23500  0.15600  1.0000 0.1383057181
H   H40       1.0  0.23500  0.28840  0.15600  1.0000 0.1383057181
H   H41       1.0  0.71160  0.94660  0.15600  1.0000 0.1383057181
H   H42       1.0  0.05340  0.76500  0.15600  1.0000 0.1383057181
H   H43       1.0  0.71160  0.76500  0.34400  1.0000 0.1383057181
H   H44       1.0  0.05340  0.28840  0.34400  1.0000 0.1383057181
H   H45       1.0  0.23500  0.94660  0.34400  1.0000 0.1383057181
H   H46       1.0  0.28840  0.23500  0.34400  1.0000 0.1383057181
H   H47       1.0  0.94660  0.71160  0.34400  1.0000 0.1383057181
H   H48       1.0  0.76500  0.05340  0.34400  1.0000 0.1383057181
H   H49       1.0  0.23500  0.28840  0.84400  1.0000 0.1383057181
H   H50       1.0  0.71160  0.94660  0.84400  1.0000 0.1383057181
H   H51       1.0  0.05340  0.76500  0.84400  1.0000 0.1383057181
H   H52       1.0  0.76500  0.71160  0.84400  1.0000 0.1383057181
H   H53       1.0  0.28840  0.05340  0.84400  1.0000 0.1383057181
H   H54       1.0  0.94660  0.23500  0.84400  1.0000 0.1383057181
H   H55       1.0  0.28840  0.23500  0.65600  1.0000 0.1383057181
H   H56       1.0  0.94660  0.71160  0.65600  1.0000 0.1383057181
H   H57       1.0  0.76500  0.05340  0.65600  1.0000 0.1383057181
H   H58       1.0  0.71160  0.76500  0.65600  1.0000 0.1383057181
H   H59       1.0  0.05340  0.28840  0.65600  1.0000 0.1383057181
H   H60       1.0  0.23500  0.94660  0.65600  1.0000 0.1383057181
C   C1        1.0  0.86475  0.72950  0.25000  1.0000 -0.0536299531
C   C2        1.0  0.27050  0.13525  0.25000  1.0000 -0.0536299531
C   C3        1.0  0.86475  0.13525  0.25000  1.0000 -0.0536299531
C   C4        1.0  0.13525  0.27050  0.25000  1.0000 -0.0536299531
C   C5        1.0  0.72950  0.86475  0.25000  1.0000 -0.0536299531
C   C6        1.0  0.13525  0.86475  0.25000  1.0000 -0.0536299531
C   C7        1.0  0.13525  0.27050  0.75000  1.0000 -0.0536299531
C   C8        1.0  0.72950  0.86475  0.75000  1.0000 -0.0536299531
C   C9        1.0  0.13525  0.86475  0.75000  1.0000 -0.0536299531
C   C10       1.0  0.86475  0.72950  0.75000  1.0000 -0.0536299531
C   C11       1.0  0.27050  0.13525  0.75000  1.0000 -0.0536299531
C   C12       1.0  0.86475  0.13525  0.75000  1.0000 -0.0536299531
C   C13       1.0  0.78489  0.67837  0.19426  1.0000 -0.1335082911
C   C14       1.0  0.32163  0.10652  0.19426  1.0000 -0.1335082911
C   C15       1.0  0.89348  0.21511  0.19426  1.0000 -0.1335082911
C   C16       1.0  0.21511  0.32163  0.19426  1.0000 -0.1335082911
C   C17       1.0  0.67837  0.89348  0.19426  1.0000 -0.1335082911
C   C18       1.0  0.10652  0.78489  0.19426  1.0000 -0.1335082911
C   C19       1.0  0.67837  0.78489  0.30574  1.0000 -0.1335082911
C   C20       1.0  0.10652  0.32163  0.30574  1.0000 -0.1335082911
C   C21       1.0  0.21511  0.89348  0.30574  1.0000 -0.1335082911
C   C22       1.0  0.32163  0.21511  0.30574  1.0000 -0.1335082911
C   C23       1.0  0.89348  0.67837  0.30574  1.0000 -0.1335082911
C   C24       1.0  0.78489  0.10652  0.30574  1.0000 -0.1335082911
C   C25       1.0  0.21511  0.32163  0.80574  1.0000 -0.1335082911
C   C26       1.0  0.67837  0.89348  0.80574  1.0000 -0.1335082911
C   C27       1.0  0.10652  0.78489  0.80574  1.0000 -0.1335082911
C   C28       1.0  0.78489  0.67837  0.80574  1.0000 -0.1335082911
C   C29       1.0  0.32163  0.10652  0.80574  1.0000 -0.1335082911
C   C30       1.0  0.89348  0.21511  0.80574  1.0000 -0.1335082911
C   C31       1.0  0.32163  0.21511  0.69426  1.0000 -0.1335082911
C   C32       1.0  0.89348  0.67837  0.69426  1.0000 -0.1335082911
C   C33       1.0  0.78489  0.10652  0.69426  1.0000 -0.1335082911
C   C34       1.0  0.67837  0.78489  0.69426  1.0000 -0.1335082911
C   C35       1.0  0.10652  0.32163  0.69426  1.0000 -0.1335082911
C   C36       1.0  0.21511  0.89348  0.69426  1.0000 -0.1335082911
C   C37       1.0  0.73531  0.57639  0.19694  1.0000 0.1309255206
C   C38       1.0  0.42361  0.15892  0.19694  1.0000 0.1309255206
C   C39       1.0  0.84108  0.26469  0.19694  1.0000 0.1309255206
C   C40       1.0  0.26469  0.42361  0.19694  1.0000 0.1309255206
C   C41       1.0  0.57639  0.84108  0.19694  1.0000 0.1309255206
C   C42       1.0  0.15892  0.73531  0.19694  1.0000 0.1309255206
C   C43       1.0  0.57639  0.73531  0.30306  1.0000 0.1309255206
C   C44       1.0  0.15892  0.42361  0.30306  1.0000 0.1309255206
C   C45       1.0  0.26469  0.84108  0.30306  1.0000 0.1309255206
C   C46       1.0  0.42361  0.26469  0.30306  1.0000 0.1309255206
C   C47       1.0  0.84108  0.57639  0.30306  1.0000 0.1309255206
C   C48       1.0  0.73531  0.15892  0.30306  1.0000 0.1309255206
C   C49       1.0  0.26469  0.42361  0.80306  1.0000 0.1309255206
C   C50       1.0  0.57639  0.84108  0.80306  1.0000 0.1309255206
C   C51       1.0  0.15892  0.73531  0.80306  1.0000 0.1309255206
C   C52       1.0  0.73531  0.57639  0.80306  1.0000 0.1309255206
C   C53       1.0  0.42361  0.15892  0.80306  1.0000 0.1309255206
C   C54       1.0  0.84108  0.26469  0.80306  1.0000 0.1309255206
C   C55       1.0  0.42361  0.26469  0.69694  1.0000 0.1309255206
C   C56       1.0  0.84108  0.57639  0.69694  1.0000 0.1309255206
C   C57       1.0  0.73531  0.15892  0.69694  1.0000 0.1309255206
C   C58       1.0  0.57639  0.73531  0.69694  1.0000 0.1309255206
C   C59       1.0  0.15892  0.42361  0.69694  1.0000 0.1309255206
C   C60       1.0  0.26469  0.84108  0.69694  1.0000 0.1309255206
C   C61       1.0  0.64744  0.51342  0.13906  1.0000 0.5616665129
C   C62       1.0  0.48658  0.13402  0.13906  1.0000 0.5616665129
C   C63       1.0  0.86598  0.35256  0.13906  1.0000 0.5616665129
C   C64       1.0  0.35256  0.48658  0.13906  1.0000 0.5616665129
C   C65       1.0  0.51342  0.86598  0.13906  1.0000 0.5616665129
C   C66       1.0  0.13402  0.64744  0.13906  1.0000 0.5616665129
C   C67       1.0  0.51342  0.64744  0.36094  1.0000 0.5616665129
C   C68       1.0  0.13402  0.48658  0.36094  1.0000 0.5616665129
C   C69       1.0  0.35256  0.86598  0.36094  1.0000 0.5616665129
C   C70       1.0  0.48658  0.35256  0.36094  1.0000 0.5616665129
C   C71       1.0  0.86598  0.51342  0.36094  1.0000 0.5616665129
C   C72       1.0  0.64744  0.13402  0.36094  1.0000 0.5616665129
C   C73       1.0  0.35256  0.48658  0.86094  1.0000 0.5616665129
C   C74       1.0  0.51342  0.86598  0.86094  1.0000 0.5616665129
C   C75       1.0  0.13402  0.64744  0.86094  1.0000 0.5616665129
C   C76       1.0  0.64744  0.51342  0.86094  1.0000 0.5616665129
C   C77       1.0  0.48658  0.13402  0.86094  1.0000 0.5616665129
C   C78       1.0  0.86598  0.35256  0.86094  1.0000 0.5616665129
C   C79       1.0  0.48658  0.35256  0.63906  1.0000 0.5616665129
C   C80       1.0  0.86598  0.51342  0.63906  1.0000 0.5616665129
C   C81       1.0  0.64744  0.13402  0.63906  1.0000 0.5616665129
C   C82       1.0  0.51342  0.64744  0.63906  1.0000 0.5616665129
C   C83       1.0  0.13402  0.48658  0.63906  1.0000 0.5616665129
C   C84       1.0  0.35256  0.86598  0.63906  1.0000 0.5616665129
N   N1        1.0  0.76347  0.52695  0.25000  1.0000 -0.3141735823
N   N2        1.0  0.47305  0.23653  0.25000  1.0000 -0.3141735823
N   N3        1.0  0.76347  0.23653  0.25000  1.0000 -0.3141735823
N   N4        1.0  0.23653  0.47305  0.25000  1.0000 -0.3141735823
N   N5        1.0  0.52695  0.76348  0.25000  1.0000 -0.3141735823
N   N6        1.0  0.23653  0.76348  0.25000  1.0000 -0.3141735823
N   N7        1.0  0.23653  0.47305  0.75000  1.0000 -0.3141735823
N   N8        1.0  0.52695  0.76348  0.75000  1.0000 -0.3141735823
N   N9        1.0  0.23653  0.76348  0.75000  1.0000 -0.3141735823
N   N10       1.0  0.76347  0.52695  0.75000  1.0000 -0.3141735823
N   N11       1.0  0.47305  0.23653  0.75000  1.0000 -0.3141735823
N   N12       1.0  0.76347  0.23653  0.75000  1.0000 -0.3141735823
O   O1        1.0  0.61157  0.55418  0.09461  1.0000 -0.5869180448
O   O2        1.0  0.44582  0.05739  0.09461  1.0000 -0.5869180448
O   O3        1.0  0.94261  0.38843  0.09461  1.0000 -0.5869180448
O   O4        1.0  0.38843  0.44582  0.09461  1.0000 -0.5869180448
O   O5        1.0  0.55418  0.94261  0.09461  1.0000 -0.5869180448
O   O6        1.0  0.05739  0.61157  0.09461  1.0000 -0.5869180448
O   O7        1.0  0.55418  0.61157  0.40539  1.0000 -0.5869180448
O   O8        1.0  0.05739  0.44582  0.40539  1.0000 -0.5869180448
O   O9        1.0  0.38843  0.94261  0.40539  1.0000 -0.5869180448
O   O10       1.0  0.44582  0.38843  0.40539  1.0000 -0.5869180448
O   O11       1.0  0.94261  0.55418  0.40539  1.0000 -0.5869180448
O   O12       1.0  0.61157  0.05739  0.40539  1.0000 -0.5869180448
O   O13       1.0  0.38843  0.44582  0.90539  1.0000 -0.5869180448
O   O14       1.0  0.55418  0.94261  0.90539  1.0000 -0.5869180448
O   O15       1.0  0.05739  0.61157  0.90539  1.0000 -0.5869180448
O   O16       1.0  0.61157  0.55418  0.90539  1.0000 -0.5869180448
O   O17       1.0  0.44582  0.05739  0.90539  1.0000 -0.5869180448
O   O18       1.0  0.94261  0.38843  0.90539  1.0000 -0.5869180448
O   O19       1.0  0.44582  0.38843  0.59461  1.0000 -0.5869180448
O   O20       1.0  0.94261  0.55418  0.59461  1.0000 -0.5869180448
O   O21       1.0  0.61157  0.05739  0.59461  1.0000 -0.5869180448
O   O22       1.0  0.55418  0.61157  0.59461  1.0000 -0.5869180448
O   O23       1.0  0.05739  0.44582  0.59461  1.0000 -0.5869180448
O   O24       1.0  0.38843  0.94261  0.59461  1.0000 -0.5869180448
O   O25       1.0  0.61656  0.42149  0.14062  1.0000 -0.5869180448
O   O26       1.0  0.57851  0.19507  0.14062  1.0000 -0.5869180448
O   O27       1.0  0.80493  0.38344  0.14062  1.0000 -0.5869180448
O   O28       1.0  0.38344  0.57851  0.14062  1.0000 -0.5869180448
O   O29       1.0  0.42149  0.80493  0.14062  1.0000 -0.5869180448
O   O30       1.0  0.19507  0.61656  0.14062  1.0000 -0.5869180448
O   O31       1.0  0.42149  0.61656  0.35938  1.0000 -0.5869180448
O   O32       1.0  0.19507  0.57851  0.35938  1.0000 -0.5869180448
O   O33       1.0  0.38344  0.80493  0.35938  1.0000 -0.5869180448
O   O34       1.0  0.57851  0.38344  0.35938  1.0000 -0.5869180448
O   O35       1.0  0.80493  0.42149  0.35938  1.0000 -0.5869180448
O   O36       1.0  0.61656  0.19507  0.35938  1.0000 -0.5849099513
O   O37       1.0  0.38344  0.57851  0.85938  1.0000 -0.5869180448
O   O38       1.0  0.42149  0.80493  0.85938  1.0000 -0.5869180448
O   O39       1.0  0.19507  0.61656  0.85938  1.0000 -0.5869180448
O   O40       1.0  0.61656  0.42149  0.85938  1.0000 -0.5869180448
O   O41       1.0  0.57851  0.19507  0.85938  1.0000 -0.5869180448
O   O42       1.0  0.80493  0.38344  0.85938  1.0000 -0.5869180448
O   O43       1.0  0.57851  0.38344  0.64062  1.0000 -0.5869180448
O   O44       1.0  0.80493  0.42149  0.64062  1.0000 -0.5869180448
O   O45       1.0  0.61656  0.19507  0.64062  1.0000 -0.5849099513
O   O46       1.0  0.42149  0.61656  0.64062  1.0000 -0.5869180448
O   O47       1.0  0.19507  0.57851  0.64062  1.0000 -0.5869180448
O   O48       1.0  0.38344  0.80493  0.64062  1.0000 -0.5869180448
O   O49       1.0  0.48964  0.36048  0.00000  1.0000 -0.7262931621
O   O50       1.0  0.63952  0.12916  0.00000  1.0000 -0.7262931621
O   O51       1.0  0.87084  0.51036  0.00000  1.0000 -0.7262931621
O   O52       1.0  0.51036  0.63952  0.00000  1.0000 -0.7262931621
O   O53       1.0  0.36048  0.87084  0.00000  1.0000 -0.7262931621
O   O54       1.0  0.12916  0.48964  0.00000  1.0000 -0.7262931621
O   O55       1.0  0.36048  0.48964  0.50000  1.0000 -0.7262931621
O   O56       1.0  0.12916  0.63952  0.50000  1.0000 -0.7262931621
O   O57       1.0  0.51036  0.87084  0.50000  1.0000 -0.7262931621
O   O58       1.0  0.63952  0.51036  0.50000  1.0000 -0.7262931621
O   O59       1.0  0.87084  0.36048  0.50000  1.0000 -0.7262931621
O   O60       1.0  0.48964  0.12916  0.50000  1.0000 -0.7262931621
