# DDEC6 charges by PACMAN v1.1 (https://github.com/mtap-research/PACMAN-charge/)
data_2011[Pr][flu]3[FSR]1
_chemical_formula_sum              "Pr2 H14 C30 O18"
_cell_length_a       9.398
_cell_length_b       9.911
_cell_length_c       11.422
_cell_angle_alpha    93.965
_cell_angle_beta     98.131
_cell_angle_gamma    110.782

_symmetry_space_group_name_H-M    "P 1"
_symmetry_Int_Tables_number       1

loop_
  _symmetry_equiv_pos_as_xyz
  'x, y, z'

loop_
  _atom_site_type_symbol
  _atom_site_label
  _atom_site_symmetry_multiplicity
  _atom_site_fract_x
  _atom_site_fract_y
  _atom_site_fract_z
  _atom_site_occupancy
  _atom_site_charge
Pr  Pr1       1.0  0.71572  0.45440  0.51488  1.0000 2.0559360942
Pr  Pr2       1.0  0.28428  0.54560  0.48512  1.0000 2.0544772109
H   H1        1.0  0.05980  0.60220  0.92600  1.0000 0.1230858302
H   H2        1.0  0.94020  0.39780  0.07400  1.0000 0.1230858302
H   H3        1.0  0.15020  0.72630  0.11750  1.0000 0.1567046901
H   H4        1.0  0.84980  0.27370  0.88250  1.0000 0.1567046901
H   H5        1.0  0.82990  0.90430  0.06860  1.0000 0.1331487632
H   H6        1.0  0.17010  0.09570  0.93140  1.0000 0.1331487632
H   H7        1.0  0.73670  0.77810  0.88270  1.0000 0.1331487632
H   H8        1.0  0.26330  0.22190  0.11730  1.0000 0.1331487632
H   H9        1.0  0.08030  0.13390  0.33630  1.0000 0.1520085594
H   H10       1.0  0.91970  0.86610  0.66370  1.0000 0.1520085594
H   H11       1.0  0.68060  0.00490  0.46180  1.0000 0.1436745486
H   H12       1.0  0.31940  0.99510  0.53820  1.0000 0.1436745486
H   H13       1.0  0.80140  0.71360  0.28090  1.0000 0.1520085594
H   H14       1.0  0.19860  0.28640  0.71910  1.0000 0.1520085594
C   C1        1.0  0.82340  0.58950  0.76350  1.0000 0.5349706372
C   C2        1.0  0.17660  0.41050  0.23650  1.0000 0.5349706372
C   C3        1.0  0.88350  0.67350  0.88340  1.0000 -0.0485121665
C   C4        1.0  0.11650  0.32650  0.11660  1.0000 -0.0485121665
C   C5        1.0  0.01130  0.66100  0.95540  1.0000 -0.0641276503
C   C6        1.0  0.98870  0.33900  0.04460  1.0000 -0.0641276503
C   C7        1.0  0.06590  0.73560  0.07020  1.0000 -0.1868267843
C   C8        1.0  0.93410  0.26440  0.92980  1.0000 -0.1868267843
C   C9        1.0  0.99550  0.82220  0.11300  1.0000 0.2448961696
C   C10       1.0  0.00450  0.17780  0.88700  1.0000 0.2448961696
C   C11       1.0  0.87410  0.84080  0.04080  1.0000 -0.199054188
C   C12       1.0  0.12590  0.15920  0.95920  1.0000 -0.199054188
C   C13       1.0  0.81980  0.76620  0.92940  1.0000 -0.0672703164
C   C14       1.0  0.18020  0.23380  0.07060  1.0000 -0.0672703164
C   C15       1.0  0.95120  0.92140  0.29380  1.0000 0.2191822639
C   C16       1.0  0.04880  0.07860  0.70620  1.0000 0.2191822639
C   C17       1.0  0.98860  0.06130  0.34510  1.0000 -0.1868267843
C   C18       1.0  0.01140  0.93870  0.65490  1.0000 -0.1868267843
C   C19       1.0  0.88850  0.09360  0.41020  1.0000 -0.0181021375
C   C20       1.0  0.11150  0.90640  0.58980  1.0000 -0.0181021375
C   C21       1.0  0.92460  0.24460  0.46710  1.0000 0.6284390053
C   C22       1.0  0.07540  0.75540  0.53290  1.0000 0.6284390053
C   C23       1.0  0.75140  0.98320  0.42240  1.0000 -0.1023524368
C   C24       1.0  0.24860  0.01680  0.57760  1.0000 -0.1023524368
C   C25       1.0  0.72160  0.84250  0.37590  1.0000 -0.0181021375
C   C26       1.0  0.27840  0.15750  0.62410  1.0000 -0.0181021375
C   C27       1.0  0.82130  0.80920  0.31150  1.0000 -0.2062313149
C   C28       1.0  0.17870  0.19080  0.68850  1.0000 -0.2062313149
C   C29       1.0  0.57970  0.72540  0.39760  1.0000 0.6088237723
C   C30       1.0  0.42030  0.27460  0.60240  1.0000 0.6088237723
O   O1        1.0  0.71510  0.61060  0.69770  1.0000 -0.5616377035
O   O2        1.0  0.28490  0.38940  0.30230  1.0000 -0.5616377035
O   O3        1.0  0.87760  0.49970  0.72630  1.0000 -0.5441035071
O   O4        1.0  0.12240  0.50030  0.27370  1.0000 -0.5441035071
O   O5        1.0  0.50870  0.28050  0.35000  1.0000 -0.199054188
O   O6        1.0  0.49130  0.71950  0.65000  1.0000 -0.199054188
O   O7        1.0  0.05520  0.33780  0.46840  1.0000 -0.6057735124
O   O8        1.0  0.94480  0.66220  0.53160  1.0000 -0.6057735124
O   O9        1.0  0.81180  0.45750  0.31490  1.0000 -0.2515877524
O   O10       1.0  0.18820  0.54250  0.68510  1.0000 -0.2515877524
O   O11       1.0  0.82130  0.26980  0.51200  1.0000 -0.590878729
O   O12       1.0  0.17870  0.73020  0.48800  1.0000 -0.590878729
O   O13       1.0  0.58530  0.60590  0.42560  1.0000 -0.6553856769
O   O14       1.0  0.41470  0.39410  0.57440  1.0000 -0.6553856769
O   O15       1.0  0.45380  0.74820  0.38870  1.0000 -0.5804170409
O   O16       1.0  0.54620  0.25180  0.61130  1.0000 -0.5804170409
O   O17       1.0  0.05560  0.89380  0.22710  1.0000 -0.199054188
O   O18       1.0  0.94440  0.10620  0.77290  1.0000 -0.199054188
