# DDEC6 charges by PACMAN v1.1 (https://github.com/mtap-research/PACMAN-charge/)
data_2011[Nd][rob]3[FSR]1
_chemical_formula_sum              "Nd8 H120 C120 S12 N32 O64"
_cell_length_a       17.3413
_cell_length_b       11.6871
_cell_length_c       27.8924
_cell_angle_alpha    90
_cell_angle_beta     115.104
_cell_angle_gamma    90

_symmetry_space_group_name_H-M    "P 1"
_symmetry_Int_Tables_number       1

loop_
  _symmetry_equiv_pos_as_xyz
  'x, y, z'

loop_
  _atom_site_type_symbol
  _atom_site_label
  _atom_site_symmetry_multiplicity
  _atom_site_fract_x
  _atom_site_fract_y
  _atom_site_fract_z
  _atom_site_occupancy
  _atom_site_charge
Nd  Nd1       1.0  0.06775  0.02827  0.58097  1.0000 2.1069333538
Nd  Nd2       1.0  0.93225  0.02827  0.91903  1.0000 2.1069333538
Nd  Nd3       1.0  0.93225  0.97173  0.41903  1.0000 2.1069333538
Nd  Nd4       1.0  0.06775  0.97173  0.08097  1.0000 2.1069333538
Nd  Nd5       1.0  0.45869  0.49206  0.41941  1.0000 2.0975882992
Nd  Nd6       1.0  0.54131  0.49206  0.08059  1.0000 2.0975882992
Nd  Nd7       1.0  0.54131  0.50794  0.58059  1.0000 2.0975882992
Nd  Nd8       1.0  0.45869  0.50794  0.91941  1.0000 2.0975882992
H   H1        1.0  0.97340  0.91480  0.66520  1.0000 0.2984314695
H   H2        1.0  0.02660  0.91480  0.83480  1.0000 0.2984314695
H   H3        1.0  0.02660  0.08520  0.33480  1.0000 0.2984314695
H   H4        1.0  0.97340  0.08520  0.16520  1.0000 0.2984314695
H   H5        1.0  0.92890  0.21130  0.67960  1.0000 0.2559615955
H   H6        1.0  0.07110  0.21130  0.82040  1.0000 0.2559615955
H   H7        1.0  0.07110  0.78870  0.32040  1.0000 0.2559615955
H   H8        1.0  0.92890  0.78870  0.17960  1.0000 0.2559615955
H   H9        1.0  0.23220  0.36600  0.63370  1.0000 0.2701844558
H   H10       1.0  0.76780  0.36600  0.86630  1.0000 0.2701844558
H   H11       1.0  0.76780  0.63400  0.36630  1.0000 0.2701844558
H   H12       1.0  0.23220  0.63400  0.13370  1.0000 0.2701844558
H   H13       1.0  0.02880  0.33180  0.50890  1.0000 0.2984314695
H   H14       1.0  0.97120  0.33180  0.99110  1.0000 0.2984314695
H   H15       1.0  0.97120  0.66820  0.49110  1.0000 0.2984314695
H   H16       1.0  0.02880  0.66820  0.00890  1.0000 0.2984314695
H   H17       1.0  0.25380  0.66850  0.36270  1.0000 0.2784129963
H   H18       1.0  0.74620  0.66850  0.13730  1.0000 0.2784129963
H   H19       1.0  0.74620  0.33150  0.63730  1.0000 0.2784129963
H   H20       1.0  0.25380  0.33150  0.86270  1.0000 0.2784129963
H   H21       1.0  0.33020  0.66667  0.25550  1.0000 0.2784129963
H   H22       1.0  0.66980  0.66667  0.24450  1.0000 0.2784129963
H   H23       1.0  0.66980  0.33333  0.74450  1.0000 0.2784129963
H   H24       1.0  0.33020  0.33333  0.75550  1.0000 0.2784129963
H   H25       1.0  0.60760  0.50530  0.30750  1.0000 0.2701844558
H   H26       1.0  0.39240  0.50530  0.19250  1.0000 0.2701844558
H   H27       1.0  0.39240  0.49470  0.69250  1.0000 0.2701844558
H   H28       1.0  0.60760  0.49470  0.80750  1.0000 0.2701844558
H   H29       1.0  0.53410  0.25030  0.35770  1.0000 0.2873623356
H   H30       1.0  0.46590  0.25030  0.14230  1.0000 0.2873623356
H   H31       1.0  0.46590  0.74970  0.64230  1.0000 0.2873623356
H   H32       1.0  0.53410  0.74970  0.85770  1.0000 0.2873623356
H   H33       1.0  0.85420  0.77570  0.60470  1.0000 0.11938647
H   H34       1.0  0.14580  0.77570  0.89530  1.0000 0.11938647
H   H35       1.0  0.14580  0.22430  0.39530  1.0000 0.11938647
H   H36       1.0  0.85420  0.22430  0.10470  1.0000 0.11938647
H   H37       1.0  0.72280  0.67220  0.58820  1.0000 0.1357125178
H   H38       1.0  0.27720  0.67220  0.91180  1.0000 0.1357125178
H   H39       1.0  0.27720  0.32780  0.41180  1.0000 0.1357125178
H   H40       1.0  0.72280  0.32780  0.08820  1.0000 0.1357125178
H   H41       1.0  0.33990  0.02810  0.76340  1.0000 0.1274265706
H   H42       1.0  0.66010  0.02810  0.73660  1.0000 0.1274265706
H   H43       1.0  0.66010  0.97190  0.23660  1.0000 0.1274265706
H   H44       1.0  0.33990  0.97190  0.26340  1.0000 0.1274265706
H   H45       1.0  0.42140  0.91220  0.84130  1.0000 0.1274265706
H   H46       1.0  0.57860  0.91220  0.65870  1.0000 0.1274265706
H   H47       1.0  0.57860  0.08780  0.15870  1.0000 0.1274265706
H   H48       1.0  0.42140  0.08780  0.34130  1.0000 0.1274265706
H   H49       1.0  0.07040  0.73500  0.42620  1.0000 0.1274265706
H   H50       1.0  0.92960  0.73500  0.07380  1.0000 0.1274265706
H   H51       1.0  0.92960  0.26500  0.57380  1.0000 0.1274265706
H   H52       1.0  0.07040  0.26500  0.92620  1.0000 0.1274265706
H   H53       1.0  0.17490  0.62830  0.40780  1.0000 0.11938647
H   H54       1.0  0.82510  0.62830  0.09220  1.0000 0.11938647
H   H55       1.0  0.82510  0.37170  0.59220  1.0000 0.11938647
H   H56       1.0  0.17490  0.37170  0.90780  1.0000 0.11938647
H   H57       1.0  0.80560  0.09720  0.67670  1.0000 0.1085781597
H   H58       1.0  0.19440  0.09720  0.82330  1.0000 0.1085781597
H   H59       1.0  0.19440  0.90280  0.32330  1.0000 0.1085781597
H   H60       1.0  0.80560  0.90280  0.17670  1.0000 0.1085781597
H   H61       1.0  0.88070  0.09810  0.73430  1.0000 0.1085781597
H   H62       1.0  0.11930  0.09810  0.76570  1.0000 0.1085781597
H   H63       1.0  0.11930  0.90190  0.26570  1.0000 0.1085781597
H   H64       1.0  0.88070  0.90190  0.23430  1.0000 0.1085781597
H   H65       1.0  0.83360  0.91880  0.66710  1.0000 0.11938647
H   H66       1.0  0.16640  0.91880  0.83290  1.0000 0.11938647
H   H67       1.0  0.16640  0.08120  0.33290  1.0000 0.11938647
H   H68       1.0  0.83360  0.08120  0.16710  1.0000 0.11938647
H   H69       1.0  0.90860  0.91960  0.72480  1.0000 0.1085781597
H   H70       1.0  0.09140  0.91960  0.77520  1.0000 0.1085781597
H   H71       1.0  0.09140  0.08040  0.27520  1.0000 0.1085781597
H   H72       1.0  0.90860  0.08040  0.22480  1.0000 0.1085781597
H   H73       1.0  0.14490  0.41330  0.48910  1.0000 0.1085781597
H   H74       1.0  0.85510  0.41330  0.01090  1.0000 0.1085781597
H   H75       1.0  0.85510  0.58670  0.51090  1.0000 0.1085781597
H   H76       1.0  0.14490  0.58670  0.98910  1.0000 0.1085781597
H   H77       1.0  0.09240  0.50990  0.50170  1.0000 0.0991323054
H   H78       1.0  0.90760  0.50990  0.99830  1.0000 0.0991323054
H   H79       1.0  0.90760  0.49010  0.49830  1.0000 0.0991323054
H   H80       1.0  0.09240  0.49010  0.00170  1.0000 0.0991323054
H   H81       1.0  0.19910  0.54090  0.58160  1.0000 0.0991323054
H   H82       1.0  0.80090  0.54090  0.91840  1.0000 0.0991323054
H   H83       1.0  0.80090  0.45910  0.41840  1.0000 0.0991323054
H   H84       1.0  0.19910  0.45910  0.08160  1.0000 0.0991323054
H   H85       1.0  0.25630  0.45930  0.56480  1.0000 0.1085781597
H   H86       1.0  0.74370  0.45930  0.93520  1.0000 0.1085781597
H   H87       1.0  0.74370  0.54070  0.43520  1.0000 0.1085781597
H   H88       1.0  0.25630  0.54070  0.06480  1.0000 0.1085781597
H   H89       1.0  0.18640  0.75260  0.23200  1.0000 0.1085781597
H   H90       1.0  0.81360  0.75260  0.26800  1.0000 0.1085781597
H   H91       1.0  0.81360  0.24740  0.76800  1.0000 0.1085781597
H   H92       1.0  0.18640  0.24740  0.73200  1.0000 0.1085781597
H   H93       1.0  0.18260  0.62680  0.20990  1.0000 0.1085781597
H   H94       1.0  0.81740  0.62680  0.29010  1.0000 0.1085781597
H   H95       1.0  0.81740  0.37320  0.79010  1.0000 0.1085781597
H   H96       1.0  0.18260  0.37320  0.70990  1.0000 0.1085781597
H   H97       1.0  0.16590  0.54610  0.28050  1.0000 0.11938647
H   H98       1.0  0.83410  0.54610  0.21950  1.0000 0.11938647
H   H99       1.0  0.83410  0.45390  0.71950  1.0000 0.11938647
H   H100      1.0  0.16590  0.45390  0.78050  1.0000 0.11938647
H   H101      1.0  0.12730  0.66740  0.28340  1.0000 0.0817438721
H   H102      1.0  0.87270  0.66740  0.21660  1.0000 0.0817438721
H   H103      1.0  0.87270  0.33260  0.71660  1.0000 0.0817438721
H   H104      1.0  0.12730  0.33260  0.78340  1.0000 0.0817438721
H   H105      1.0  0.61790  0.33750  0.26070  1.0000 0.0991323054
H   H106      1.0  0.38210  0.33750  0.23930  1.0000 0.0991323054
H   H107      1.0  0.38210  0.66250  0.73930  1.0000 0.0991323054
H   H108      1.0  0.61790  0.66250  0.76070  1.0000 0.0991323054
H   H109      1.0  0.70090  0.35270  0.31400  1.0000 0.1085781597
H   H110      1.0  0.29910  0.35270  0.18600  1.0000 0.1085781597
H   H111      1.0  0.29910  0.64730  0.68600  1.0000 0.1085781597
H   H112      1.0  0.70090  0.64730  0.81400  1.0000 0.1085781597
H   H113      1.0  0.66430  0.20440  0.34950  1.0000 0.11938647
H   H114      1.0  0.33570  0.20440  0.15050  1.0000 0.11938647
H   H115      1.0  0.33570  0.79560  0.65050  1.0000 0.11938647
H   H116      1.0  0.66430  0.79560  0.84950  1.0000 0.11938647
H   H117      1.0  0.58500  0.18370  0.29480  1.0000 0.1085781597
H   H118      1.0  0.41500  0.18370  0.20520  1.0000 0.1085781597
H   H119      1.0  0.41500  0.81630  0.70520  1.0000 0.1085781597
H   H120      1.0  0.58500  0.81630  0.79480  1.0000 0.1085781597
C   C1        1.0  0.80890  0.81640  0.52690  1.0000 -0.1294562496
C   C2        1.0  0.19110  0.81640  0.97310  1.0000 -0.1294562496
C   C3        1.0  0.19110  0.18360  0.47310  1.0000 -0.1294562496
C   C4        1.0  0.80890  0.18360  0.02690  1.0000 -0.1294562496
C   C5        1.0  0.80890  0.76910  0.57140  1.0000 -0.1415370885
C   C6        1.0  0.19110  0.76910  0.92860  1.0000 -0.1415370885
C   C7        1.0  0.19110  0.23090  0.42860  1.0000 -0.1415370885
C   C8        1.0  0.80890  0.23090  0.07140  1.0000 -0.1415370885
C   C9        1.0  0.73310  0.70900  0.56190  1.0000 -0.1175440583
C   C10       1.0  0.26690  0.70900  0.93810  1.0000 -0.1175440583
C   C11       1.0  0.26690  0.29100  0.43810  1.0000 -0.1175440583
C   C12       1.0  0.73310  0.29100  0.06190  1.0000 -0.1175440583
C   C13       1.0  0.67710  0.71090  0.51010  1.0000 -0.1104781121
C   C14       1.0  0.32290  0.71090  0.98990  1.0000 -0.1104781121
C   C15       1.0  0.32290  0.28910  0.48990  1.0000 -0.1104781121
C   C16       1.0  0.67710  0.28910  0.01010  1.0000 -0.1104781121
C   C17       1.0  0.87640  0.88260  0.51960  1.0000 0.6304645822
C   C18       1.0  0.12360  0.88260  0.98040  1.0000 0.6304645822
C   C19       1.0  0.12360  0.11740  0.48040  1.0000 0.6304645822
C   C20       1.0  0.87640  0.11740  0.01960  1.0000 0.6304645822
C   C21       1.0  0.59280  0.65510  0.48240  1.0000 0.6068913027
C   C22       1.0  0.40720  0.65510  0.01760  1.0000 0.6068913027
C   C23       1.0  0.40720  0.34490  0.51760  1.0000 0.6068913027
C   C24       1.0  0.59280  0.34490  0.98240  1.0000 0.6068913027
C   C25       1.0  0.24780  0.90560  0.73630  1.0000 -0.1175440583
C   C26       1.0  0.75220  0.90560  0.76370  1.0000 -0.1175440583
C   C27       1.0  0.75220  0.09440  0.26370  1.0000 -0.1175440583
C   C28       1.0  0.24780  0.09440  0.23630  1.0000 -0.1175440583
C   C29       1.0  0.32230  0.95670  0.76970  1.0000 -0.1415370885
C   C30       1.0  0.67770  0.95670  0.73030  1.0000 -0.1415370885
C   C31       1.0  0.67770  0.04330  0.23030  1.0000 -0.1415370885
C   C32       1.0  0.32230  0.04330  0.26970  1.0000 -0.1415370885
C   C33       1.0  0.36940  0.88980  0.81470  1.0000 -0.1294562496
C   C34       1.0  0.63060  0.88980  0.68530  1.0000 -0.1294562496
C   C35       1.0  0.63060  0.11020  0.18530  1.0000 -0.1294562496
C   C36       1.0  0.36940  0.11020  0.31470  1.0000 -0.1294562496
C   C37       1.0  0.33100  0.78980  0.81490  1.0000 -0.1175440583
C   C38       1.0  0.66900  0.78980  0.68510  1.0000 -0.1175440583
C   C39       1.0  0.66900  0.21020  0.18510  1.0000 -0.1175440583
C   C40       1.0  0.33100  0.21020  0.31490  1.0000 -0.1175440583
C   C41       1.0  0.18490  0.94960  0.68491  1.0000 0.5583634362
C   C42       1.0  0.81510  0.94960  0.81509  1.0000 0.5583634362
C   C43       1.0  0.81510  0.05040  0.31509  1.0000 0.5583634362
C   C44       1.0  0.18490  0.05040  0.18491  1.0000 0.5583634362
C   C45       1.0  0.36570  0.69600  0.85380  1.0000 0.5453222975
C   C46       1.0  0.63430  0.69600  0.64620  1.0000 0.5453222975
C   C47       1.0  0.63430  0.30400  0.14620  1.0000 0.5453222975
C   C48       1.0  0.36570  0.30400  0.35380  1.0000 0.5453222975
C   C49       1.0  0.15910  0.76900  0.50025  1.0000 -0.1294562496
C   C50       1.0  0.84090  0.76900  0.99975  1.0000 -0.1294562496
C   C51       1.0  0.84090  0.23100  0.49975  1.0000 -0.1294562496
C   C52       1.0  0.15910  0.23100  0.00025  1.0000 -0.1294562496
C   C53       1.0  0.12670  0.72530  0.45060  1.0000 -0.1294562496
C   C54       1.0  0.87330  0.72530  0.04940  1.0000 -0.1294562496
C   C55       1.0  0.87330  0.27470  0.54940  1.0000 -0.1294562496
C   C56       1.0  0.12670  0.27470  0.95060  1.0000 -0.1294562496
C   C57       1.0  0.18710  0.66420  0.44000  1.0000 -0.1579764053
C   C58       1.0  0.81290  0.66420  0.06000  1.0000 -0.1579764053
C   C59       1.0  0.81290  0.33580  0.56000  1.0000 -0.1579764053
C   C60       1.0  0.18710  0.33580  0.94000  1.0000 -0.1579764053
C   C61       1.0  0.26490  0.66250  0.48120  1.0000 -0.1175440583
C   C62       1.0  0.73510  0.66250  0.01880  1.0000 -0.1175440583
C   C63       1.0  0.73510  0.33750  0.51880  1.0000 -0.1175440583
C   C64       1.0  0.26490  0.33750  0.98120  1.0000 -0.1175440583
C   C65       1.0  0.11650  0.84050  0.52520  1.0000 0.6068913027
C   C66       1.0  0.88350  0.84050  0.97480  1.0000 0.6068913027
C   C67       1.0  0.88350  0.15950  0.47480  1.0000 0.6068913027
C   C68       1.0  0.11650  0.15950  0.02520  1.0000 0.6068913027
C   C69       1.0  0.34530  0.60930  0.48520  1.0000 0.6304645822
C   C70       1.0  0.65470  0.60930  0.01480  1.0000 0.6304645822
C   C71       1.0  0.65470  0.39070  0.51480  1.0000 0.6304645822
C   C72       1.0  0.34530  0.39070  0.98520  1.0000 0.6304645822
C   C73       1.0  0.86520  0.07940  0.69750  1.0000 -0.1294562496
C   C74       1.0  0.13480  0.07940  0.80250  1.0000 -0.1294562496
C   C75       1.0  0.13480  0.92060  0.30250  1.0000 -0.1294562496
C   C76       1.0  0.86520  0.92060  0.19750  1.0000 -0.1294562496
C   C77       1.0  0.88410  0.95930  0.69110  1.0000 -0.1294562496
C   C78       1.0  0.11590  0.95930  0.80890  1.0000 -0.1294562496
C   C79       1.0  0.11590  0.04070  0.30890  1.0000 -0.1294562496
C   C80       1.0  0.88410  0.04070  0.19110  1.0000 -0.1294562496
C   C81       1.0  0.95320  0.06980  0.65550  1.0000 0.5268860146
C   C82       1.0  0.04680  0.06980  0.84450  1.0000 0.5268860146
C   C83       1.0  0.04680  0.93020  0.34450  1.0000 0.5268860146
C   C84       1.0  0.95320  0.93020  0.15550  1.0000 0.5268860146
C   C85       1.0  0.12660  0.44160  0.51530  1.0000 -0.0801646109
C   C86       1.0  0.87340  0.44160  0.98470  1.0000 -0.0801646109
C   C87       1.0  0.87340  0.55840  0.48470  1.0000 -0.0801646109
C   C88       1.0  0.12660  0.55840  0.01530  1.0000 -0.0801646109
C   C89       1.0  0.20300  0.46550  0.56820  1.0000 -0.0946762651
C   C90       1.0  0.79700  0.46550  0.93180  1.0000 -0.0946762651
C   C91       1.0  0.79700  0.53450  0.43180  1.0000 -0.0946762651
C   C92       1.0  0.20300  0.53450  0.06820  1.0000 -0.0946762651
C   C93       1.0  0.12560  0.31220  0.57880  1.0000 0.6169968829
C   C94       1.0  0.87440  0.31220  0.92120  1.0000 0.6169968829
C   C95       1.0  0.87440  0.68780  0.42120  1.0000 0.6169968829
C   C96       1.0  0.12560  0.68780  0.07880  1.0000 0.6169968829
C   C97       1.0  0.20420  0.67400  0.24150  1.0000 -0.0801646109
C   C98       1.0  0.79580  0.67400  0.25850  1.0000 -0.0801646109
C   C99       1.0  0.79580  0.32600  0.75850  1.0000 -0.0801646109
C   C100      1.0  0.20420  0.32600  0.74150  1.0000 -0.0801646109
C   C101      1.0  0.17710  0.62800  0.28430  1.0000 -0.0801646109
C   C102      1.0  0.82290  0.62800  0.21570  1.0000 -0.0801646109
C   C103      1.0  0.82290  0.37200  0.71570  1.0000 -0.0801646109
C   C104      1.0  0.17710  0.37200  0.78430  1.0000 -0.0801646109
C   C105      1.0  0.32050  0.65210  0.32090  1.0000 0.5895688519
C   C106      1.0  0.67950  0.65210  0.17910  1.0000 0.5895688519
C   C107      1.0  0.67950  0.34790  0.67910  1.0000 0.5895688519
C   C108      1.0  0.32050  0.34790  0.82090  1.0000 0.5895688519
C   C109      1.0  0.63960  0.34340  0.29890  1.0000 -0.0962327138
C   C110      1.0  0.36040  0.34340  0.20110  1.0000 -0.0962327138
C   C111      1.0  0.36040  0.65660  0.70110  1.0000 -0.0962327138
C   C112      1.0  0.63960  0.65660  0.79890  1.0000 -0.0962327138
C   C113      1.0  0.61490  0.23990  0.32190  1.0000 -0.0801646109
C   C114      1.0  0.38510  0.23990  0.17810  1.0000 -0.0801646109
C   C115      1.0  0.38510  0.76010  0.67810  1.0000 -0.0801646109
C   C116      1.0  0.61490  0.76010  0.82190  1.0000 -0.0801646109
C   C117      1.0  0.55310  0.40150  0.33710  1.0000 0.5895688519
C   C118      1.0  0.44690  0.40150  0.16290  1.0000 0.5895688519
C   C119      1.0  0.44690  0.59850  0.66290  1.0000 0.5895688519
C   C120      1.0  0.55310  0.59850  0.83710  1.0000 0.5895688519
S   S1        1.0  0.71638  0.78602  0.47231  1.0000 0.1900776125
S   S2        1.0  0.28362  0.78602  0.02769  1.0000 0.1900776125
S   S3        1.0  0.28362  0.21398  0.52769  1.0000 0.1900776125
S   S4        1.0  0.71638  0.21398  0.97231  1.0000 0.1900776125
S   S5        1.0  0.26392  0.73368  0.53475  1.0000 0.1652134791
S   S6        1.0  0.73608  0.73368  0.96525  1.0000 0.1652134791
S   S7        1.0  0.73608  0.26632  0.46525  1.0000 0.1652134791
S   S8        1.0  0.26392  0.26632  0.03475  1.0000 0.1652134791
S   S9        1.0  0.23494  0.77538  0.76051  1.0000 0.11938647
S   S10       1.0  0.76506  0.77538  0.73949  1.0000 0.11938647
S   S11       1.0  0.76506  0.22462  0.23949  1.0000 0.11938647
S   S12       1.0  0.23494  0.22462  0.26051  1.0000 0.11938647
N   N1        1.0  0.94490  0.97170  0.66890  1.0000 -0.2703930751
N   N2        1.0  0.05510  0.97170  0.83110  1.0000 -0.2703930751
N   N3        1.0  0.05510  0.02830  0.33110  1.0000 -0.2703930751
N   N4        1.0  0.94490  0.02830  0.16890  1.0000 -0.2703930751
N   N5        1.0  0.92010  0.13870  0.67720  1.0000 -0.3052073806
N   N6        1.0  0.07990  0.13870  0.82280  1.0000 -0.3052073806
N   N7        1.0  0.07990  0.86130  0.32280  1.0000 -0.3052073806
N   N8        1.0  0.92010  0.86130  0.17720  1.0000 -0.3052073806
N   N9        1.0  0.19520  0.37660  0.60170  1.0000 -0.3679658674
N   N10       1.0  0.80480  0.37660  0.89830  1.0000 -0.3679658674
N   N11       1.0  0.80480  0.62340  0.39830  1.0000 -0.3679658674
N   N12       1.0  0.19520  0.62340  0.10170  1.0000 -0.3679658674
N   N13       1.0  0.07950  0.35400  0.52940  1.0000 -0.3848104492
N   N14       1.0  0.92050  0.35400  0.97060  1.0000 -0.3848104492
N   N15       1.0  0.92050  0.64600  0.47060  1.0000 -0.3848104492
N   N16       1.0  0.07950  0.64600  0.02940  1.0000 -0.3848104492
N   N17       1.0  0.25270  0.65410  0.33220  1.0000 -0.3877265468
N   N18       1.0  0.74730  0.65410  0.16780  1.0000 -0.3877265468
N   N19       1.0  0.74730  0.34590  0.66780  1.0000 -0.3877265468
N   N20       1.0  0.25270  0.34590  0.83220  1.0000 -0.3877265468
N   N21       1.0  0.29570  0.66440  0.27040  1.0000 -0.3497960434
N   N22       1.0  0.70430  0.66440  0.22960  1.0000 -0.3497960434
N   N23       1.0  0.70430  0.33560  0.72960  1.0000 -0.3497960434
N   N24       1.0  0.29570  0.33560  0.77040  1.0000 -0.3497960434
N   N25       1.0  0.60080  0.43460  0.31340  1.0000 -0.3497960434
N   N26       1.0  0.39920  0.43460  0.18660  1.0000 -0.3497960434
N   N27       1.0  0.39920  0.56540  0.68660  1.0000 -0.3497960434
N   N28       1.0  0.60080  0.56540  0.81340  1.0000 -0.3497960434
N   N29       1.0  0.55990  0.28950  0.34290  1.0000 -0.3679658674
N   N30       1.0  0.44010  0.28950  0.15710  1.0000 -0.3679658674
N   N31       1.0  0.44010  0.71050  0.65710  1.0000 -0.3679658674
N   N32       1.0  0.55990  0.71050  0.84290  1.0000 -0.3679658674
O   O1        1.0  0.94290  0.90490  0.56068  1.0000 -0.6629502192
O   O2        1.0  0.05710  0.90490  0.93932  1.0000 -0.6629502192
O   O3        1.0  0.05710  0.09510  0.43932  1.0000 -0.6629502192
O   O4        1.0  0.94290  0.09510  0.06068  1.0000 -0.6629502192
O   O5        1.0  0.86100  0.90960  0.47325  1.0000 -0.6395722245
O   O6        1.0  0.13900  0.90960  0.02675  1.0000 -0.6395722245
O   O7        1.0  0.13900  0.09040  0.52675  1.0000 -0.6395722245
O   O8        1.0  0.86100  0.09040  0.97325  1.0000 -0.6395722245
O   O9        1.0  0.56320  0.64870  0.43344  1.0000 -0.5794671491
O   O10       1.0  0.43680  0.64870  0.06656  1.0000 -0.5794671491
O   O11       1.0  0.43680  0.35130  0.56656  1.0000 -0.5794671491
O   O12       1.0  0.56320  0.35130  0.93344  1.0000 -0.5794671491
O   O13       1.0  0.55480  0.61240  0.50813  1.0000 -0.7113110587
O   O14       1.0  0.44520  0.61240  0.99187  1.0000 -0.7113110587
O   O15       1.0  0.44520  0.38760  0.49187  1.0000 -0.7113110587
O   O16       1.0  0.55480  0.38760  0.00813  1.0000 -0.7113110587
O   O17       1.0  0.20400  0.03340  0.66449  1.0000 -0.6088597491
O   O18       1.0  0.79600  0.03340  0.83551  1.0000 -0.6088597491
O   O19       1.0  0.79600  0.96660  0.33551  1.0000 -0.6088597491
O   O20       1.0  0.20400  0.96660  0.16449  1.0000 -0.6088597491
O   O21       1.0  0.11330  0.90110  0.66336  1.0000 -0.6395722245
O   O22       1.0  0.88670  0.90110  0.83664  1.0000 -0.6395722245
O   O23       1.0  0.88670  0.09890  0.33664  1.0000 -0.6395722245
O   O24       1.0  0.11330  0.09890  0.16336  1.0000 -0.6395722245
O   O25       1.0  0.32760  0.60350  0.84735  1.0000 -0.6174781933
O   O26       1.0  0.67240  0.60350  0.65265  1.0000 -0.6174781933
O   O27       1.0  0.67240  0.39650  0.15265  1.0000 -0.6174781933
O   O28       1.0  0.32760  0.39650  0.34735  1.0000 -0.6174781933
O   O29       1.0  0.43660  0.71370  0.89297  1.0000 -0.6088597491
O   O30       1.0  0.56340  0.71370  0.60703  1.0000 -0.6088597491
O   O31       1.0  0.56340  0.28630  0.10703  1.0000 -0.6088597491
O   O32       1.0  0.43660  0.28630  0.39297  1.0000 -0.6088597491
O   O33       1.0  0.04230  0.88020  0.49655  1.0000 -0.7421052322
O   O34       1.0  0.95770  0.88020  0.00345  1.0000 -0.7421052322
O   O35       1.0  0.95770  0.11980  0.50345  1.0000 -0.7421052322
O   O36       1.0  0.04230  0.11980  0.99655  1.0000 -0.7421052322
O   O37       1.0  0.15350  0.86300  0.57319  1.0000 -0.5909031644
O   O38       1.0  0.84650  0.86300  0.92681  1.0000 -0.5909031644
O   O39       1.0  0.84650  0.13700  0.42681  1.0000 -0.5909031644
O   O40       1.0  0.15350  0.13700  0.07319  1.0000 -0.5909031644
O   O41       1.0  0.40340  0.59810  0.53100  1.0000 -0.650077039
O   O42       1.0  0.59660  0.59810  0.96900  1.0000 -0.650077039
O   O43       1.0  0.59660  0.40190  0.46900  1.0000 -0.650077039
O   O44       1.0  0.40340  0.40190  0.03100  1.0000 -0.650077039
O   O45       1.0  0.34870  0.58120  0.44283  1.0000 -0.6395722245
O   O46       1.0  0.65130  0.58120  0.05717  1.0000 -0.6395722245
O   O47       1.0  0.65130  0.41880  0.55717  1.0000 -0.6395722245
O   O48       1.0  0.34870  0.41880  0.94283  1.0000 -0.6395722245
O   O49       1.0  0.00150  0.10490  0.63560  1.0000 -0.6297149673
O   O50       1.0  0.99850  0.10490  0.86440  1.0000 -0.6297149673
O   O51       1.0  0.99850  0.89510  0.36440  1.0000 -0.6297149673
O   O52       1.0  0.00150  0.89510  0.13560  1.0000 -0.6297149673
O   O53       1.0  0.10490  0.23130  0.59880  1.0000 -0.6297149673
O   O54       1.0  0.89510  0.23130  0.90120  1.0000 -0.6297149673
O   O55       1.0  0.89510  0.76870  0.40120  1.0000 -0.6297149673
O   O56       1.0  0.10490  0.76870  0.09880  1.0000 -0.6297149673
O   O57       1.0  0.51110  0.46860  0.35183  1.0000 -0.650077039
O   O58       1.0  0.48890  0.46860  0.14817  1.0000 -0.650077039
O   O59       1.0  0.48890  0.53140  0.64817  1.0000 -0.650077039
O   O60       1.0  0.51110  0.53140  0.85183  1.0000 -0.650077039
O   O61       1.0  0.39400  0.64300  0.35419  1.0000 -0.595361577
O   O62       1.0  0.60600  0.64300  0.14581  1.0000 -0.595361577
O   O63       1.0  0.60600  0.35700  0.64581  1.0000 -0.595361577
O   O64       1.0  0.39400  0.35700  0.85419  1.0000 -0.595361577
