# DDEC6 charges by PACMAN v1.1 (https://github.com/mtap-research/PACMAN-charge/)
data_2011[Cu][pts]3[FSR]1
_chemical_formula_sum              "Cu8 H96 C94 N8 O36"
_cell_length_a       10.0124
_cell_length_b       14.1908
_cell_length_c       21.6482
_cell_angle_alpha    90
_cell_angle_beta     102.265
_cell_angle_gamma    90

_symmetry_space_group_name_H-M    "P 1"
_symmetry_Int_Tables_number       1

loop_
  _symmetry_equiv_pos_as_xyz
  'x, y, z'

loop_
  _atom_site_type_symbol
  _atom_site_label
  _atom_site_symmetry_multiplicity
  _atom_site_fract_x
  _atom_site_fract_y
  _atom_site_fract_z
  _atom_site_occupancy
  _atom_site_charge
Cu  Cu1       1.0  0.06252  0.66638  0.94015  1.0000 0.8499700033
Cu  Cu2       1.0  0.93748  0.66638  0.55985  1.0000 0.8499700033
Cu  Cu3       1.0  0.93748  0.33362  0.05985  1.0000 0.8499700033
Cu  Cu4       1.0  0.06252  0.33362  0.44015  1.0000 0.8499700033
Cu  Cu5       1.0  0.87468  0.49449  0.94807  1.0000 0.8750694
Cu  Cu6       1.0  0.12532  0.49449  0.55193  1.0000 0.8750694
Cu  Cu7       1.0  0.12532  0.50551  0.05193  1.0000 0.8750694
Cu  Cu8       1.0  0.87468  0.50551  0.44807  1.0000 0.8750694
H   H1        1.0  0.93660  0.62600  0.02500  1.0000 0.3876093232
H   H2        1.0  0.06340  0.62600  0.47500  1.0000 0.3876093232
H   H3        1.0  0.06340  0.37400  0.97500  1.0000 0.3876093232
H   H4        1.0  0.93660  0.37400  0.52500  1.0000 0.3876093232
H   H5        1.0  0.90840  0.35740  0.84580  1.0000 0.1193149158
H   H6        1.0  0.09160  0.35740  0.65420  1.0000 0.1193149158
H   H7        1.0  0.09160  0.64260  0.15420  1.0000 0.1193149158
H   H8        1.0  0.90840  0.64260  0.34580  1.0000 0.1193149158
H   H9        1.0  0.43400  0.00630  0.83330  1.0000 0.1013585406
H   H10       1.0  0.56600  0.00630  0.66667  1.0000 0.1013585406
H   H11       1.0  0.56600  0.99370  0.16670  1.0000 0.1013585406
H   H12       1.0  0.43400  0.99370  0.33333  1.0000 0.1013585406
H   H13       1.0  0.54480  0.93190  0.82420  1.0000 0.1116660975
H   H14       1.0  0.45520  0.93190  0.67580  1.0000 0.1116660975
H   H15       1.0  0.45520  0.06810  0.17580  1.0000 0.1116660975
H   H16       1.0  0.54480  0.06810  0.32420  1.0000 0.1116660975
H   H17       1.0  0.41020  0.89110  0.89970  1.0000 0.1438385655
H   H18       1.0  0.58980  0.89110  0.60030  1.0000 0.1438385655
H   H19       1.0  0.58980  0.10890  0.10030  1.0000 0.1438385655
H   H20       1.0  0.41020  0.10890  0.39970  1.0000 0.1438385655
H   H21       1.0  0.64920  0.12690  0.74560  1.0000 0.1013585406
H   H22       1.0  0.35080  0.12690  0.75440  1.0000 0.1013585406
H   H23       1.0  0.35080  0.87310  0.25440  1.0000 0.1013585406
H   H24       1.0  0.64920  0.87310  0.24560  1.0000 0.1013585406
H   H25       1.0  0.69990  0.05080  0.79840  1.0000 0.1116660975
H   H26       1.0  0.30010  0.05080  0.70160  1.0000 0.1116660975
H   H27       1.0  0.30010  0.94920  0.20160  1.0000 0.1116660975
H   H28       1.0  0.69990  0.94920  0.29840  1.0000 0.1116660975
H   H29       1.0  0.80690  0.22260  0.80070  1.0000 0.1510010911
H   H30       1.0  0.19310  0.22260  0.69930  1.0000 0.1510010911
H   H31       1.0  0.19310  0.77740  0.19930  1.0000 0.1510010911
H   H32       1.0  0.80690  0.77740  0.30070  1.0000 0.1510010911
H   H33       1.0  0.06890  0.69170  0.80600  1.0000 0.1193149158
H   H34       1.0  0.93110  0.69170  0.69400  1.0000 0.1193149158
H   H35       1.0  0.93110  0.30830  0.19400  1.0000 0.1193149158
H   H36       1.0  0.06890  0.30830  0.30600  1.0000 0.1193149158
H   H37       1.0  0.17470  0.78210  0.74290  1.0000 0.1583532133
H   H38       1.0  0.82530  0.78210  0.75710  1.0000 0.1583532133
H   H39       1.0  0.82530  0.21790  0.25710  1.0000 0.1583532133
H   H40       1.0  0.17470  0.21790  0.24290  1.0000 0.1583532133
H   H41       1.0  0.29330  0.80150  0.95780  1.0000 0.1116660975
H   H42       1.0  0.70670  0.80150  0.54220  1.0000 0.1116660975
H   H43       1.0  0.70670  0.19850  0.04220  1.0000 0.1116660975
H   H44       1.0  0.29330  0.19850  0.45780  1.0000 0.1116660975
H   H45       1.0  0.51330  0.26140  0.89880  1.0000 0.1583532133
H   H46       1.0  0.48670  0.26140  0.60120  1.0000 0.1583532133
H   H47       1.0  0.48670  0.73860  0.10120  1.0000 0.1583532133
H   H48       1.0  0.51330  0.73860  0.39880  1.0000 0.1583532133
H   H49       1.0  0.22950  0.07490  0.07100  1.0000 0.1193149158
H   H50       1.0  0.77050  0.07490  0.42900  1.0000 0.1193149158
H   H51       1.0  0.77050  0.92510  0.92900  1.0000 0.1193149158
H   H52       1.0  0.22950  0.92510  0.57100  1.0000 0.1193149158
H   H53       1.0  0.62370  0.39520  0.93980  1.0000 0.1292604261
H   H54       1.0  0.37630  0.39520  0.56020  1.0000 0.1292604261
H   H55       1.0  0.37630  0.60480  0.06020  1.0000 0.1292604261
H   H56       1.0  0.62370  0.60480  0.43980  1.0000 0.1292604261
H   H57       1.0  0.18360  0.93110  0.02300  1.0000 0.1116660975
H   H58       1.0  0.81640  0.93110  0.47700  1.0000 0.1116660975
H   H59       1.0  0.81640  0.06890  0.97700  1.0000 0.1116660975
H   H60       1.0  0.18360  0.06890  0.52300  1.0000 0.1116660975
H   H61       1.0  0.89480  0.88050  0.12060  1.0000 0.1193149158
H   H62       1.0  0.10520  0.88050  0.37940  1.0000 0.1193149158
H   H63       1.0  0.10520  0.11950  0.87940  1.0000 0.1193149158
H   H64       1.0  0.89480  0.11950  0.62060  1.0000 0.1193149158
H   H65       1.0  0.64430  0.75890  0.82290  1.0000 0.1438385655
H   H66       1.0  0.35570  0.75890  0.67710  1.0000 0.1438385655
H   H67       1.0  0.35570  0.24110  0.17710  1.0000 0.1438385655
H   H68       1.0  0.64430  0.24110  0.32290  1.0000 0.1438385655
H   H69       1.0  0.57340  0.66010  0.81130  1.0000 0.1583532133
H   H70       1.0  0.42660  0.66010  0.68870  1.0000 0.1583532133
H   H71       1.0  0.42660  0.33990  0.18870  1.0000 0.1583532133
H   H72       1.0  0.57340  0.33990  0.31130  1.0000 0.1583532133
H   H73       1.0  0.56590  0.71770  0.87220  1.0000 0.1510010911
H   H74       1.0  0.43410  0.71770  0.62780  1.0000 0.1510010911
H   H75       1.0  0.43410  0.28230  0.12780  1.0000 0.1510010911
H   H76       1.0  0.56590  0.28230  0.37220  1.0000 0.1510010911
H   H77       1.0  0.10770  0.12410  0.14100  1.0000 0.1193149158
H   H78       1.0  0.89230  0.12410  0.35900  1.0000 0.1193149158
H   H79       1.0  0.89230  0.87590  0.85900  1.0000 0.1193149158
H   H80       1.0  0.10770  0.87590  0.64100  1.0000 0.1193149158
H   H81       1.0  0.94430  0.02890  0.17070  1.0000 0.1116660975
H   H82       1.0  0.05570  0.02890  0.32930  1.0000 0.1116660975
H   H83       1.0  0.05570  0.97110  0.82930  1.0000 0.1116660975
H   H84       1.0  0.94430  0.97110  0.67070  1.0000 0.1116660975
H   H85       1.0  0.17960  0.42650  0.83080  1.0000 0.1510010911
H   H86       1.0  0.82040  0.42650  0.66920  1.0000 0.1510010911
H   H87       1.0  0.82040  0.57350  0.16920  1.0000 0.1510010911
H   H88       1.0  0.17960  0.57350  0.33080  1.0000 0.1510010911
H   H89       1.0  0.32900  0.45520  0.86370  1.0000 0.1583532133
H   H90       1.0  0.67100  0.45520  0.63630  1.0000 0.1583532133
H   H91       1.0  0.67100  0.54480  0.13630  1.0000 0.1583532133
H   H92       1.0  0.32900  0.54480  0.36370  1.0000 0.1583532133
H   H93       1.0  0.25260  0.37660  0.89350  1.0000 0.1583532133
H   H94       1.0  0.74740  0.37660  0.60650  1.0000 0.1583532133
H   H95       1.0  0.74740  0.62340  0.10650  1.0000 0.1583532133
H   H96       1.0  0.25260  0.62340  0.39350  1.0000 0.1583532133
C   C1        1.0  0.82860  0.33680  0.85710  1.0000 0.1013585406
C   C2        1.0  0.17140  0.33680  0.64290  1.0000 0.1013585406
C   C3        1.0  0.17140  0.66320  0.14290  1.0000 0.1013585406
C   C4        1.0  0.82860  0.66320  0.35710  1.0000 0.1013585406
C   C5        1.0  0.30270  0.84900  0.81473  1.0000 0.2799100779
C   C6        1.0  0.69730  0.84900  0.68527  1.0000 0.2799100779
C   C7        1.0  0.69730  0.15100  0.18527  1.0000 0.2799100779
C   C8        1.0  0.30270  0.15100  0.31473  1.0000 0.2799100779
C   C9        1.0  0.46480  0.96650  0.80271  1.0000 -0.0881361691
C   C10       1.0  0.53520  0.96650  0.69729  1.0000 -0.0881361691
C   C11       1.0  0.53520  0.03350  0.19729  1.0000 -0.0881361691
C   C12       1.0  0.46480  0.03350  0.30271  1.0000 -0.0881361691
C   C13       1.0  0.50000  0.02650  0.75000  1.0000 0.0850227006
C   C14       1.0  0.50000  0.97350  0.25000  1.0000 0.0850227006
C   C15       1.0  0.33930  0.85230  0.87956  1.0000 -0.2794723756
C   C16       1.0  0.66070  0.85230  0.62044  1.0000 -0.2794723756
C   C17       1.0  0.66070  0.14770  0.12044  1.0000 -0.2794723756
C   C18       1.0  0.33930  0.14770  0.37956  1.0000 -0.2794723756
C   C19       1.0  0.62250  0.08910  0.77830  1.0000 -0.0815871305
C   C20       1.0  0.37750  0.08910  0.72170  1.0000 -0.0815871305
C   C21       1.0  0.37750  0.91090  0.22170  1.0000 -0.0815871305
C   C22       1.0  0.62250  0.91090  0.27830  1.0000 -0.0815871305
C   C23       1.0  0.76840  0.25610  0.82948  1.0000 -0.2794723756
C   C24       1.0  0.23160  0.25610  0.67052  1.0000 -0.2794723756
C   C25       1.0  0.23160  0.74390  0.17052  1.0000 -0.2794723756
C   C26       1.0  0.76840  0.74390  0.32948  1.0000 -0.2794723756
C   C27       1.0  0.75110  0.65600  0.87735  1.0000 0.6915442549
C   C28       1.0  0.24890  0.65600  0.62265  1.0000 0.6915442549
C   C29       1.0  0.24890  0.34400  0.12265  1.0000 0.6915442549
C   C30       1.0  0.75110  0.34400  0.37735  1.0000 0.6915442549
C   C31       1.0  0.00400  0.79900  0.03340  1.0000 0.5593952589
C   C32       1.0  0.99600  0.79900  0.46660  1.0000 0.5593952589
C   C33       1.0  0.99600  0.20100  0.96660  1.0000 0.5593952589
C   C34       1.0  0.00400  0.20100  0.53340  1.0000 0.5593952589
C   C35       1.0  0.13700  0.73340  0.82492  1.0000 0.1013585406
C   C36       1.0  0.86300  0.73340  0.67508  1.0000 0.1013585406
C   C37       1.0  0.86300  0.26660  0.17508  1.0000 0.1013585406
C   C38       1.0  0.13700  0.26660  0.32492  1.0000 0.1013585406
C   C39       1.0  0.20010  0.78710  0.78671  1.0000 -0.2650682725
C   C40       1.0  0.79990  0.78710  0.71329  1.0000 -0.2650682725
C   C41       1.0  0.79990  0.21290  0.21329  1.0000 -0.2650682725
C   C42       1.0  0.20010  0.21290  0.28671  1.0000 -0.2650682725
C   C43       1.0  0.64990  0.22570  0.84537  1.0000 0.2899232708
C   C44       1.0  0.35010  0.22570  0.65463  1.0000 0.2899232708
C   C45       1.0  0.35010  0.77430  0.15463  1.0000 0.2899232708
C   C46       1.0  0.64990  0.77430  0.34537  1.0000 0.2899232708
C   C47       1.0  0.26960  0.79750  0.91391  1.0000 0.1013585406
C   C48       1.0  0.73040  0.79750  0.58609  1.0000 0.1013585406
C   C49       1.0  0.73040  0.20250  0.08609  1.0000 0.1013585406
C   C50       1.0  0.26960  0.20250  0.41391  1.0000 0.1013585406
C   C51       1.0  0.59440  0.27930  0.88760  1.0000 -0.2591936387
C   C52       1.0  0.40560  0.27930  0.61240  1.0000 -0.2591936387
C   C53       1.0  0.40560  0.72070  0.11240  1.0000 -0.2591936387
C   C54       1.0  0.59440  0.72070  0.38760  1.0000 -0.2591936387
C   C55       1.0  0.16160  0.03670  0.08090  1.0000 -0.0881361691
C   C56       1.0  0.83840  0.03670  0.41910  1.0000 -0.0881361691
C   C57       1.0  0.83840  0.96330  0.91910  1.0000 -0.0881361691
C   C58       1.0  0.16160  0.96330  0.58090  1.0000 -0.0881361691
C   C59       1.0  0.03470  0.89240  0.06620  1.0000 -0.0266669787
C   C60       1.0  0.96530  0.89240  0.43380  1.0000 -0.0266669787
C   C61       1.0  0.96530  0.10760  0.93380  1.0000 -0.0266669787
C   C62       1.0  0.03470  0.10760  0.56620  1.0000 -0.0266669787
C   C63       1.0  0.66180  0.35890  0.91230  1.0000 0.1013585406
C   C64       1.0  0.33820  0.35890  0.58770  1.0000 0.1013585406
C   C65       1.0  0.33820  0.64110  0.08770  1.0000 0.1013585406
C   C66       1.0  0.66180  0.64110  0.41230  1.0000 0.1013585406
C   C67       1.0  0.18600  0.50890  0.90870  1.0000 0.6666444742
C   C68       1.0  0.81400  0.50890  0.59130  1.0000 0.6666444742
C   C69       1.0  0.81400  0.49110  0.09130  1.0000 0.6666444742
C   C70       1.0  0.18600  0.49110  0.40870  1.0000 0.6666444742
C   C71       1.0  0.13380  0.95060  0.05250  1.0000 -0.1090326136
C   C72       1.0  0.86620  0.95060  0.44750  1.0000 -0.1090326136
C   C73       1.0  0.86620  0.04940  0.94750  1.0000 -0.1090326136
C   C74       1.0  0.13380  0.04940  0.55250  1.0000 -0.1090326136
C   C75       1.0  0.96160  0.91950  0.11040  1.0000 -0.1238454658
C   C76       1.0  0.03840  0.91950  0.38960  1.0000 -0.1238454658
C   C77       1.0  0.03840  0.08050  0.88960  1.0000 -0.1238454658
C   C78       1.0  0.96160  0.08050  0.61040  1.0000 -0.1238454658
C   C79       1.0  0.62210  0.70240  0.84280  1.0000 -0.5995775061
C   C80       1.0  0.37790  0.70240  0.65720  1.0000 -0.5995775061
C   C81       1.0  0.37790  0.29760  0.15720  1.0000 -0.5995775061
C   C82       1.0  0.62210  0.29760  0.34280  1.0000 -0.5995775061
C   C83       1.0  0.09040  0.06490  0.12280  1.0000 -0.0881361691
C   C84       1.0  0.90960  0.06490  0.37720  1.0000 -0.0881361691
C   C85       1.0  0.90960  0.93510  0.87720  1.0000 -0.0881361691
C   C86       1.0  0.09040  0.93510  0.62280  1.0000 -0.0881361691
C   C87       1.0  0.99080  0.00870  0.14020  1.0000 -0.1090326136
C   C88       1.0  0.00920  0.00870  0.35980  1.0000 -0.1090326136
C   C89       1.0  0.00920  0.99130  0.85980  1.0000 -0.1090326136
C   C90       1.0  0.99080  0.99130  0.64020  1.0000 -0.1090326136
C   C91       1.0  0.24190  0.43510  0.87070  1.0000 -0.569444065
C   C92       1.0  0.75810  0.43510  0.62930  1.0000 -0.569444065
C   C93       1.0  0.75810  0.56490  0.12930  1.0000 -0.569444065
C   C94       1.0  0.24190  0.56490  0.37070  1.0000 -0.569444065
N   N1        1.0  0.77960  0.38720  0.89887  1.0000 -0.2452659889
N   N2        1.0  0.22040  0.38720  0.60113  1.0000 -0.2452659889
N   N3        1.0  0.22040  0.61280  0.10113  1.0000 -0.2452659889
N   N4        1.0  0.77960  0.61280  0.39887  1.0000 -0.2452659889
N   N5        1.0  0.16880  0.73820  0.88793  1.0000 -0.2452659889
N   N6        1.0  0.83120  0.73820  0.61207  1.0000 -0.2452659889
N   N7        1.0  0.83120  0.26180  0.11207  1.0000 -0.2452659889
N   N8        1.0  0.16880  0.26180  0.38793  1.0000 -0.2452659889
O   O1        1.0  0.98770  0.58880  0.99965  1.0000 -0.828453908
O   O2        1.0  0.01230  0.58880  0.50035  1.0000 -0.828453908
O   O3        1.0  0.01230  0.41120  0.00035  1.0000 -0.828453908
O   O4        1.0  0.98770  0.41120  0.49965  1.0000 -0.828453908
O   O5        1.0  0.35840  0.90219  0.77467  1.0000 -0.1833853222
O   O6        1.0  0.64160  0.90219  0.72533  1.0000 -0.1833853222
O   O7        1.0  0.64160  0.09781  0.22533  1.0000 -0.1833853222
O   O8        1.0  0.35840  0.09781  0.27467  1.0000 -0.1833853222
O   O9        1.0  0.57870  0.14794  0.82368  1.0000 -0.1730585642
O   O10       1.0  0.42130  0.14794  0.67632  1.0000 -0.1730585642
O   O11       1.0  0.42130  0.85206  0.17632  1.0000 -0.1730585642
O   O12       1.0  0.57870  0.85206  0.32368  1.0000 -0.1730585642
O   O13       1.0  0.73500  0.57967  0.90647  1.0000 -0.569444065
O   O14       1.0  0.26500  0.57967  0.59353  1.0000 -0.569444065
O   O15       1.0  0.26500  0.42033  0.09353  1.0000 -0.569444065
O   O16       1.0  0.73500  0.42033  0.40647  1.0000 -0.569444065
O   O17       1.0  0.07960  0.77588  0.99648  1.0000 -0.5411957002
O   O18       1.0  0.92040  0.77588  0.50352  1.0000 -0.5411957002
O   O19       1.0  0.92040  0.22412  0.00352  1.0000 -0.5411957002
O   O20       1.0  0.07960  0.22412  0.49648  1.0000 -0.5411957002
O   O21       1.0  0.07310  0.54720  0.88950  1.0000 -0.569444065
O   O22       1.0  0.92690  0.54720  0.61050  1.0000 -0.569444065
O   O23       1.0  0.92690  0.45280  0.11050  1.0000 -0.569444065
O   O24       1.0  0.07310  0.45280  0.38950  1.0000 -0.569444065
O   O25       1.0  0.86170  0.69290  0.87586  1.0000 -0.5995775061
O   O26       1.0  0.13830  0.69290  0.62414  1.0000 -0.5995775061
O   O27       1.0  0.13830  0.30710  0.12414  1.0000 -0.5995775061
O   O28       1.0  0.86170  0.30710  0.37586  1.0000 -0.5995775061
O   O29       1.0  0.90730  0.74810  0.04410  1.0000 -0.5458704628
O   O30       1.0  0.09270  0.74810  0.45590  1.0000 -0.5458704628
O   O31       1.0  0.09270  0.25190  0.95590  1.0000 -0.5458704628
O   O32       1.0  0.90730  0.25190  0.54410  1.0000 -0.5458704628
O   O33       1.0  0.25750  0.52580  0.96171  1.0000 -0.5995775061
O   O34       1.0  0.74250  0.52580  0.53829  1.0000 -0.5995775061
O   O35       1.0  0.74250  0.47420  0.03829  1.0000 -0.5995775061
O   O36       1.0  0.25750  0.47420  0.46171  1.0000 -0.5995775061
