# DDEC6 charges by PACMAN v1.1 (https://github.com/mtap-research/PACMAN-charge/)
data_2011[Cd][nuc]3[FSR]2
_chemical_formula_sum              "Cd4 H144 C192 N48"
_cell_length_a       15.9014
_cell_length_b       15.9014
_cell_length_c       21.666
_cell_angle_alpha    90
_cell_angle_beta     90
_cell_angle_gamma    90

_symmetry_space_group_name_H-M    "P 1"
_symmetry_Int_Tables_number       1

loop_
  _symmetry_equiv_pos_as_xyz
  'x, y, z'

loop_
  _atom_site_type_symbol
  _atom_site_label
  _atom_site_symmetry_multiplicity
  _atom_site_fract_x
  _atom_site_fract_y
  _atom_site_fract_z
  _atom_site_occupancy
  _atom_site_charge
Cd  Cd1       1.0  0.05826  0.94174  0.25000  1.0000 0.6412462845
Cd  Cd2       1.0  0.94174  0.05826  0.75000  1.0000 0.6412462845
Cd  Cd3       1.0  0.55826  0.55826  0.50000  1.0000 0.6412462845
Cd  Cd4       1.0  0.44174  0.44174  0.00000  1.0000 0.6412462845
H   H1        1.0  0.99150  0.76410  0.32260  1.0000 0.0934016151
H   H2        1.0  0.00850  0.23590  0.82260  1.0000 0.0934016151
H   H3        1.0  0.73590  0.49150  0.57260  1.0000 0.0934016151
H   H4        1.0  0.26410  0.50850  0.07260  1.0000 0.0934016151
H   H5        1.0  0.50850  0.26410  0.92740  1.0000 0.0934016151
H   H6        1.0  0.49150  0.73590  0.42740  1.0000 0.0934016151
H   H7        1.0  0.76410  0.99150  0.67740  1.0000 0.0934016151
H   H8        1.0  0.23590  0.00850  0.17740  1.0000 0.0934016151
H   H9        1.0  0.89640  0.65470  0.31330  1.0000 0.1277574302
H   H10       1.0  0.10360  0.34530  0.81330  1.0000 0.1277574302
H   H11       1.0  0.84530  0.39640  0.56330  1.0000 0.1277574302
H   H12       1.0  0.15470  0.60360  0.06330  1.0000 0.1277574302
H   H13       1.0  0.60360  0.15470  0.93670  1.0000 0.1277574302
H   H14       1.0  0.39640  0.84530  0.43670  1.0000 0.1277574302
H   H15       1.0  0.65470  0.89640  0.68670  1.0000 0.1277574302
H   H16       1.0  0.34530  0.10360  0.18670  1.0000 0.1277574302
H   H17       1.0  0.84360  0.73780  0.14110  1.0000 0.1277574302
H   H18       1.0  0.15640  0.26220  0.64110  1.0000 0.1277574302
H   H19       1.0  0.76220  0.34360  0.39110  1.0000 0.1277574302
H   H20       1.0  0.23780  0.65640  0.89110  1.0000 0.1277574302
H   H21       1.0  0.65640  0.23780  0.10890  1.0000 0.1277574302
H   H22       1.0  0.34360  0.76220  0.60890  1.0000 0.1277574302
H   H23       1.0  0.73780  0.84360  0.85890  1.0000 0.1277574302
H   H24       1.0  0.26220  0.15640  0.35890  1.0000 0.1277574302
H   H25       1.0  0.93900  0.84450  0.15640  1.0000 0.0990353489
H   H26       1.0  0.06100  0.15550  0.65640  1.0000 0.0990353489
H   H27       1.0  0.65550  0.43900  0.40640  1.0000 0.0990353489
H   H28       1.0  0.34450  0.56100  0.90640  1.0000 0.0990353489
H   H29       1.0  0.56100  0.34450  0.09360  1.0000 0.0990353489
H   H30       1.0  0.43900  0.65550  0.59360  1.0000 0.0990353489
H   H31       1.0  0.84450  0.93900  0.84360  1.0000 0.0990353489
H   H32       1.0  0.15550  0.06100  0.34360  1.0000 0.0990353489
H   H33       1.0  0.83390  0.54100  0.28670  1.0000 0.110958442
H   H34       1.0  0.16610  0.45900  0.78670  1.0000 0.110958442
H   H35       1.0  0.95900  0.33390  0.53670  1.0000 0.110958442
H   H36       1.0  0.04100  0.66610  0.03670  1.0000 0.110958442
H   H37       1.0  0.66610  0.04100  0.96330  1.0000 0.110958442
H   H38       1.0  0.33390  0.95900  0.46330  1.0000 0.110958442
H   H39       1.0  0.54100  0.83390  0.71330  1.0000 0.110958442
H   H40       1.0  0.45900  0.16610  0.21330  1.0000 0.110958442
H   H41       1.0  0.73060  0.43910  0.27760  1.0000 0.110958442
H   H42       1.0  0.26940  0.56090  0.77760  1.0000 0.110958442
H   H43       1.0  0.06090  0.23060  0.52760  1.0000 0.110958442
H   H44       1.0  0.93910  0.76940  0.02760  1.0000 0.110958442
H   H45       1.0  0.76940  0.93910  0.97240  1.0000 0.110958442
H   H46       1.0  0.23060  0.06090  0.47240  1.0000 0.110958442
H   H47       1.0  0.43910  0.73060  0.72240  1.0000 0.110958442
H   H48       1.0  0.56090  0.26940  0.22240  1.0000 0.110958442
H   H49       1.0  0.61920  0.45710  0.20850  1.0000 0.110958442
H   H50       1.0  0.38080  0.54290  0.70850  1.0000 0.110958442
H   H51       1.0  0.04290  0.11920  0.45850  1.0000 0.110958442
H   H52       1.0  0.95710  0.88080  0.95850  1.0000 0.110958442
H   H53       1.0  0.88080  0.95710  0.04150  1.0000 0.110958442
H   H54       1.0  0.11920  0.04290  0.54150  1.0000 0.110958442
H   H55       1.0  0.45710  0.61920  0.79150  1.0000 0.110958442
H   H56       1.0  0.54290  0.38080  0.29150  1.0000 0.110958442
H   H57       1.0  0.72210  0.67760  0.15340  1.0000 0.0990353489
H   H58       1.0  0.27790  0.32240  0.65340  1.0000 0.0990353489
H   H59       1.0  0.82240  0.22210  0.40340  1.0000 0.0990353489
H   H60       1.0  0.17760  0.77790  0.90340  1.0000 0.0990353489
H   H61       1.0  0.77790  0.17760  0.09660  1.0000 0.0990353489
H   H62       1.0  0.22210  0.82240  0.59660  1.0000 0.0990353489
H   H63       1.0  0.67760  0.72210  0.84660  1.0000 0.0990353489
H   H64       1.0  0.32240  0.27790  0.34660  1.0000 0.0990353489
H   H65       1.0  0.50420  0.70240  0.95650  1.0000 0.110958442
H   H66       1.0  0.49580  0.29760  0.45650  1.0000 0.110958442
H   H67       1.0  0.79760  0.00420  0.20650  1.0000 0.110958442
H   H68       1.0  0.20240  0.99580  0.70650  1.0000 0.110958442
H   H69       1.0  0.99580  0.20240  0.29350  1.0000 0.110958442
H   H70       1.0  0.00420  0.79760  0.79350  1.0000 0.110958442
H   H71       1.0  0.70240  0.50420  0.04350  1.0000 0.110958442
H   H72       1.0  0.29760  0.49580  0.54350  1.0000 0.110958442
H   H73       1.0  0.41190  0.80220  0.91310  1.0000 0.110958442
H   H74       1.0  0.58810  0.19780  0.41310  1.0000 0.110958442
H   H75       1.0  0.69780  0.91190  0.16310  1.0000 0.110958442
H   H76       1.0  0.30220  0.08810  0.66310  1.0000 0.110958442
H   H77       1.0  0.08810  0.30220  0.33690  1.0000 0.110958442
H   H78       1.0  0.91190  0.69780  0.83690  1.0000 0.110958442
H   H79       1.0  0.80220  0.41190  0.08690  1.0000 0.110958442
H   H80       1.0  0.19780  0.58810  0.58690  1.0000 0.110958442
H   H81       1.0  0.29820  0.85290  0.96880  1.0000 0.0990353489
H   H82       1.0  0.70180  0.14710  0.46880  1.0000 0.0934016151
H   H83       1.0  0.64710  0.79820  0.21880  1.0000 0.0990353489
H   H84       1.0  0.35290  0.20180  0.71880  1.0000 0.0934016151
H   H85       1.0  0.20180  0.35290  0.28120  1.0000 0.0934016151
H   H86       1.0  0.79820  0.64710  0.78120  1.0000 0.0990353489
H   H87       1.0  0.85290  0.29820  0.03120  1.0000 0.0990353489
H   H88       1.0  0.14710  0.70180  0.53120  1.0000 0.0990353489
H   H89       1.0  0.36060  0.69960  0.11080  1.0000 0.110958442
H   H90       1.0  0.63940  0.30040  0.61080  1.0000 0.110958442
H   H91       1.0  0.80040  0.86060  0.36080  1.0000 0.110958442
H   H92       1.0  0.19960  0.13940  0.86080  1.0000 0.110958442
H   H93       1.0  0.13940  0.19960  0.13920  1.0000 0.110958442
H   H94       1.0  0.86060  0.80040  0.63920  1.0000 0.110958442
H   H95       1.0  0.69960  0.36060  0.88920  1.0000 0.110958442
H   H96       1.0  0.30040  0.63940  0.38920  1.0000 0.110958442
H   H97       1.0  0.21650  0.91810  0.03460  1.0000 0.1277574302
H   H98       1.0  0.78350  0.08190  0.53460  1.0000 0.1277574302
H   H99       1.0  0.58190  0.71650  0.28460  1.0000 0.1277574302
H   H100      1.0  0.41810  0.28350  0.78460  1.0000 0.1277574302
H   H101      1.0  0.28350  0.41810  0.21540  1.0000 0.1277574302
H   H102      1.0  0.71650  0.58190  0.71540  1.0000 0.1277574302
H   H103      1.0  0.91810  0.21650  0.96540  1.0000 0.1277574302
H   H104      1.0  0.08190  0.78350  0.46540  1.0000 0.1277574302
H   H105      1.0  0.11010  0.96390  0.09800  1.0000 0.0990353489
H   H106      1.0  0.88990  0.03610  0.59800  1.0000 0.0990353489
H   H107      1.0  0.53610  0.61010  0.34800  1.0000 0.0990353489
H   H108      1.0  0.46390  0.38990  0.84800  1.0000 0.0990353489
H   H109      1.0  0.38990  0.46390  0.15200  1.0000 0.0990353489
H   H110      1.0  0.61010  0.53610  0.65200  1.0000 0.0990353489
H   H111      1.0  0.96390  0.11010  0.90200  1.0000 0.0990353489
H   H112      1.0  0.03610  0.88990  0.40200  1.0000 0.0990353489
H   H113      1.0  0.14160  0.77130  0.20890  1.0000 0.0990353489
H   H114      1.0  0.85840  0.22870  0.70890  1.0000 0.0990353489
H   H115      1.0  0.72870  0.64160  0.45890  1.0000 0.0990353489
H   H116      1.0  0.27130  0.35840  0.95890  1.0000 0.0990353489
H   H117      1.0  0.35840  0.27130  0.04110  1.0000 0.0990353489
H   H118      1.0  0.64160  0.72870  0.54110  1.0000 0.0990353489
H   H119      1.0  0.77130  0.14160  0.79110  1.0000 0.0990353489
H   H120      1.0  0.22870  0.85840  0.29110  1.0000 0.0990353489
H   H121      1.0  0.24090  0.71460  0.14510  1.0000 0.1277574302
H   H122      1.0  0.75910  0.28540  0.64510  1.0000 0.1277574302
H   H123      1.0  0.78540  0.74090  0.39510  1.0000 0.1277574302
H   H124      1.0  0.21460  0.25910  0.89510  1.0000 0.1277574302
H   H125      1.0  0.25910  0.21460  0.10490  1.0000 0.1277574302
H   H126      1.0  0.74090  0.78540  0.60490  1.0000 0.1277574302
H   H127      1.0  0.71460  0.24090  0.85490  1.0000 0.1277574302
H   H128      1.0  0.28540  0.75910  0.35490  1.0000 0.1277574302
H   H129      1.0  0.52490  0.74860  0.14080  1.0000 0.2479006354
H   H130      1.0  0.47510  0.25140  0.64080  1.0000 0.2479006354
H   H131      1.0  0.75140  0.02490  0.39080  1.0000 0.2479006354
H   H132      1.0  0.24860  0.97510  0.89080  1.0000 0.2479006354
H   H133      1.0  0.97510  0.24860  0.10920  1.0000 0.2479006354
H   H134      1.0  0.02490  0.75140  0.60920  1.0000 0.2479006354
H   H135      1.0  0.74860  0.52490  0.85920  1.0000 0.2479006354
H   H136      1.0  0.25140  0.47510  0.35920  1.0000 0.2479006354
H   H137      1.0  0.60370  0.75960  0.10140  1.0000 0.2438993893
H   H138      1.0  0.39630  0.24040  0.60140  1.0000 0.2479006354
H   H139      1.0  0.74040  0.10370  0.35140  1.0000 0.2479006354
H   H140      1.0  0.25960  0.89630  0.85140  1.0000 0.2438993893
H   H141      1.0  0.89630  0.25960  0.14860  1.0000 0.2438993893
H   H142      1.0  0.10370  0.74040  0.64860  1.0000 0.2479006354
H   H143      1.0  0.75960  0.60370  0.89860  1.0000 0.2438993893
H   H144      1.0  0.24040  0.39630  0.39860  1.0000 0.2479006354
C   C1        1.0  0.96060  0.75860  0.28520  1.0000 0.0522065878
C   C2        1.0  0.03940  0.24140  0.78520  1.0000 0.0522065878
C   C3        1.0  0.74140  0.46060  0.53520  1.0000 0.0522065878
C   C4        1.0  0.25860  0.53940  0.03520  1.0000 0.0522065878
C   C5        1.0  0.53940  0.25860  0.96480  1.0000 0.0522065878
C   C6        1.0  0.46060  0.74140  0.46480  1.0000 0.0522065878
C   C7        1.0  0.75860  0.96060  0.71480  1.0000 0.0522065878
C   C8        1.0  0.24140  0.03940  0.21480  1.0000 0.0522065878
C   C9        1.0  0.90350  0.69320  0.28020  1.0000 -0.2077308197
C   C10       1.0  0.09650  0.30680  0.78020  1.0000 -0.2077308197
C   C11       1.0  0.80680  0.40350  0.53020  1.0000 -0.2077308197
C   C12       1.0  0.19320  0.59650  0.03020  1.0000 -0.2077308197
C   C13       1.0  0.59650  0.19320  0.96980  1.0000 -0.2077308197
C   C14       1.0  0.40350  0.80680  0.46980  1.0000 -0.2077308197
C   C15       1.0  0.69320  0.90350  0.71980  1.0000 -0.2077308197
C   C16       1.0  0.30680  0.09650  0.21980  1.0000 -0.2077308197
C   C17       1.0  0.85660  0.68410  0.22620  1.0000 0.1160263878
C   C18       1.0  0.14340  0.31590  0.72620  1.0000 0.1160263878
C   C19       1.0  0.81590  0.35660  0.47620  1.0000 0.1160263878
C   C20       1.0  0.18410  0.64340  0.97620  1.0000 0.1160263878
C   C21       1.0  0.64340  0.18410  0.02380  1.0000 0.1160263878
C   C22       1.0  0.35660  0.81590  0.52380  1.0000 0.1160263878
C   C23       1.0  0.68410  0.85660  0.77380  1.0000 0.1160263878
C   C24       1.0  0.31590  0.14340  0.27380  1.0000 0.1160263878
C   C25       1.0  0.87240  0.74190  0.17940  1.0000 -0.2077308197
C   C26       1.0  0.12760  0.25810  0.67940  1.0000 -0.2077308197
C   C27       1.0  0.75810  0.37240  0.42940  1.0000 -0.2007654683
C   C28       1.0  0.24190  0.62760  0.92940  1.0000 -0.2077308197
C   C29       1.0  0.62760  0.24190  0.07060  1.0000 -0.2077308197
C   C30       1.0  0.37240  0.75810  0.57060  1.0000 -0.2007654683
C   C31       1.0  0.74190  0.87240  0.82060  1.0000 -0.2077308197
C   C32       1.0  0.25810  0.12760  0.32060  1.0000 -0.2077308197
C   C33       1.0  0.93030  0.80520  0.18880  1.0000 0.0714227052
C   C34       1.0  0.06970  0.19480  0.68880  1.0000 0.0714227052
C   C35       1.0  0.69480  0.43030  0.43880  1.0000 0.0714227052
C   C36       1.0  0.30520  0.56970  0.93880  1.0000 0.0714227052
C   C37       1.0  0.56970  0.30520  0.06120  1.0000 0.0714227052
C   C38       1.0  0.43030  0.69480  0.56120  1.0000 0.0714227052
C   C39       1.0  0.80520  0.93030  0.81120  1.0000 0.0714227052
C   C40       1.0  0.19480  0.06970  0.31120  1.0000 0.0714227052
C   C41       1.0  0.78950  0.61840  0.22010  1.0000 0.0714227052
C   C42       1.0  0.21050  0.38160  0.72010  1.0000 0.0714227052
C   C43       1.0  0.88160  0.28950  0.47010  1.0000 0.0714227052
C   C44       1.0  0.11840  0.71050  0.97010  1.0000 0.0714227052
C   C45       1.0  0.71050  0.11840  0.02990  1.0000 0.0714227052
C   C46       1.0  0.28950  0.88160  0.52990  1.0000 0.0714227052
C   C47       1.0  0.61840  0.78950  0.77990  1.0000 0.0714227052
C   C48       1.0  0.38160  0.21050  0.27990  1.0000 0.0714227052
C   C49       1.0  0.79010  0.54810  0.25730  1.0000 -0.1602752701
C   C50       1.0  0.20990  0.45190  0.75730  1.0000 -0.1602752701
C   C51       1.0  0.95190  0.29010  0.50730  1.0000 -0.1602752701
C   C52       1.0  0.04810  0.70990  0.00730  1.0000 -0.1602752701
C   C53       1.0  0.70990  0.04810  0.99270  1.0000 -0.1602752701
C   C54       1.0  0.29010  0.95190  0.49270  1.0000 -0.1602752701
C   C55       1.0  0.54810  0.79010  0.74270  1.0000 -0.1602752701
C   C56       1.0  0.45190  0.20990  0.24270  1.0000 -0.1602752701
C   C57       1.0  0.72820  0.48800  0.25240  1.0000 -0.1093544744
C   C58       1.0  0.27180  0.51200  0.75240  1.0000 -0.1093544744
C   C59       1.0  0.01200  0.22820  0.50240  1.0000 -0.1093544744
C   C60       1.0  0.98800  0.77180  0.00240  1.0000 -0.1093544744
C   C61       1.0  0.77180  0.98800  0.99760  1.0000 -0.1093544744
C   C62       1.0  0.22820  0.01200  0.49760  1.0000 -0.1093544744
C   C63       1.0  0.48800  0.72820  0.74760  1.0000 -0.1093544744
C   C64       1.0  0.51200  0.27180  0.24760  1.0000 -0.1093544744
C   C65       1.0  0.66240  0.49820  0.21130  1.0000 -0.1602752701
C   C66       1.0  0.33760  0.50180  0.71130  1.0000 -0.1602752701
C   C67       1.0  0.00180  0.16240  0.46130  1.0000 -0.1602752701
C   C68       1.0  0.99820  0.83760  0.96130  1.0000 -0.1602752701
C   C69       1.0  0.83760  0.99820  0.03870  1.0000 -0.1602752701
C   C70       1.0  0.16240  0.00180  0.53870  1.0000 -0.1602752701
C   C71       1.0  0.49820  0.66240  0.78870  1.0000 -0.1602752701
C   C72       1.0  0.50180  0.33760  0.28870  1.0000 -0.1602752701
C   C73       1.0  0.66060  0.56950  0.17420  1.0000 0.0408870244
C   C74       1.0  0.33940  0.43050  0.67420  1.0000 0.0408870244
C   C75       1.0  0.93050  0.16060  0.42420  1.0000 0.0408870244
C   C76       1.0  0.06950  0.83940  0.92420  1.0000 0.0408870244
C   C77       1.0  0.83940  0.06950  0.07580  1.0000 0.0408870244
C   C78       1.0  0.16060  0.93050  0.57580  1.0000 0.0408870244
C   C79       1.0  0.56950  0.66060  0.82580  1.0000 0.0408870244
C   C80       1.0  0.43050  0.33940  0.32580  1.0000 0.0408870244
C   C81       1.0  0.72380  0.62900  0.17880  1.0000 -0.2007654683
C   C82       1.0  0.27620  0.37100  0.67880  1.0000 -0.2007654683
C   C83       1.0  0.87100  0.22380  0.42880  1.0000 -0.2007654683
C   C84       1.0  0.12900  0.77620  0.92880  1.0000 -0.2007654683
C   C85       1.0  0.77620  0.12900  0.07120  1.0000 -0.2007654683
C   C86       1.0  0.22380  0.87100  0.57120  1.0000 -0.2007654683
C   C87       1.0  0.62900  0.72380  0.82120  1.0000 -0.2007654683
C   C88       1.0  0.37100  0.27620  0.32120  1.0000 -0.2007654683
C   C89       1.0  0.59100  0.57790  0.13040  1.0000 0.1676352202
C   C90       1.0  0.40900  0.42210  0.63040  1.0000 0.1676352202
C   C91       1.0  0.92210  0.09100  0.38040  1.0000 0.1676352202
C   C92       1.0  0.07790  0.90900  0.88040  1.0000 0.1676352202
C   C93       1.0  0.90900  0.07790  0.11960  1.0000 0.1676352202
C   C94       1.0  0.09100  0.92210  0.61960  1.0000 0.1676352202
C   C95       1.0  0.57790  0.59100  0.86960  1.0000 0.1676352202
C   C96       1.0  0.42210  0.40900  0.36960  1.0000 0.1676352202
C   C97       1.0  0.49470  0.62850  0.06860  1.0000 0.1539226993
C   C98       1.0  0.50530  0.37150  0.56860  1.0000 0.1555708601
C   C99       1.0  0.87150  0.99470  0.31860  1.0000 0.1539226993
C   C100      1.0  0.12850  0.00530  0.81860  1.0000 0.1555708601
C   C101      1.0  0.00530  0.12850  0.18140  1.0000 0.1539226993
C   C102      1.0  0.99470  0.87150  0.68140  1.0000 0.1539226993
C   C103      1.0  0.62850  0.49470  0.93140  1.0000 0.1539226993
C   C104      1.0  0.37150  0.50530  0.43140  1.0000 0.1555708601
C   C105      1.0  0.43920  0.69090  0.03820  1.0000 0.0303939153
C   C106      1.0  0.56080  0.30910  0.53820  1.0000 0.0303939153
C   C107      1.0  0.80910  0.93920  0.28820  1.0000 0.0303939153
C   C108      1.0  0.19090  0.06080  0.78820  1.0000 0.0303939153
C   C109      1.0  0.06080  0.19090  0.21180  1.0000 0.0303939153
C   C110      1.0  0.93920  0.80910  0.71180  1.0000 0.0303939153
C   C111      1.0  0.69090  0.43920  0.96180  1.0000 0.0303939153
C   C112      1.0  0.30910  0.56080  0.46180  1.0000 0.0303939153
C   C113      1.0  0.45670  0.72170  0.97890  1.0000 -0.1705587291
C   C114      1.0  0.54330  0.27830  0.47890  1.0000 -0.1705587291
C   C115      1.0  0.77830  0.95670  0.22890  1.0000 -0.1705587291
C   C116      1.0  0.22170  0.04330  0.72890  1.0000 -0.1705587291
C   C117      1.0  0.04330  0.22170  0.27110  1.0000 -0.1705587291
C   C118      1.0  0.95670  0.77830  0.77110  1.0000 -0.1705587291
C   C119      1.0  0.72170  0.45670  0.02110  1.0000 -0.1705587291
C   C120      1.0  0.27830  0.54330  0.52110  1.0000 -0.1705587291
C   C121      1.0  0.40190  0.78170  0.95360  1.0000 -0.1038149306
C   C122      1.0  0.59810  0.21830  0.45360  1.0000 -0.1038149306
C   C123      1.0  0.71830  0.90190  0.20360  1.0000 -0.1038149306
C   C124      1.0  0.28170  0.09810  0.70360  1.0000 -0.1038149306
C   C125      1.0  0.09810  0.28170  0.29640  1.0000 -0.1038149306
C   C126      1.0  0.90190  0.71830  0.79640  1.0000 -0.1038149306
C   C127      1.0  0.78170  0.40190  0.04640  1.0000 -0.1038149306
C   C128      1.0  0.21830  0.59810  0.54640  1.0000 -0.1038149306
C   C129      1.0  0.33400  0.81160  0.98650  1.0000 -0.1705587291
C   C130      1.0  0.66600  0.18840  0.48650  1.0000 -0.1705587291
C   C131      1.0  0.68840  0.83400  0.23650  1.0000 -0.1705587291
C   C132      1.0  0.31160  0.16600  0.73650  1.0000 -0.1705587291
C   C133      1.0  0.16600  0.31160  0.26350  1.0000 -0.1705587291
C   C134      1.0  0.83400  0.68840  0.76350  1.0000 -0.1705587291
C   C135      1.0  0.81160  0.33400  0.01350  1.0000 -0.1705587291
C   C136      1.0  0.18840  0.66600  0.51350  1.0000 -0.1705587291
C   C137      1.0  0.31750  0.78060  0.04630  1.0000 0.0714227052
C   C138      1.0  0.68250  0.21940  0.54630  1.0000 0.0714227052
C   C139      1.0  0.71940  0.81750  0.29630  1.0000 0.0714227052
C   C140      1.0  0.28060  0.18250  0.79630  1.0000 0.0714227052
C   C141      1.0  0.18250  0.28060  0.20370  1.0000 0.0714227052
C   C142      1.0  0.81750  0.71940  0.70370  1.0000 0.0714227052
C   C143      1.0  0.78060  0.31750  0.95370  1.0000 0.0714227052
C   C144      1.0  0.21940  0.68250  0.45370  1.0000 0.0714227052
C   C145      1.0  0.37120  0.72070  0.07050  1.0000 -0.2077308197
C   C146      1.0  0.62880  0.27930  0.57050  1.0000 -0.2077308197
C   C147      1.0  0.77930  0.87120  0.32050  1.0000 -0.2077308197
C   C148      1.0  0.22070  0.12880  0.82050  1.0000 -0.2077308197
C   C149      1.0  0.12880  0.22070  0.17950  1.0000 -0.2077308197
C   C150      1.0  0.87120  0.77930  0.67950  1.0000 -0.2077308197
C   C151      1.0  0.72070  0.37120  0.92950  1.0000 -0.2077308197
C   C152      1.0  0.27930  0.62880  0.42950  1.0000 -0.2077308197
C   C153      1.0  0.24540  0.81120  0.08360  1.0000 0.1160263878
C   C154      1.0  0.75460  0.18880  0.58360  1.0000 0.110958442
C   C155      1.0  0.68880  0.74540  0.33360  1.0000 0.1160263878
C   C156      1.0  0.31120  0.25460  0.83360  1.0000 0.1160263878
C   C157      1.0  0.25460  0.31120  0.16640  1.0000 0.1160263878
C   C158      1.0  0.74540  0.68880  0.66640  1.0000 0.1160263878
C   C159      1.0  0.81120  0.24540  0.91640  1.0000 0.110958442
C   C160      1.0  0.18880  0.75460  0.41640  1.0000 0.110958442
C   C161      1.0  0.20240  0.88670  0.07040  1.0000 -0.2077308197
C   C162      1.0  0.79760  0.11330  0.57040  1.0000 -0.2077308197
C   C163      1.0  0.61330  0.70240  0.32040  1.0000 -0.2077308197
C   C164      1.0  0.38670  0.29760  0.82040  1.0000 -0.2077308197
C   C165      1.0  0.29760  0.38670  0.17960  1.0000 -0.2077308197
C   C166      1.0  0.70240  0.61330  0.67960  1.0000 -0.2077308197
C   C167      1.0  0.88670  0.20240  0.92960  1.0000 -0.2077308197
C   C168      1.0  0.11330  0.79760  0.42960  1.0000 -0.2077308197
C   C169      1.0  0.14040  0.91480  0.10930  1.0000 0.056832052
C   C170      1.0  0.85960  0.08520  0.60930  1.0000 0.056832052
C   C171      1.0  0.58520  0.64040  0.35930  1.0000 0.056832052
C   C172      1.0  0.41480  0.35960  0.85930  1.0000 0.056832052
C   C173      1.0  0.35960  0.41480  0.14070  1.0000 0.056832052
C   C174      1.0  0.64040  0.58520  0.64070  1.0000 0.056832052
C   C175      1.0  0.91480  0.14040  0.89070  1.0000 0.056832052
C   C176      1.0  0.08520  0.85960  0.39070  1.0000 0.056832052
C   C177      1.0  0.15780  0.80190  0.17320  1.0000 0.0303939153
C   C178      1.0  0.84220  0.19810  0.67320  1.0000 0.0303939153
C   C179      1.0  0.69810  0.65780  0.42320  1.0000 0.0303939153
C   C180      1.0  0.30190  0.34220  0.92320  1.0000 0.0303939153
C   C181      1.0  0.34220  0.30190  0.07680  1.0000 0.0303939153
C   C182      1.0  0.65780  0.69810  0.57680  1.0000 0.0303939153
C   C183      1.0  0.80190  0.15780  0.82680  1.0000 0.0303939153
C   C184      1.0  0.19810  0.84220  0.32680  1.0000 0.0303939153
C   C185      1.0  0.21780  0.76820  0.13560  1.0000 -0.2077308197
C   C186      1.0  0.78220  0.23180  0.63560  1.0000 -0.2077308197
C   C187      1.0  0.73180  0.71780  0.38560  1.0000 -0.2077308197
C   C188      1.0  0.26820  0.28220  0.88560  1.0000 -0.2077308197
C   C189      1.0  0.28220  0.26820  0.11440  1.0000 -0.2077308197
C   C190      1.0  0.71780  0.73180  0.61440  1.0000 -0.2077308197
C   C191      1.0  0.76820  0.21780  0.86440  1.0000 -0.2077308197
C   C192      1.0  0.23180  0.78220  0.36440  1.0000 -0.2077308197
N   N1        1.0  0.97440  0.81480  0.24010  1.0000 -0.2396558345
N   N2        1.0  0.02560  0.18520  0.74010  1.0000 -0.2396558345
N   N3        1.0  0.68520  0.47440  0.49010  1.0000 -0.2396558345
N   N4        1.0  0.31480  0.52560  0.99010  1.0000 -0.2396558345
N   N5        1.0  0.52560  0.31480  0.00990  1.0000 -0.2396558345
N   N6        1.0  0.47440  0.68520  0.50990  1.0000 -0.2396558345
N   N7        1.0  0.81480  0.97440  0.75990  1.0000 -0.2396558345
N   N8        1.0  0.18520  0.02560  0.25990  1.0000 -0.2396558345
N   N9        1.0  0.55300  0.51340  0.10340  1.0000 -0.273980175
N   N10       1.0  0.44700  0.48660  0.60340  1.0000 -0.273980175
N   N11       1.0  0.98660  0.05300  0.35340  1.0000 -0.273980175
N   N12       1.0  0.01340  0.94700  0.85340  1.0000 -0.273980175
N   N13       1.0  0.94700  0.01340  0.14660  1.0000 -0.273980175
N   N14       1.0  0.05300  0.98660  0.64660  1.0000 -0.273980175
N   N15       1.0  0.51340  0.55300  0.89660  1.0000 -0.273980175
N   N16       1.0  0.48660  0.44700  0.39660  1.0000 -0.273980175
N   N17       1.0  0.49330  0.54550  0.06470  1.0000 -0.2245351587
N   N18       1.0  0.50670  0.45450  0.56470  1.0000 -0.2245351587
N   N19       1.0  0.95450  0.99330  0.31470  1.0000 -0.2245351587
N   N20       1.0  0.04550  0.00670  0.81470  1.0000 -0.2245351587
N   N21       1.0  0.00670  0.04550  0.18530  1.0000 -0.2245351587
N   N22       1.0  0.99330  0.95450  0.68530  1.0000 -0.2245351587
N   N23       1.0  0.54550  0.49330  0.93530  1.0000 -0.2245351587
N   N24       1.0  0.45450  0.50670  0.43530  1.0000 -0.2245351587
N   N25       1.0  0.55580  0.65100  0.10920  1.0000 0.0522065878
N   N26       1.0  0.44420  0.34900  0.60920  1.0000 0.0522065878
N   N27       1.0  0.84900  0.05580  0.35920  1.0000 0.0522065878
N   N28       1.0  0.15100  0.94420  0.85920  1.0000 0.0522065878
N   N29       1.0  0.94420  0.15100  0.14080  1.0000 0.0522065878
N   N30       1.0  0.05580  0.84900  0.64080  1.0000 0.0522065878
N   N31       1.0  0.65100  0.55580  0.89080  1.0000 0.0522065878
N   N32       1.0  0.34900  0.44420  0.39080  1.0000 0.0522065878
N   N33       1.0  0.57570  0.73250  0.12960  1.0000 -0.5168437109
N   N34       1.0  0.42430  0.26750  0.62960  1.0000 -0.5168437109
N   N35       1.0  0.76750  0.07570  0.37960  1.0000 -0.5168437109
N   N36       1.0  0.23250  0.92430  0.87960  1.0000 -0.5168437109
N   N37       1.0  0.92430  0.23250  0.12040  1.0000 -0.5168437109
N   N38       1.0  0.07570  0.76750  0.62040  1.0000 -0.5168437109
N   N39       1.0  0.73250  0.57570  0.87040  1.0000 -0.5168437109
N   N40       1.0  0.26750  0.42430  0.37040  1.0000 -0.5168437109
N   N41       1.0  0.12020  0.87670  0.16240  1.0000 -0.2396558345
N   N42       1.0  0.87980  0.12330  0.66240  1.0000 -0.2396558345
N   N43       1.0  0.62330  0.62020  0.41240  1.0000 -0.2396558345
N   N44       1.0  0.37670  0.37980  0.91240  1.0000 -0.2396558345
N   N45       1.0  0.37980  0.37670  0.08760  1.0000 -0.2396558345
N   N46       1.0  0.62020  0.62330  0.58760  1.0000 -0.2396558345
N   N47       1.0  0.87670  0.12020  0.83760  1.0000 -0.2396558345
N   N48       1.0  0.12330  0.87980  0.33760  1.0000 -0.2396558345
