# DDEC6 charges by PACMAN v1.1 (https://github.com/mtap-research/PACMAN-charge/)
data_2011[Zn][dia]3[FSR]15
_chemical_formula_sum              "Zn4 H80 C88 N8 O16"
_cell_length_a       6.277
_cell_length_b       17.702
_cell_length_c       20.6208
_cell_angle_alpha    90
_cell_angle_beta     99.9978
_cell_angle_gamma    90

_symmetry_space_group_name_H-M    "P 1"
_symmetry_Int_Tables_number       1

loop_
  _symmetry_equiv_pos_as_xyz
  'x, y, z'

loop_
  _atom_site_type_symbol
  _atom_site_label
  _atom_site_symmetry_multiplicity
  _atom_site_fract_x
  _atom_site_fract_y
  _atom_site_fract_z
  _atom_site_occupancy
  _atom_site_charge
Zn  Zn1       1.0  0.41322  0.48725  0.22362  1.0000 0.7407506851
Zn  Zn2       1.0  0.58678  0.98725  0.27638  1.0000 0.7407506851
Zn  Zn3       1.0  0.58678  0.51275  0.77638  1.0000 0.7407506851
Zn  Zn4       1.0  0.41322  0.01275  0.72362  1.0000 0.7407506851
H   H1        1.0  0.42400  0.20900  0.40660  1.0000 0.110153778
H   H2        1.0  0.57600  0.70900  0.09340  1.0000 0.110153778
H   H3        1.0  0.57600  0.79100  0.59340  1.0000 0.110153778
H   H4        1.0  0.42400  0.29100  0.90660  1.0000 0.110153778
H   H5        1.0  0.71760  0.24310  0.48410  1.0000 0.110153778
H   H6        1.0  0.28240  0.74310  0.01590  1.0000 0.110153778
H   H7        1.0  0.28240  0.75690  0.51590  1.0000 0.110153778
H   H8        1.0  0.71760  0.25690  0.98410  1.0000 0.110153778
H   H9        1.0  0.01690  0.29530  0.45280  1.0000 0.110153778
H   H10       1.0  0.98310  0.79530  0.04720  1.0000 0.110153778
H   H11       1.0  0.98310  0.70470  0.54720  1.0000 0.110153778
H   H12       1.0  0.01690  0.20470  0.95280  1.0000 0.110153778
H   H13       1.0  0.02570  0.31300  0.34270  1.0000 0.1190581438
H   H14       1.0  0.97430  0.81300  0.15730  1.0000 0.1190581438
H   H15       1.0  0.97430  0.68700  0.65730  1.0000 0.1190581438
H   H16       1.0  0.02570  0.18700  0.84270  1.0000 0.1190581438
H   H17       1.0  0.88720  0.29300  0.23030  1.0000 0.1402843238
H   H18       1.0  0.11280  0.79300  0.26970  1.0000 0.1402843238
H   H19       1.0  0.11280  0.70700  0.76970  1.0000 0.1402843238
H   H20       1.0  0.88720  0.20700  0.73030  1.0000 0.1402843238
H   H21       1.0  0.67800  0.24410  0.20930  1.0000 0.1519492862
H   H22       1.0  0.32200  0.74410  0.29070  1.0000 0.1519492862
H   H23       1.0  0.32200  0.75590  0.79070  1.0000 0.1519492862
H   H24       1.0  0.67800  0.25590  0.70930  1.0000 0.1519492862
H   H25       1.0  0.33090  0.24650  0.24000  1.0000 0.1402843238
H   H26       1.0  0.66910  0.74650  0.26000  1.0000 0.1402843238
H   H27       1.0  0.66910  0.75350  0.76000  1.0000 0.1402843238
H   H28       1.0  0.33090  0.25350  0.74000  1.0000 0.1402843238
H   H29       1.0  0.22950  0.20940  0.29660  1.0000 0.130334233
H   H30       1.0  0.77050  0.70940  0.20340  1.0000 0.130334233
H   H31       1.0  0.77050  0.79060  0.70340  1.0000 0.130334233
H   H32       1.0  0.22950  0.29060  0.79660  1.0000 0.130334233
H   H33       1.0  0.01230  0.52470  0.27680  1.0000 0.1190581438
H   H34       1.0  0.98770  0.02470  0.22320  1.0000 0.1190581438
H   H35       1.0  0.98770  0.47530  0.72320  1.0000 0.1190581438
H   H36       1.0  0.01230  0.97530  0.77680  1.0000 0.1190581438
H   H37       1.0  0.88150  0.52310  0.37250  1.0000 0.1402843238
H   H38       1.0  0.11850  0.02310  0.12750  1.0000 0.1402843238
H   H39       1.0  0.11850  0.47690  0.62750  1.0000 0.1402843238
H   H40       1.0  0.88150  0.97690  0.87250  1.0000 0.1402843238
H   H41       1.0  0.42150  0.41620  0.45700  1.0000 0.1402843238
H   H42       1.0  0.57850  0.91620  0.04300  1.0000 0.1402843238
H   H43       1.0  0.57850  0.58380  0.54300  1.0000 0.1402843238
H   H44       1.0  0.42150  0.08380  0.95700  1.0000 0.1402843238
H   H45       1.0  0.53710  0.42030  0.35820  1.0000 0.110153778
H   H46       1.0  0.46290  0.92030  0.14180  1.0000 0.110153778
H   H47       1.0  0.46290  0.57970  0.64180  1.0000 0.110153778
H   H48       1.0  0.53710  0.07970  0.85820  1.0000 0.110153778
H   H49       1.0  0.17960  0.46010  0.52650  1.0000 0.1190581438
H   H50       1.0  0.82040  0.96010  0.97350  1.0000 0.1190581438
H   H51       1.0  0.82040  0.53990  0.47350  1.0000 0.1190581438
H   H52       1.0  0.17960  0.03990  0.02650  1.0000 0.1190581438
H   H53       1.0  0.96240  0.42470  0.49120  1.0000 0.1190581438
H   H54       1.0  0.03760  0.92470  0.00880  1.0000 0.1190581438
H   H55       1.0  0.03760  0.57530  0.50880  1.0000 0.1190581438
H   H56       1.0  0.96240  0.07530  0.99120  1.0000 0.1190581438
H   H57       1.0  0.15460  0.60310  0.13710  1.0000 0.110153778
H   H58       1.0  0.84540  0.10310  0.36290  1.0000 0.110153778
H   H59       1.0  0.84540  0.39690  0.86290  1.0000 0.110153778
H   H60       1.0  0.15460  0.89690  0.63710  1.0000 0.110153778
H   H61       1.0  0.86710  0.61230  0.05410  1.0000 0.1402843238
H   H62       1.0  0.13290  0.11230  0.44590  1.0000 0.1402843238
H   H63       1.0  0.13290  0.38770  0.94590  1.0000 0.1402843238
H   H64       1.0  0.86710  0.88770  0.55410  1.0000 0.1402843238
H   H65       1.0  0.76910  0.39160  0.06870  1.0000 0.1402843238
H   H66       1.0  0.23090  0.89160  0.43130  1.0000 0.1402843238
H   H67       1.0  0.23090  0.60840  0.93130  1.0000 0.1402843238
H   H68       1.0  0.76910  0.10840  0.56870  1.0000 0.1402843238
H   H69       1.0  0.06780  0.38450  0.14930  1.0000 0.1190581438
H   H70       1.0  0.93220  0.88450  0.35070  1.0000 0.1190581438
H   H71       1.0  0.93220  0.61550  0.85070  1.0000 0.1190581438
H   H72       1.0  0.06780  0.11550  0.64930  1.0000 0.1190581438
H   H73       1.0  0.62150  0.47110  0.96060  1.0000 0.130334233
H   H74       1.0  0.37850  0.97110  0.53940  1.0000 0.130334233
H   H75       1.0  0.37850  0.52890  0.03940  1.0000 0.130334233
H   H76       1.0  0.62150  0.02890  0.46060  1.0000 0.130334233
H   H77       1.0  0.59430  0.55660  0.97530  1.0000 0.130334233
H   H78       1.0  0.40570  0.05660  0.52470  1.0000 0.130334233
H   H79       1.0  0.40570  0.44340  0.02470  1.0000 0.130334233
H   H80       1.0  0.59430  0.94340  0.47530  1.0000 0.130334233
C   C1        1.0  0.73000  0.27110  0.30740  1.0000 0.0914747402
C   C2        1.0  0.27000  0.77110  0.19260  1.0000 0.0914747402
C   C3        1.0  0.27000  0.72890  0.69260  1.0000 0.0914747402
C   C4        1.0  0.73000  0.22890  0.80740  1.0000 0.0914747402
C   C5        1.0  0.54640  0.23910  0.32640  1.0000 0.0914747402
C   C6        1.0  0.45360  0.73910  0.17360  1.0000 0.0914747402
C   C7        1.0  0.45360  0.76090  0.67360  1.0000 0.0914747402
C   C8        1.0  0.54640  0.26090  0.82640  1.0000 0.0914747402
C   C9        1.0  0.54520  0.22970  0.39300  1.0000 -0.1706478207
C   C10       1.0  0.45480  0.72970  0.10700  1.0000 -0.1706478207
C   C11       1.0  0.45480  0.77030  0.60700  1.0000 -0.1706478207
C   C12       1.0  0.54520  0.27030  0.89300  1.0000 -0.1706478207
C   C13       1.0  0.72130  0.25040  0.43970  1.0000 -0.1261240396
C   C14       1.0  0.27870  0.75040  0.06030  1.0000 -0.1261240396
C   C15       1.0  0.27870  0.74960  0.56030  1.0000 -0.1261240396
C   C16       1.0  0.72130  0.24960  0.93970  1.0000 -0.1261240396
C   C17       1.0  0.89910  0.28130  0.42120  1.0000 -0.1261240396
C   C18       1.0  0.10090  0.78130  0.07880  1.0000 -0.1261240396
C   C19       1.0  0.10090  0.71870  0.57880  1.0000 -0.1261240396
C   C20       1.0  0.89910  0.21870  0.92120  1.0000 -0.1261240396
C   C21       1.0  0.90370  0.29170  0.35530  1.0000 -0.1706478207
C   C22       1.0  0.09630  0.79170  0.14470  1.0000 -0.1706478207
C   C23       1.0  0.09630  0.70830  0.64470  1.0000 -0.1706478207
C   C24       1.0  0.90370  0.20830  0.85530  1.0000 -0.1706478207
C   C25       1.0  0.73790  0.28680  0.23590  1.0000 -0.3802935782
C   C26       1.0  0.26210  0.78680  0.26410  1.0000 -0.3802935782
C   C27       1.0  0.26210  0.71320  0.76410  1.0000 -0.3802935782
C   C28       1.0  0.73790  0.21320  0.73590  1.0000 -0.3802935782
C   C29       1.0  0.61100  0.35760  0.21260  1.0000 0.5823549327
C   C30       1.0  0.38900  0.85760  0.28740  1.0000 0.5823549327
C   C31       1.0  0.38900  0.64240  0.78740  1.0000 0.5823549327
C   C32       1.0  0.61100  0.14240  0.71260  1.0000 0.5823549327
C   C33       1.0  0.35780  0.21110  0.27630  1.0000 -0.405398995
C   C34       1.0  0.64220  0.71110  0.22370  1.0000 -0.405398995
C   C35       1.0  0.64220  0.78890  0.72370  1.0000 -0.4029086235
C   C36       1.0  0.35780  0.28890  0.77630  1.0000 -0.405398995
C   C37       1.0  0.39670  0.13400  0.25010  1.0000 0.6314506379
C   C38       1.0  0.60330  0.63400  0.24990  1.0000 0.6314506379
C   C39       1.0  0.60330  0.86600  0.74990  1.0000 0.6314506379
C   C40       1.0  0.39670  0.36600  0.75010  1.0000 0.6314506379
C   C41       1.0  0.09640  0.50330  0.31380  1.0000 0.099521361
C   C42       1.0  0.90360  0.00330  0.18620  1.0000 0.099521361
C   C43       1.0  0.90360  0.49670  0.68620  1.0000 0.099521361
C   C44       1.0  0.09640  0.99670  0.81380  1.0000 0.099521361
C   C45       1.0  0.01660  0.50230  0.37100  1.0000 -0.1918587836
C   C46       1.0  0.98340  0.00230  0.12900  1.0000 -0.1918587836
C   C47       1.0  0.98340  0.49770  0.62900  1.0000 -0.1918587836
C   C48       1.0  0.01660  0.99770  0.87100  1.0000 -0.1918587836
C   C49       1.0  0.13720  0.46990  0.42770  1.0000 0.1574505881
C   C50       1.0  0.86280  0.96990  0.07230  1.0000 0.1574505881
C   C51       1.0  0.86280  0.53010  0.57230  1.0000 0.1574505881
C   C52       1.0  0.13720  0.03010  0.92770  1.0000 0.1574505881
C   C53       1.0  0.33550  0.43900  0.42110  1.0000 -0.2200497913
C   C54       1.0  0.66450  0.93900  0.07890  1.0000 -0.2200497913
C   C55       1.0  0.66450  0.56100  0.57890  1.0000 -0.2200497913
C   C56       1.0  0.33550  0.06100  0.92110  1.0000 -0.2200497913
C   C57       1.0  0.40470  0.44200  0.36170  1.0000 0.0806968545
C   C58       1.0  0.59530  0.94200  0.13830  1.0000 0.0806968545
C   C59       1.0  0.59530  0.55800  0.63830  1.0000 0.0806968545
C   C60       1.0  0.40470  0.05800  0.86170  1.0000 0.0806968545
C   C61       1.0  0.05640  0.46820  0.49160  1.0000 -0.2400309645
C   C62       1.0  0.94360  0.96820  0.00840  1.0000 -0.2400309645
C   C63       1.0  0.94360  0.53180  0.50840  1.0000 -0.2400309645
C   C64       1.0  0.05640  0.03180  0.99160  1.0000 -0.2400309645
C   C65       1.0  0.07810  0.55960  0.12250  1.0000 0.0806968545
C   C66       1.0  0.92190  0.05960  0.37750  1.0000 0.0806968545
C   C67       1.0  0.92190  0.44040  0.87750  1.0000 0.0806968545
C   C68       1.0  0.07810  0.94040  0.62250  1.0000 0.0806968545
C   C69       1.0  0.90560  0.56540  0.07280  1.0000 -0.2079120877
C   C70       1.0  0.09440  0.06540  0.42720  1.0000 -0.2079120877
C   C71       1.0  0.09440  0.43460  0.92720  1.0000 -0.2079120877
C   C72       1.0  0.90560  0.93460  0.57280  1.0000 -0.2079120877
C   C73       1.0  0.78700  0.50230  0.04980  1.0000 0.1574505881
C   C74       1.0  0.21300  0.00230  0.45020  1.0000 0.1574505881
C   C75       1.0  0.21300  0.49770  0.95020  1.0000 0.1574505881
C   C76       1.0  0.78700  0.99770  0.54980  1.0000 0.1574505881
C   C77       1.0  0.84910  0.43510  0.08110  1.0000 -0.2035228166
C   C78       1.0  0.15090  0.93510  0.41890  1.0000 -0.2035228166
C   C79       1.0  0.15090  0.56490  0.91890  1.0000 -0.2035228166
C   C80       1.0  0.84910  0.06490  0.58110  1.0000 -0.2035228166
C   C81       1.0  0.02650  0.43100  0.13020  1.0000 0.0914747402
C   C82       1.0  0.97350  0.93100  0.36980  1.0000 0.0914747402
C   C83       1.0  0.97350  0.56900  0.86980  1.0000 0.0914747402
C   C84       1.0  0.02650  0.06900  0.63020  1.0000 0.0914747402
C   C85       1.0  0.59510  0.50640  0.99430  1.0000 -0.2200497913
C   C86       1.0  0.40490  0.00640  0.50570  1.0000 -0.2200497913
C   C87       1.0  0.40490  0.49360  0.00570  1.0000 -0.2200497913
C   C88       1.0  0.59510  0.99360  0.49430  1.0000 -0.2200497913
N   N1        1.0  0.28940  0.47510  0.30830  1.0000 -0.2400309645
N   N2        1.0  0.71060  0.97510  0.19170  1.0000 -0.2400309645
N   N3        1.0  0.71060  0.52490  0.69170  1.0000 -0.2400309645
N   N4        1.0  0.28940  0.02490  0.80830  1.0000 -0.2400309645
N   N5        1.0  0.14240  0.49310  0.15140  1.0000 -0.2400309645
N   N6        1.0  0.85760  0.99310  0.34860  1.0000 -0.2454998943
N   N7        1.0  0.85760  0.50690  0.84860  1.0000 -0.2454998943
N   N8        1.0  0.14240  0.00690  0.65140  1.0000 -0.2454998943
O   O1        1.0  0.65700  0.41630  0.24480  1.0000 -0.5074234906
O   O2        1.0  0.34300  0.91630  0.25520  1.0000 -0.5074234906
O   O3        1.0  0.34300  0.58370  0.75520  1.0000 -0.5074234906
O   O4        1.0  0.65700  0.08370  0.74480  1.0000 -0.5074234906
O   O5        1.0  0.46700  0.35710  0.16570  1.0000 -0.5328751507
O   O6        1.0  0.53300  0.85710  0.33430  1.0000 -0.5328751507
O   O7        1.0  0.53300  0.64290  0.83430  1.0000 -0.5328751507
O   O8        1.0  0.46700  0.14290  0.66570  1.0000 -0.5328751507
O   O9        1.0  0.48140  0.08650  0.29280  1.0000 -0.56821242
O   O10       1.0  0.51860  0.58650  0.20720  1.0000 -0.56821242
O   O11       1.0  0.51860  0.91350  0.70720  1.0000 -0.56821242
O   O12       1.0  0.48140  0.41350  0.79280  1.0000 -0.56821242
O   O13       1.0  0.34760  0.11940  0.19070  1.0000 -0.5808016363
O   O14       1.0  0.65240  0.61940  0.30930  1.0000 -0.5808016363
O   O15       1.0  0.65240  0.88060  0.80930  1.0000 -0.5808016363
O   O16       1.0  0.34760  0.38060  0.69070  1.0000 -0.5808016363
