# DDEC6 charges by PACMAN v1.1 (https://github.com/mtap-research/PACMAN-charge/)
data_2011[Mn][nan]3[FSR]2
_chemical_formula_sum              "Mn6 H24 C42 O30"
_cell_length_a       9.0659
_cell_length_b       9.0659
_cell_length_c       21.7273
_cell_angle_alpha    90
_cell_angle_beta     90
_cell_angle_gamma    120

_symmetry_space_group_name_H-M    "P 1"
_symmetry_Int_Tables_number       1

loop_
  _symmetry_equiv_pos_as_xyz
  'x, y, z'

loop_
  _atom_site_type_symbol
  _atom_site_label
  _atom_site_symmetry_multiplicity
  _atom_site_fract_x
  _atom_site_fract_y
  _atom_site_fract_z
  _atom_site_occupancy
  _atom_site_charge
Mn  Mn1       1.0  0.97805  0.01724  0.08294  1.0000 0.9984146785
Mn  Mn2       1.0  0.98276  0.96081  0.41627  1.0000 0.9984146785
Mn  Mn3       1.0  0.03919  0.02195  0.74961  1.0000 0.9984146785
Mn  Mn4       1.0  0.01724  0.97805  0.91706  1.0000 0.9984146785
Mn  Mn5       1.0  0.96081  0.98276  0.58373  1.0000 0.9984146785
Mn  Mn6       1.0  0.02195  0.03919  0.25039  1.0000 0.9984146785
H   H1        1.0  0.63600  0.76800  0.13240  1.0000 0.381122334
H   H2        1.0  0.23200  0.86800  0.46573  1.0000 0.381122334
H   H3        1.0  0.13200  0.36400  0.79907  1.0000 0.381122334
H   H4        1.0  0.76800  0.63600  0.86760  1.0000 0.381122334
H   H5        1.0  0.86800  0.23200  0.53427  1.0000 0.381122334
H   H6        1.0  0.36400  0.13200  0.20093  1.0000 0.381122334
H   H7        1.0  0.89900  0.27300  0.03050  1.0000 0.381122334
H   H8        1.0  0.72700  0.62600  0.36383  1.0000 0.381122334
H   H9        1.0  0.37400  0.10100  0.69717  1.0000 0.381122334
H   H10       1.0  0.27300  0.89900  0.96950  1.0000 0.381122334
H   H11       1.0  0.62600  0.72700  0.63617  1.0000 0.381122334
H   H12       1.0  0.10100  0.37400  0.30283  1.0000 0.381122334
H   H13       1.0  0.41880  0.50390  0.08870  1.0000 0.1411911914
H   H14       1.0  0.49610  0.91490  0.42203  1.0000 0.1411911914
H   H15       1.0  0.08510  0.58120  0.75537  1.0000 0.1411911914
H   H16       1.0  0.50390  0.41880  0.91130  1.0000 0.1411911914
H   H17       1.0  0.91490  0.49610  0.57797  1.0000 0.1411911914
H   H18       1.0  0.58120  0.08510  0.24463  1.0000 0.1411911914
H   H19       1.0  0.93880  0.53460  0.07570  1.0000 0.1411911914
H   H20       1.0  0.46540  0.40420  0.40903  1.0000 0.1411911914
H   H21       1.0  0.59580  0.06120  0.74237  1.0000 0.1411911914
H   H22       1.0  0.53460  0.93880  0.92430  1.0000 0.1411911914
H   H23       1.0  0.40420  0.46540  0.59097  1.0000 0.1411911914
H   H24       1.0  0.06120  0.59580  0.25763  1.0000 0.1411911914
C   C1        1.0  0.74430  0.74430  0.00000  1.0000 0.1257551294
C   C2        1.0  0.25570  0.00000  0.33333  1.0000 0.1257551294
C   C3        1.0  0.00000  0.25570  0.66667  1.0000 0.1257551294
C   C4        1.0  0.63780  0.69280  0.05151  1.0000 0.1865179148
C   C5        1.0  0.30720  0.94500  0.38484  1.0000 0.1865179148
C   C6        1.0  0.05500  0.36220  0.71818  1.0000 0.1865179148
C   C7        1.0  0.69280  0.63780  0.94849  1.0000 0.1865179148
C   C8        1.0  0.94500  0.30720  0.61516  1.0000 0.1849419457
C   C9        1.0  0.36220  0.05500  0.28182  1.0000 0.1849419457
C   C10       1.0  0.27430  0.27430  0.00000  1.0000 0.5737196139
C   C11       1.0  0.72570  0.00000  0.33333  1.0000 0.5737196139
C   C12       1.0  0.00000  0.72570  0.66667  1.0000 0.5737196139
C   C13       1.0  0.43700  0.43700  0.00000  1.0000 0.0091637985
C   C14       1.0  0.56300  0.00000  0.33333  1.0000 0.0091637985
C   C15       1.0  0.00000  0.56300  0.66667  1.0000 0.0091637985
C   C16       1.0  0.48740  0.53950  0.05266  1.0000 -0.2739617481
C   C17       1.0  0.46050  0.94790  0.38599  1.0000 -0.2739617481
C   C18       1.0  0.05210  0.51260  0.71933  1.0000 -0.2739617481
C   C19       1.0  0.53950  0.48740  0.94734  1.0000 -0.2739617481
C   C20       1.0  0.94790  0.46050  0.61401  1.0000 -0.2739617481
C   C21       1.0  0.51260  0.05210  0.28067  1.0000 -0.2739617481
C   C22       1.0  0.00000  0.28270  0.16667  1.0000 0.1173596315
C   C23       1.0  0.71730  0.71730  0.50000  1.0000 0.1173596315
C   C24       1.0  0.28270  0.00000  0.83333  1.0000 0.1173596315
C   C25       1.0  0.95840  0.33970  0.11332  1.0000 0.1865179148
C   C26       1.0  0.66030  0.61870  0.44665  1.0000 0.1865179148
C   C27       1.0  0.38130  0.04160  0.77999  1.0000 0.1865179148
C   C28       1.0  0.33970  0.95840  0.88668  1.0000 0.1865179148
C   C29       1.0  0.61870  0.66030  0.55335  1.0000 0.1865179148
C   C30       1.0  0.04160  0.38130  0.22001  1.0000 0.1865179148
C   C31       1.0  1.00000  0.75270  0.16667  1.0000 0.5737196139
C   C32       1.0  0.24730  0.24730  0.50000  1.0000 0.5737196139
C   C33       1.0  0.75270  0.00000  0.83333  1.0000 0.5737196139
C   C34       1.0  0.00000  0.58910  0.16667  1.0000 0.0091637985
C   C35       1.0  0.41090  0.41090  0.50000  1.0000 0.0091637985
C   C36       1.0  0.58910  0.00000  0.83333  1.0000 0.0091637985
C   C37       1.0  0.96200  0.49390  0.11260  1.0000 -0.2755162048
C   C38       1.0  0.50610  0.46810  0.44593  1.0000 -0.2755162048
C   C39       1.0  0.53190  0.03800  0.77927  1.0000 -0.2739617481
C   C40       1.0  0.49390  0.96200  0.88740  1.0000 -0.2755162048
C   C41       1.0  0.46810  0.50610  0.55407  1.0000 -0.2755162048
C   C42       1.0  0.03800  0.53190  0.22073  1.0000 -0.2755162048
O   O1        1.0  0.89100  0.89100  0.00000  1.0000 -0.5516951549
O   O2        1.0  0.10900  0.00000  0.33333  1.0000 -0.5516951549
O   O3        1.0  0.00000  0.10900  0.66667  1.0000 -0.5516951549
O   O4        1.0  0.69840  0.80800  0.09976  1.0000 -0.4329067388
O   O5        1.0  0.19200  0.89040  0.43309  1.0000 -0.4329067388
O   O6        1.0  0.10960  0.30160  0.76643  1.0000 -0.4329067388
O   O7        1.0  0.80800  0.69840  0.90024  1.0000 -0.4329067388
O   O8        1.0  0.89040  0.19200  0.56691  1.0000 -0.4329067388
O   O9        1.0  0.30160  0.10960  0.23357  1.0000 -0.4329067388
O   O10       1.0  0.22900  0.18820  0.04952  1.0000 -0.5818288692
O   O11       1.0  0.81180  0.04080  0.38285  1.0000 -0.5818288692
O   O12       1.0  0.95920  0.77100  0.71619  1.0000 -0.5818288692
O   O13       1.0  0.18820  0.22900  0.95048  1.0000 -0.5818288692
O   O14       1.0  0.04080  0.81180  0.61715  1.0000 -0.5818288692
O   O15       1.0  0.77100  0.95920  0.28381  1.0000 -0.5818288692
O   O16       1.0  0.00000  0.13510  0.16667  1.0000 -0.5516951549
O   O17       1.0  0.86490  0.86490  0.50000  1.0000 -0.5516951549
O   O18       1.0  0.13510  0.00000  0.83333  1.0000 -0.5516951549
O   O19       1.0  0.91680  0.23140  0.06368  1.0000 -0.4329067388
O   O20       1.0  0.76860  0.68540  0.39701  1.0000 -0.4329067388
O   O21       1.0  0.31460  0.08320  0.73035  1.0000 -0.4329067388
O   O22       1.0  0.23140  0.91680  0.93632  1.0000 -0.4329067388
O   O23       1.0  0.68540  0.76860  0.60299  1.0000 -0.4329067388
O   O24       1.0  0.08320  0.31460  0.26965  1.0000 -0.4329067388
O   O25       1.0  0.05190  0.84380  0.11859  1.0000 -0.5714366504
O   O26       1.0  0.15620  0.20810  0.45192  1.0000 -0.5714366504
O   O27       1.0  0.79190  0.94810  0.78526  1.0000 -0.5714366504
O   O28       1.0  0.84380  0.05190  0.88141  1.0000 -0.5714366504
O   O29       1.0  0.20810  0.15620  0.54808  1.0000 -0.5714366504
O   O30       1.0  0.94810  0.79190  0.21474  1.0000 -0.5714366504
