# DDEC6 charges by PACMAN v1.1 (https://github.com/mtap-research/PACMAN-charge/)
data_2011[V][bpq]3[FSR]2
_chemical_formula_sum              "V4 H16 C32 O20"
_cell_length_a       6.805
_cell_length_b       13.9793
_cell_length_c       15.9447
_cell_angle_alpha    90
_cell_angle_beta     90
_cell_angle_gamma    90

_symmetry_space_group_name_H-M    "P 1"
_symmetry_Int_Tables_number       1

loop_
  _symmetry_equiv_pos_as_xyz
  'x, y, z'

loop_
  _atom_site_type_symbol
  _atom_site_label
  _atom_site_symmetry_multiplicity
  _atom_site_fract_x
  _atom_site_fract_y
  _atom_site_fract_z
  _atom_site_occupancy
  _atom_site_charge
V   V1        1.0  0.06503  0.76389  0.50120  1.0000 1.8033162263
V   V2        1.0  0.43497  0.23611  0.00120  1.0000 1.8033162263
V   V3        1.0  0.93497  0.26389  0.99880  1.0000 1.8033162263
V   V4        1.0  0.56503  0.73611  0.49880  1.0000 1.8033162263
H   H1        1.0  0.03220  0.04680  0.82060  1.0000 0.1305161196
H   H2        1.0  0.46780  0.95320  0.32060  1.0000 0.135087764
H   H3        1.0  0.96780  0.54680  0.67940  1.0000 0.135087764
H   H4        1.0  0.53220  0.45320  0.17940  1.0000 0.1305161196
H   H5        1.0  0.44870  0.01650  0.82330  1.0000 0.1305161196
H   H6        1.0  0.05130  0.98350  0.32330  1.0000 0.1305161196
H   H7        1.0  0.55130  0.51650  0.67670  1.0000 0.1305161196
H   H8        1.0  0.94870  0.48350  0.17670  1.0000 0.1305161196
H   H9        1.0  0.05310  0.93850  0.71160  1.0000 0.1305161196
H   H10       1.0  0.44690  0.06150  0.21160  1.0000 0.1305161196
H   H11       1.0  0.94690  0.43850  0.78840  1.0000 0.1305161196
H   H12       1.0  0.55310  0.56150  0.28840  1.0000 0.1305161196
H   H13       1.0  0.46920  0.90760  0.71470  1.0000 0.1305161196
H   H14       1.0  0.03080  0.09240  0.21470  1.0000 0.1305161196
H   H15       1.0  0.53080  0.40760  0.78530  1.0000 0.1305161196
H   H16       1.0  0.96920  0.59240  0.28530  1.0000 0.1305161196
C   C1        1.0  0.72430  0.11905  0.89809  1.0000 0.6210172382
C   C2        1.0  0.77570  0.88095  0.39809  1.0000 0.6210172382
C   C3        1.0  0.27570  0.61905  0.60191  1.0000 0.6210172382
C   C4        1.0  0.22430  0.38095  0.10191  1.0000 0.6210172382
C   C5        1.0  0.73810  0.04426  0.83133  1.0000 -0.0241541329
C   C6        1.0  0.76190  0.95574  0.33133  1.0000 -0.0241541329
C   C7        1.0  0.26190  0.54426  0.66867  1.0000 -0.0241541329
C   C8        1.0  0.23810  0.45574  0.16867  1.0000 -0.0241541329
C   C9        1.0  0.91840  0.01970  0.79869  1.0000 -0.0988751332
C   C10       1.0  0.58160  0.98030  0.29869  1.0000 -0.0988751332
C   C11       1.0  0.08160  0.51970  0.70131  1.0000 -0.0988751332
C   C12       1.0  0.41840  0.48030  0.20131  1.0000 -0.0988751332
C   C13       1.0  0.57040  0.00149  0.80034  1.0000 -0.1067962236
C   C14       1.0  0.92960  0.99851  0.30034  1.0000 -0.1067962236
C   C15       1.0  0.42960  0.50149  0.69966  1.0000 -0.1067962236
C   C16       1.0  0.07040  0.49851  0.19966  1.0000 -0.1067962236
C   C17       1.0  0.77550  0.84904  0.62674  1.0000 0.6210172382
C   C18       1.0  0.72450  0.15096  0.12674  1.0000 0.6210172382
C   C19       1.0  0.22450  0.34904  0.87326  1.0000 0.6210172382
C   C20       1.0  0.27550  0.65096  0.37326  1.0000 0.6210172382
C   C21       1.0  0.76310  0.91411  0.70089  1.0000 -0.0241541329
C   C22       1.0  0.73690  0.08589  0.20089  1.0000 -0.0241541329
C   C23       1.0  0.23690  0.41411  0.79911  1.0000 -0.0241541329
C   C24       1.0  0.26310  0.58589  0.29911  1.0000 -0.0241541329
C   C25       1.0  0.93090  0.95480  0.73353  1.0000 -0.1067962236
C   C26       1.0  0.56910  0.04520  0.23353  1.0000 -0.1067962236
C   C27       1.0  0.06910  0.45480  0.76647  1.0000 -0.1067962236
C   C28       1.0  0.43090  0.54520  0.26647  1.0000 -0.1067962236
C   C29       1.0  0.58260  0.93637  0.73527  1.0000 -0.0988751332
C   C30       1.0  0.91740  0.06363  0.23527  1.0000 -0.0988751332
C   C31       1.0  0.41740  0.43637  0.76473  1.0000 -0.0988751332
C   C32       1.0  0.08260  0.56363  0.26473  1.0000 -0.0988751332
O   O1        1.0  0.28306  0.80870  0.50722  1.0000 -0.749867672
O   O2        1.0  0.21694  0.19130  0.00722  1.0000 -0.749867672
O   O3        1.0  0.71694  0.30870  0.99278  1.0000 -0.749867672
O   O4        1.0  0.78306  0.69130  0.49278  1.0000 -0.749867672
O   O5        1.0  0.55580  0.14114  0.92392  1.0000 -0.5993373486
O   O6        1.0  0.94420  0.85886  0.42392  1.0000 -0.5993373486
O   O7        1.0  0.44420  0.64114  0.57608  1.0000 -0.5993373486
O   O8        1.0  0.05580  0.35886  0.07608  1.0000 -0.5993373486
O   O9        1.0  0.94370  0.83166  0.59804  1.0000 -0.5993373486
O   O10       1.0  0.55630  0.16834  0.09804  1.0000 -0.5993373486
O   O11       1.0  0.05630  0.33166  0.90196  1.0000 -0.5993373486
O   O12       1.0  0.44370  0.66834  0.40196  1.0000 -0.5993373486
O   O13       1.0  0.88370  0.15493  0.92276  1.0000 -0.5807538274
O   O14       1.0  0.61630  0.84507  0.42276  1.0000 -0.5807538274
O   O15       1.0  0.11630  0.65493  0.57724  1.0000 -0.5807538274
O   O16       1.0  0.38370  0.34507  0.07724  1.0000 -0.5807538274
O   O17       1.0  0.61610  0.81703  0.59807  1.0000 -0.5807538274
O   O18       1.0  0.88390  0.18297  0.09807  1.0000 -0.5807538274
O   O19       1.0  0.38390  0.31703  0.90193  1.0000 -0.5807538274
O   O20       1.0  0.11610  0.68297  0.40193  1.0000 -0.5807538274
