# DDEC6 charges by PACMAN v1.1 (https://github.com/mtap-research/PACMAN-charge/)
data_2011[Eu][mog]3[FSR]1
_chemical_formula_sum              "Eu2 H12 C14 N4 O16"
_cell_length_a       6.1009
_cell_length_b       9.9758
_cell_length_c       13.3825
_cell_angle_alpha    68.871
_cell_angle_beta     81.033
_cell_angle_gamma    76.75

_symmetry_space_group_name_H-M    "P 1"
_symmetry_Int_Tables_number       1

loop_
  _symmetry_equiv_pos_as_xyz
  'x, y, z'

loop_
  _atom_site_type_symbol
  _atom_site_label
  _atom_site_symmetry_multiplicity
  _atom_site_fract_x
  _atom_site_fract_y
  _atom_site_fract_z
  _atom_site_occupancy
  _atom_site_charge
Eu  Eu1       1.0  0.16836  0.38563  0.80400  1.0000 1.9678360558
Eu  Eu2       1.0  0.83164  0.61437  0.19600  1.0000 1.9678360558
H   H1        1.0  0.67520  0.95360  0.97120  1.0000 0.1359467543
H   H2        1.0  0.32480  0.04640  0.02880  1.0000 0.1359467543
H   H3        1.0  0.29400  0.67470  0.37110  1.0000 0.1330056823
H   H4        1.0  0.70600  0.32530  0.62890  1.0000 0.1330056823
H   H5        1.0  0.13260  0.21940  0.65540  1.0000 0.3509365953
H   H6        1.0  0.86740  0.78060  0.34460  1.0000 0.3509365953
H   H7        1.0  0.29130  0.14260  0.71890  1.0000 0.328149829
H   H8        1.0  0.70870  0.85740  0.28110  1.0000 0.328149829
H   H9        1.0  0.53990  0.51430  0.78880  1.0000 0.3509365953
H   H10       1.0  0.46010  0.48570  0.21120  1.0000 0.3509365953
H   H11       1.0  0.43020  0.63640  0.72920  1.0000 0.338282261
H   H12       1.0  0.56980  0.36360  0.27080  1.0000 0.338282261
C   C1        1.0  0.71340  0.23220  0.85840  1.0000 0.5907393432
C   C2        1.0  0.28660  0.76780  0.14160  1.0000 0.5907393432
C   C3        1.0  0.86750  0.10500  0.93190  1.0000 0.0773848593
C   C4        1.0  0.13250  0.89500  0.06810  1.0000 0.0773848593
C   C5        1.0  0.80950  0.97060  0.98460  1.0000 0.0696747768
C   C6        1.0  0.19050  0.02940  0.01540  1.0000 0.0696747768
C   C7        1.0  0.04930  0.61640  0.56020  1.0000 0.5578971244
C   C8        1.0  0.95070  0.38360  0.43980  1.0000 0.5578971244
C   C9        1.0  0.29030  0.55620  0.52700  1.0000 0.0696747768
C   C10       1.0  0.70970  0.44380  0.47300  1.0000 0.0696747768
C   C11       1.0  0.38160  0.60250  0.42300  1.0000 0.0571357738
C   C12       1.0  0.61840  0.39750  0.57700  1.0000 0.0571357738
C   C13       1.0  0.91240  0.56070  0.96550  1.0000 0.5043466426
C   C14       1.0  0.08760  0.43930  0.03450  1.0000 0.5043466426
N   N1        1.0  0.06050  0.13560  0.94580  1.0000 -0.2679710352
N   N2        1.0  0.93950  0.86440  0.05420  1.0000 -0.2679710352
N   N3        1.0  0.40610  0.45300  0.60640  1.0000 -0.2877288722
N   N4        1.0  0.59390  0.54700  0.39360  1.0000 -0.2877288722
O   O1        1.0  0.78560  0.34980  0.81570  1.0000 -0.5999279731
O   O2        1.0  0.21440  0.65020  0.18430  1.0000 -0.5999279731
O   O3        1.0  0.52150  0.21570  0.84910  1.0000 -0.6284292602
O   O4        1.0  0.47850  0.78430  0.15090  1.0000 -0.6284292602
O   O5        1.0  0.98580  0.56970  0.65740  1.0000 -0.5999279731
O   O6        1.0  0.01420  0.43030  0.34260  1.0000 -0.5999279731
O   O7        1.0  0.93180  0.70960  0.48980  1.0000 -0.5179915094
O   O8        1.0  0.06820  0.29040  0.51020  1.0000 -0.5179915094
O   O9        1.0  0.91560  0.57070  0.86990  1.0000 -0.5521189534
O   O10       1.0  0.08440  0.42930  0.13010  1.0000 -0.5521189534
O   O11       1.0  0.77650  0.63750  0.01330  1.0000 -0.590045806
O   O12       1.0  0.22350  0.36250  0.98670  1.0000 -0.590045806
O   O13       1.0  0.17360  0.20960  0.71620  1.0000 -0.7633322143
O   O14       1.0  0.82640  0.79040  0.28380  1.0000 -0.7633322143
O   O15       1.0  0.40810  0.56320  0.78080  1.0000 -0.7244734727
O   O16       1.0  0.59190  0.43680  0.21920  1.0000 -0.7244734727
