# DDEC6 charges by PACMAN v1.1 (https://github.com/mtap-research/PACMAN-charge/)
data_2011[Mn][apo]3[FSR]1
_chemical_formula_sum              "Mn8 H40 C80 N24 O32"
_cell_length_a       12.2862
_cell_length_b       14.9471
_cell_length_c       20.8959
_cell_angle_alpha    90
_cell_angle_beta     90
_cell_angle_gamma    90

_symmetry_space_group_name_H-M    "P 1"
_symmetry_Int_Tables_number       1

loop_
  _symmetry_equiv_pos_as_xyz
  'x, y, z'

loop_
  _atom_site_type_symbol
  _atom_site_label
  _atom_site_symmetry_multiplicity
  _atom_site_fract_x
  _atom_site_fract_y
  _atom_site_fract_z
  _atom_site_occupancy
  _atom_site_charge
Mn  Mn1       1.0  0.08431  0.37544  0.69367  1.0000 0.9133300106
Mn  Mn2       1.0  0.41569  0.12456  0.19367  1.0000 0.9133300106
Mn  Mn3       1.0  0.58431  0.12456  0.30633  1.0000 0.9133300106
Mn  Mn4       1.0  0.91569  0.37544  0.80633  1.0000 0.9133300106
Mn  Mn5       1.0  0.91569  0.62456  0.30633  1.0000 0.9133300106
Mn  Mn6       1.0  0.58431  0.87544  0.80633  1.0000 0.9133300106
Mn  Mn7       1.0  0.41569  0.87544  0.69367  1.0000 0.9133300106
Mn  Mn8       1.0  0.08431  0.62456  0.19367  1.0000 0.9133300106
H   H1        1.0  0.40010  0.38050  0.54000  1.0000 0.1308121751
H   H2        1.0  0.09990  0.11950  0.04000  1.0000 0.1308121751
H   H3        1.0  0.90010  0.11950  0.46000  1.0000 0.1308121751
H   H4        1.0  0.59990  0.38050  0.96000  1.0000 0.1308121751
H   H5        1.0  0.59990  0.61950  0.46000  1.0000 0.1308121751
H   H6        1.0  0.90010  0.88050  0.96000  1.0000 0.1308121751
H   H7        1.0  0.09990  0.88050  0.54000  1.0000 0.1308121751
H   H8        1.0  0.40010  0.61950  0.04000  1.0000 0.1308121751
H   H9        1.0  0.08310  0.36000  0.53540  1.0000 0.1352195511
H   H10       1.0  0.41690  0.14000  0.03540  1.0000 0.1352195511
H   H11       1.0  0.58310  0.14000  0.46460  1.0000 0.1352195511
H   H12       1.0  0.91690  0.36000  0.96460  1.0000 0.1352195511
H   H13       1.0  0.91690  0.64000  0.46460  1.0000 0.1352195511
H   H14       1.0  0.58310  0.86000  0.96460  1.0000 0.1352195511
H   H15       1.0  0.41690  0.86000  0.53540  1.0000 0.1352195511
H   H16       1.0  0.08310  0.64000  0.03540  1.0000 0.1352195511
H   H17       1.0  0.13180  0.47030  0.43120  1.0000 0.1308121751
H   H18       1.0  0.36820  0.02970  0.93120  1.0000 0.1308121751
H   H19       1.0  0.63180  0.02970  0.56880  1.0000 0.1308121751
H   H20       1.0  0.86820  0.47030  0.06880  1.0000 0.1308121751
H   H21       1.0  0.86820  0.52970  0.56880  1.0000 0.1308121751
H   H22       1.0  0.63180  0.97030  0.06880  1.0000 0.1308121751
H   H23       1.0  0.36820  0.97030  0.43120  1.0000 0.1308121751
H   H24       1.0  0.13180  0.52970  0.93120  1.0000 0.1308121751
H   H25       1.0  0.25440  0.37440  0.26690  1.0000 0.1463985354
H   H26       1.0  0.24560  0.12560  0.76690  1.0000 0.1463985354
H   H27       1.0  0.75440  0.12560  0.73310  1.0000 0.1463985354
H   H28       1.0  0.74560  0.37440  0.23310  1.0000 0.1463985354
H   H29       1.0  0.74560  0.62560  0.73310  1.0000 0.1463985354
H   H30       1.0  0.75440  0.87440  0.23310  1.0000 0.1463985354
H   H31       1.0  0.24560  0.87440  0.26690  1.0000 0.1463985354
H   H32       1.0  0.25440  0.62560  0.76690  1.0000 0.1463985354
H   H33       1.0  0.35950  0.27650  0.43470  1.0000 0.1308121751
H   H34       1.0  0.14050  0.22350  0.93470  1.0000 0.1308121751
H   H35       1.0  0.85950  0.22350  0.56530  1.0000 0.1308121751
H   H36       1.0  0.64050  0.27650  0.06530  1.0000 0.1308121751
H   H37       1.0  0.64050  0.72350  0.56530  1.0000 0.1308121751
H   H38       1.0  0.85950  0.77650  0.06530  1.0000 0.1308121751
H   H39       1.0  0.14050  0.77650  0.43470  1.0000 0.1308121751
H   H40       1.0  0.35950  0.72350  0.93470  1.0000 0.1308121751
C   C1        1.0  0.32740  0.38140  0.55250  1.0000 0.0722171599
C   C2        1.0  0.17260  0.11860  0.05250  1.0000 0.0722171599
C   C3        1.0  0.82740  0.11860  0.44750  1.0000 0.0722171599
C   C4        1.0  0.67260  0.38140  0.94750  1.0000 0.0722171599
C   C5        1.0  0.67260  0.61860  0.44750  1.0000 0.0722171599
C   C6        1.0  0.82740  0.88140  0.94750  1.0000 0.0722171599
C   C7        1.0  0.17260  0.88140  0.55250  1.0000 0.0722171599
C   C8        1.0  0.32740  0.61860  0.05250  1.0000 0.0722171599
C   C9        1.0  0.15400  0.36920  0.54960  1.0000 0.0764616686
C   C10       1.0  0.34600  0.13080  0.04960  1.0000 0.0764616686
C   C11       1.0  0.65400  0.13080  0.45040  1.0000 0.0764616686
C   C12       1.0  0.84600  0.36920  0.95040  1.0000 0.0764616686
C   C13       1.0  0.84600  0.63080  0.45040  1.0000 0.0764616686
C   C14       1.0  0.65400  0.86920  0.95040  1.0000 0.0722171599
C   C15       1.0  0.34600  0.86920  0.54960  1.0000 0.0722171599
C   C16       1.0  0.15400  0.63080  0.04960  1.0000 0.0764616686
C   C17       1.0  0.24630  0.37680  0.44290  1.0000 0.1463985354
C   C18       1.0  0.25370  0.12320  0.94290  1.0000 0.1463985354
C   C19       1.0  0.74630  0.12320  0.55710  1.0000 0.1463985354
C   C20       1.0  0.75370  0.37680  0.05710  1.0000 0.1463985354
C   C21       1.0  0.75370  0.62320  0.55710  1.0000 0.1463985354
C   C22       1.0  0.74630  0.87680  0.05710  1.0000 0.1463985354
C   C23       1.0  0.25370  0.87680  0.44290  1.0000 0.1463985354
C   C24       1.0  0.24630  0.62320  0.94290  1.0000 0.1463985354
C   C25       1.0  0.17990  0.43280  0.40970  1.0000 -0.1884025216
C   C26       1.0  0.32010  0.06720  0.90970  1.0000 -0.1884025216
C   C27       1.0  0.67990  0.06720  0.59030  1.0000 -0.1884025216
C   C28       1.0  0.82010  0.43280  0.09030  1.0000 -0.1884025216
C   C29       1.0  0.82010  0.56720  0.59030  1.0000 -0.1884025216
C   C30       1.0  0.67990  0.93280  0.09030  1.0000 -0.1884025216
C   C31       1.0  0.32010  0.93280  0.40970  1.0000 -0.1884025216
C   C32       1.0  0.17990  0.56720  0.90970  1.0000 -0.1884025216
C   C33       1.0  0.18500  0.43310  0.34250  1.0000 -0.0031947352
C   C34       1.0  0.31500  0.06690  0.84250  1.0000 -0.0031947352
C   C35       1.0  0.68500  0.06690  0.65750  1.0000 -0.0031947352
C   C36       1.0  0.81500  0.43310  0.15750  1.0000 -0.0031947352
C   C37       1.0  0.81500  0.56690  0.65750  1.0000 -0.0031947352
C   C38       1.0  0.68500  0.93310  0.15750  1.0000 -0.0031947352
C   C39       1.0  0.31500  0.93310  0.34250  1.0000 -0.0031947352
C   C40       1.0  0.18500  0.56690  0.84250  1.0000 -0.0031947352
C   C41       1.0  0.25170  0.37420  0.31130  1.0000 -0.0964134018
C   C42       1.0  0.24830  0.12580  0.81130  1.0000 -0.0949515929
C   C43       1.0  0.75170  0.12580  0.68870  1.0000 -0.0949515929
C   C44       1.0  0.74830  0.37420  0.18870  1.0000 -0.0964134018
C   C45       1.0  0.74830  0.62580  0.68870  1.0000 -0.0964134018
C   C46       1.0  0.75170  0.87420  0.18870  1.0000 -0.0964134018
C   C47       1.0  0.24830  0.87420  0.31130  1.0000 -0.0964134018
C   C48       1.0  0.25170  0.62580  0.81130  1.0000 -0.0964134018
C   C49       1.0  0.31580  0.31370  0.34590  1.0000 0.0073136917
C   C50       1.0  0.18420  0.18630  0.84590  1.0000 0.0073136917
C   C51       1.0  0.81580  0.18630  0.65410  1.0000 0.0073136917
C   C52       1.0  0.68420  0.31370  0.15410  1.0000 0.0073136917
C   C53       1.0  0.68420  0.68630  0.65410  1.0000 0.0073136917
C   C54       1.0  0.81580  0.81370  0.15410  1.0000 0.0073136917
C   C55       1.0  0.18420  0.81370  0.34590  1.0000 0.0073136917
C   C56       1.0  0.31580  0.68630  0.84590  1.0000 0.0073136917
C   C57       1.0  0.38740  0.24690  0.31040  1.0000 0.5770866121
C   C58       1.0  0.11260  0.25310  0.81040  1.0000 0.5770866121
C   C59       1.0  0.88740  0.25310  0.68960  1.0000 0.5770866121
C   C60       1.0  0.61260  0.24690  0.18960  1.0000 0.5770866121
C   C61       1.0  0.61260  0.75310  0.68960  1.0000 0.5770866121
C   C62       1.0  0.88740  0.74690  0.18960  1.0000 0.5770866121
C   C63       1.0  0.11260  0.74690  0.31040  1.0000 0.5770866121
C   C64       1.0  0.38740  0.75310  0.81040  1.0000 0.5770866121
C   C65       1.0  0.31540  0.31520  0.41140  1.0000 -0.1965095821
C   C66       1.0  0.18460  0.18480  0.91140  1.0000 -0.1884025216
C   C67       1.0  0.81540  0.18480  0.58860  1.0000 -0.1884025216
C   C68       1.0  0.68460  0.31520  0.08860  1.0000 -0.1965095821
C   C69       1.0  0.68460  0.68480  0.58860  1.0000 -0.1965095821
C   C70       1.0  0.81540  0.81520  0.08860  1.0000 -0.1965095821
C   C71       1.0  0.18460  0.81520  0.41140  1.0000 -0.1965095821
C   C72       1.0  0.31540  0.68480  0.91140  1.0000 -0.1965095821
C   C73       1.0  0.11970  0.50100  0.30640  1.0000 0.5770866121
C   C74       1.0  0.38030  0.99900  0.80640  1.0000 0.5770866121
C   C75       1.0  0.61970  0.99900  0.69360  1.0000 0.5770866121
C   C76       1.0  0.88030  0.50100  0.19360  1.0000 0.5770866121
C   C77       1.0  0.88030  0.49900  0.69360  1.0000 0.5770866121
C   C78       1.0  0.61970  0.00100  0.19360  1.0000 0.5770866121
C   C79       1.0  0.38030  0.00100  0.30640  1.0000 0.5770866121
C   C80       1.0  0.11970  0.49900  0.80640  1.0000 0.5770866121
N   N1        1.0  0.24290  0.37670  0.51140  1.0000 -0.0254331814
N   N2        1.0  0.25710  0.12330  0.01140  1.0000 -0.0244746958
N   N3        1.0  0.74290  0.12330  0.48860  1.0000 -0.0244746958
N   N4        1.0  0.75710  0.37670  0.98860  1.0000 -0.0254331814
N   N5        1.0  0.75710  0.62330  0.48860  1.0000 -0.0244746958
N   N6        1.0  0.74290  0.87670  0.98860  1.0000 -0.0244746958
N   N7        1.0  0.25710  0.87670  0.51140  1.0000 -0.0244746958
N   N8        1.0  0.24290  0.62330  0.01140  1.0000 -0.0244746958
N   N9        1.0  0.18330  0.37680  0.60920  1.0000 -0.1884025216
N   N10       1.0  0.31670  0.12320  0.10920  1.0000 -0.1884025216
N   N11       1.0  0.68330  0.12320  0.39080  1.0000 -0.1884025216
N   N12       1.0  0.81670  0.37680  0.89080  1.0000 -0.1884025216
N   N13       1.0  0.81670  0.62320  0.39080  1.0000 -0.1884025216
N   N14       1.0  0.68330  0.87680  0.89080  1.0000 -0.1884025216
N   N15       1.0  0.31670  0.87680  0.60920  1.0000 -0.1884025216
N   N16       1.0  0.18330  0.62320  0.10920  1.0000 -0.1884025216
N   N17       1.0  0.29540  0.38750  0.61120  1.0000 -0.1965095821
N   N18       1.0  0.20460  0.11250  0.11120  1.0000 -0.1965095821
N   N19       1.0  0.79540  0.11250  0.38880  1.0000 -0.1965095821
N   N20       1.0  0.70460  0.38750  0.88880  1.0000 -0.1965095821
N   N21       1.0  0.70460  0.61250  0.38880  1.0000 -0.1965095821
N   N22       1.0  0.79540  0.88750  0.88880  1.0000 -0.1965095821
N   N23       1.0  0.20460  0.88750  0.61120  1.0000 -0.1965095821
N   N24       1.0  0.29540  0.61250  0.11120  1.0000 -0.1965095821
O   O1        1.0  0.35650  0.22390  0.25670  1.0000 -0.5198627641
O   O2        1.0  0.14350  0.27610  0.75670  1.0000 -0.5198627641
O   O3        1.0  0.85650  0.27610  0.74330  1.0000 -0.5198627641
O   O4        1.0  0.64350  0.22390  0.24330  1.0000 -0.5198627641
O   O5        1.0  0.64350  0.77610  0.74330  1.0000 -0.5198627641
O   O6        1.0  0.85650  0.72390  0.24330  1.0000 -0.5198627641
O   O7        1.0  0.14350  0.72390  0.25670  1.0000 -0.5198627641
O   O8        1.0  0.35650  0.77610  0.75670  1.0000 -0.5198627641
O   O9        1.0  0.46950  0.21940  0.33940  1.0000 -0.5524539506
O   O10       1.0  0.03050  0.28060  0.83940  1.0000 -0.5524539506
O   O11       1.0  0.96950  0.28060  0.66060  1.0000 -0.5524539506
O   O12       1.0  0.53050  0.21940  0.16060  1.0000 -0.5524539506
O   O13       1.0  0.53050  0.78060  0.66060  1.0000 -0.5524539506
O   O14       1.0  0.96950  0.71940  0.16060  1.0000 -0.5524539506
O   O15       1.0  0.03050  0.71940  0.33940  1.0000 -0.5524539506
O   O16       1.0  0.46950  0.78060  0.83940  1.0000 -0.5524539506
O   O17       1.0  0.15080  0.52280  0.25170  1.0000 -0.5263626655
O   O18       1.0  0.34920  0.97720  0.75170  1.0000 -0.5263626655
O   O19       1.0  0.65080  0.97720  0.74830  1.0000 -0.5263626655
O   O20       1.0  0.84920  0.52280  0.24830  1.0000 -0.5263626655
O   O21       1.0  0.84920  0.47720  0.74830  1.0000 -0.5263626655
O   O22       1.0  0.65080  0.02280  0.24830  1.0000 -0.5263626655
O   O23       1.0  0.34920  0.02280  0.25170  1.0000 -0.5263626655
O   O24       1.0  0.15080  0.47720  0.75170  1.0000 -0.5263626655
O   O25       1.0  0.03720  0.53130  0.33420  1.0000 -0.5524539506
O   O26       1.0  0.46280  0.96870  0.83420  1.0000 -0.5524539506
O   O27       1.0  0.53720  0.96870  0.66580  1.0000 -0.5524539506
O   O28       1.0  0.96280  0.53130  0.16580  1.0000 -0.5524539506
O   O29       1.0  0.96280  0.46870  0.66580  1.0000 -0.5524539506
O   O30       1.0  0.53720  0.03130  0.16580  1.0000 -0.5524539506
O   O31       1.0  0.46280  0.03130  0.33420  1.0000 -0.5524539506
O   O32       1.0  0.03720  0.46870  0.83420  1.0000 -0.5524539506
