# DDEC6 charges by PACMAN v1.1 (https://github.com/mtap-research/PACMAN-charge/)
data_2011[Dy][mog]3[FSR]1
_chemical_formula_sum              "Dy2 H12 C14 N4 O16"
_cell_length_a       6.0535
_cell_length_b       9.9159
_cell_length_c       13.2903
_cell_angle_alpha    68.832
_cell_angle_beta     81.273
_cell_angle_gamma    76.875

_symmetry_space_group_name_H-M    "P 1"
_symmetry_Int_Tables_number       1

loop_
  _symmetry_equiv_pos_as_xyz
  'x, y, z'

loop_
  _atom_site_type_symbol
  _atom_site_label
  _atom_site_symmetry_multiplicity
  _atom_site_fract_x
  _atom_site_fract_y
  _atom_site_fract_z
  _atom_site_occupancy
  _atom_site_charge
Dy  Dy1       1.0  0.16536  0.38618  0.80489  1.0000 1.9485586528
Dy  Dy2       1.0  0.83464  0.61382  0.19511  1.0000 1.9485586528
H   H1        1.0  0.67340  0.95240  0.97080  1.0000 0.1393934656
H   H2        1.0  0.32660  0.04760  0.02920  1.0000 0.1393934656
H   H3        1.0  0.29450  0.67860  0.37140  1.0000 0.1341612432
H   H4        1.0  0.70550  0.32140  0.62860  1.0000 0.1341612432
H   H5        1.0  0.12580  0.22330  0.65670  1.0000 0.3486020062
H   H6        1.0  0.87420  0.77670  0.34330  1.0000 0.3486020062
H   H7        1.0  0.28450  0.14650  0.72020  1.0000 0.3216297273
H   H8        1.0  0.71550  0.85350  0.27980  1.0000 0.3216297273
H   H9        1.0  0.53280  0.51430  0.78880  1.0000 0.3382643405
H   H10       1.0  0.46720  0.48570  0.21120  1.0000 0.3382643405
H   H11       1.0  0.42300  0.63640  0.72920  1.0000 0.3319992665
H   H12       1.0  0.57700  0.36360  0.27080  1.0000 0.3319992665
C   C1        1.0  0.71060  0.23530  0.85830  1.0000 0.587813044
C   C2        1.0  0.28940  0.76470  0.14170  1.0000 0.587813044
C   C3        1.0  0.86340  0.10710  0.93040  1.0000 0.0690362677
C   C4        1.0  0.13660  0.89290  0.06960  1.0000 0.0690362677
C   C5        1.0  0.80840  0.97040  0.98420  1.0000 0.0821291748
C   C6        1.0  0.19160  0.02960  0.01580  1.0000 0.0821291748
C   C7        1.0  0.04920  0.61830  0.56130  1.0000 0.5583181027
C   C8        1.0  0.95080  0.38170  0.43870  1.0000 0.5583181027
C   C9        1.0  0.28920  0.55520  0.52810  1.0000 0.0690362677
C   C10       1.0  0.71080  0.44480  0.47190  1.0000 0.0690362677
C   C11       1.0  0.38180  0.60400  0.42310  1.0000 0.0556739774
C   C12       1.0  0.61820  0.39600  0.57690  1.0000 0.0556739774
C   C13       1.0  0.91080  0.56100  0.96570  1.0000 0.5067936424
C   C14       1.0  0.08920  0.43900  0.03430  1.0000 0.5067936424
N   N1        1.0  0.06110  0.13610  0.94610  1.0000 -0.2693102118
N   N2        1.0  0.93890  0.86390  0.05390  1.0000 -0.2693102118
N   N3        1.0  0.40700  0.45210  0.60700  1.0000 -0.2693102118
N   N4        1.0  0.59300  0.54790  0.39300  1.0000 -0.2693102118
O   O1        1.0  0.78380  0.35310  0.81600  1.0000 -0.582643127
O   O2        1.0  0.21620  0.64690  0.18400  1.0000 -0.582643127
O   O3        1.0  0.51660  0.21890  0.84750  1.0000 -0.6336569246
O   O4        1.0  0.48340  0.78110  0.15250  1.0000 -0.6336569246
O   O5        1.0  0.98440  0.56750  0.65940  1.0000 -0.6055693384
O   O6        1.0  0.01560  0.43250  0.34060  1.0000 -0.6055693384
O   O7        1.0  0.92820  0.71060  0.49070  1.0000 -0.5186670181
O   O8        1.0  0.07180  0.28940  0.50930  1.0000 -0.5186670181
O   O9        1.0  0.91570  0.57070  0.86920  1.0000 -0.549507862
O   O10       1.0  0.08430  0.42930  0.13080  1.0000 -0.549507862
O   O11       1.0  0.77430  0.63880  0.01320  1.0000 -0.582643127
O   O12       1.0  0.22570  0.36120  0.98680  1.0000 -0.5851011034
O   O13       1.0  0.16680  0.21340  0.71750  1.0000 -0.7632950898
O   O14       1.0  0.83320  0.78660  0.28250  1.0000 -0.7632950898
O   O15       1.0  0.40100  0.56320  0.78080  1.0000 -0.7155772801
O   O16       1.0  0.59900  0.43680  0.21920  1.0000 -0.7155772801
