# DDEC6 charges by PACMAN v1.1 (https://github.com/mtap-research/PACMAN-charge/)
data_2011[Cu][pts]3[FSR]3
_chemical_formula_sum              "Cu8 H120 C136 N8 O48"
_cell_length_a       15.3862
_cell_length_b       15.3862
_cell_length_c       20.808
_cell_angle_alpha    85.3516
_cell_angle_beta     94.6484
_cell_angle_gamma    117.138

_symmetry_space_group_name_H-M    "P 1"
_symmetry_Int_Tables_number       1

loop_
  _symmetry_equiv_pos_as_xyz
  'x, y, z'

loop_
  _atom_site_type_symbol
  _atom_site_label
  _atom_site_symmetry_multiplicity
  _atom_site_fract_x
  _atom_site_fract_y
  _atom_site_fract_z
  _atom_site_occupancy
  _atom_site_charge
Cu  Cu1       1.0  0.99215  0.01033  0.68631  1.0000 0.8315489562
Cu  Cu2       1.0  0.01033  0.99215  0.81369  1.0000 0.8315489562
Cu  Cu3       1.0  0.00785  0.98967  0.31369  1.0000 0.8315489562
Cu  Cu4       1.0  0.98967  0.00785  0.18631  1.0000 0.8315489562
Cu  Cu5       1.0  0.55865  0.95879  0.50305  1.0000 0.8114518792
Cu  Cu6       1.0  0.95879  0.55865  0.99695  1.0000 0.8114518792
Cu  Cu7       1.0  0.44135  0.04121  0.49695  1.0000 0.8114518792
Cu  Cu8       1.0  0.04121  0.44135  0.00305  1.0000 0.8114518792
H   H1        1.0  0.97090  0.69270  0.82110  1.0000 0.1192616235
H   H2        1.0  0.69270  0.97090  0.67890  1.0000 0.1192616235
H   H3        1.0  0.02910  0.30730  0.17890  1.0000 0.1192616235
H   H4        1.0  0.30730  0.02910  0.32110  1.0000 0.1192616235
H   H5        1.0  0.94870  0.53450  0.80930  1.0000 0.1382695114
H   H6        1.0  0.53450  0.94870  0.69070  1.0000 0.1382695114
H   H7        1.0  0.05130  0.46550  0.19070  1.0000 0.1382695114
H   H8        1.0  0.46550  0.05130  0.30930  1.0000 0.1382695114
H   H9        1.0  0.92060  0.72280  0.63100  1.0000 0.111302969
H   H10       1.0  0.72280  0.92060  0.86900  1.0000 0.111302969
H   H11       1.0  0.07940  0.27720  0.36900  1.0000 0.111302969
H   H12       1.0  0.27720  0.07940  0.13100  1.0000 0.111302969
H   H13       1.0  0.89750  0.56470  0.61750  1.0000 0.1382695114
H   H14       1.0  0.56470  0.89750  0.88250  1.0000 0.1382695114
H   H15       1.0  0.10250  0.43530  0.38250  1.0000 0.1382695114
H   H16       1.0  0.43530  0.10250  0.11750  1.0000 0.1382695114
H   H17       1.0  0.74490  0.42650  0.65470  1.0000 0.1287485843
H   H18       1.0  0.42650  0.74490  0.84530  1.0000 0.1287485843
H   H19       1.0  0.25510  0.57350  0.34530  1.0000 0.1287485843
H   H20       1.0  0.57350  0.25510  0.15470  1.0000 0.1287485843
H   H21       1.0  0.90870  0.24270  0.53020  1.0000 0.1287485843
H   H22       1.0  0.24270  0.90870  0.96980  1.0000 0.1287485843
H   H23       1.0  0.09130  0.75730  0.46980  1.0000 0.1287485843
H   H24       1.0  0.75730  0.09130  0.03020  1.0000 0.1287485843
H   H25       1.0  0.82340  0.17860  0.48220  1.0000 0.1382695114
H   H26       1.0  0.17860  0.82340  0.01780  1.0000 0.1382695114
H   H27       1.0  0.17660  0.82140  0.51780  1.0000 0.1382695114
H   H28       1.0  0.82140  0.17660  0.98220  1.0000 0.1382695114
H   H29       1.0  0.92880  0.24260  0.45750  1.0000 0.1287485843
H   H30       1.0  0.24260  0.92880  0.04250  1.0000 0.1287485843
H   H31       1.0  0.07120  0.75740  0.54250  1.0000 0.1287485843
H   H32       1.0  0.75740  0.07120  0.95750  1.0000 0.1287485843
H   H33       1.0  0.79580  0.15560  0.63210  1.0000 0.111302969
H   H34       1.0  0.15560  0.79580  0.86790  1.0000 0.111302969
H   H35       1.0  0.20420  0.84440  0.36790  1.0000 0.111302969
H   H36       1.0  0.84440  0.20420  0.13210  1.0000 0.111302969
H   H37       1.0  0.13360  0.72380  0.70460  1.0000 0.1287485843
H   H38       1.0  0.72380  0.13360  0.79540  1.0000 0.1287485843
H   H39       1.0  0.86640  0.27620  0.29540  1.0000 0.1287485843
H   H40       1.0  0.27620  0.86640  0.20460  1.0000 0.1287485843
H   H41       1.0  0.10530  0.45710  0.85040  1.0000 0.1483409823
H   H42       1.0  0.45710  0.10530  0.64960  1.0000 0.1483409823
H   H43       1.0  0.89470  0.54290  0.14960  1.0000 0.1483409823
H   H44       1.0  0.54290  0.89470  0.35040  1.0000 0.1483409823
H   H45       1.0  0.23890  0.85250  0.63930  1.0000 0.1192616235
H   H46       1.0  0.85250  0.23890  0.86070  1.0000 0.1192616235
H   H47       1.0  0.76110  0.14750  0.36070  1.0000 0.1192616235
H   H48       1.0  0.14750  0.76110  0.13930  1.0000 0.1192616235
H   H49       1.0  0.11380  0.31860  0.66330  1.0000 0.1192616235
H   H50       1.0  0.31860  0.11380  0.83670  1.0000 0.1192616235
H   H51       1.0  0.88620  0.68140  0.33670  1.0000 0.1192616235
H   H52       1.0  0.68140  0.88620  0.16330  1.0000 0.1192616235
H   H53       1.0  0.05850  0.29190  0.85100  1.0000 0.1192616235
H   H54       1.0  0.29190  0.05850  0.64900  1.0000 0.1192616235
H   H55       1.0  0.94150  0.70810  0.14900  1.0000 0.1192616235
H   H56       1.0  0.70810  0.94150  0.35100  1.0000 0.1192616235
H   H57       1.0  0.91360  0.28820  0.68480  1.0000 0.1287485843
H   H58       1.0  0.28820  0.91360  0.81520  1.0000 0.1287485843
H   H59       1.0  0.08640  0.71180  0.31520  1.0000 0.1287485843
H   H60       1.0  0.71180  0.08640  0.18480  1.0000 0.1287485843
H   H61       1.0  0.95830  0.15130  0.59800  1.0000 0.0960459904
H   H62       1.0  0.15130  0.95830  0.90200  1.0000 0.0960459904
H   H63       1.0  0.04170  0.84870  0.40200  1.0000 0.0960459904
H   H64       1.0  0.84870  0.04170  0.09800  1.0000 0.0960459904
H   H65       1.0  0.32220  0.60940  0.71880  1.0000 0.1382695114
H   H66       1.0  0.60940  0.32220  0.78120  1.0000 0.1382695114
H   H67       1.0  0.67780  0.39060  0.28120  1.0000 0.1382695114
H   H68       1.0  0.39060  0.67780  0.21880  1.0000 0.1382695114
H   H69       1.0  0.62740  0.29240  0.60220  1.0000 0.1287485843
H   H70       1.0  0.29240  0.62740  0.89780  1.0000 0.1287485843
H   H71       1.0  0.37260  0.70760  0.39780  1.0000 0.1287485843
H   H72       1.0  0.70760  0.37260  0.10220  1.0000 0.1287485843
H   H73       1.0  0.42450  0.73430  0.65190  1.0000 0.1287485843
H   H74       1.0  0.73430  0.42450  0.84810  1.0000 0.1287485843
H   H75       1.0  0.57550  0.26570  0.34810  1.0000 0.1287485843
H   H76       1.0  0.26570  0.57550  0.15190  1.0000 0.1287485843
H   H77       1.0  0.15960  0.48340  0.66190  1.0000 0.1382695114
H   H78       1.0  0.48340  0.15960  0.83810  1.0000 0.1382695114
H   H79       1.0  0.84040  0.51660  0.33810  1.0000 0.1382695114
H   H80       1.0  0.51660  0.84040  0.16190  1.0000 0.1382695114
H   H81       1.0  0.91170  0.00630  0.47100  1.0000 0.1287485843
H   H82       1.0  0.00630  0.91170  0.02900  1.0000 0.1287485843
H   H83       1.0  0.08830  0.99370  0.52900  1.0000 0.1287485843
H   H84       1.0  0.99370  0.08830  0.97100  1.0000 0.1287485843
H   H85       1.0  0.93170  0.09350  0.42010  1.0000 0.1287485843
H   H86       1.0  0.09350  0.93170  0.07990  1.0000 0.1287485843
H   H87       1.0  0.06830  0.90650  0.57990  1.0000 0.1287485843
H   H88       1.0  0.90650  0.06830  0.92010  1.0000 0.1287485843
H   H89       1.0  0.82590  0.02950  0.44400  1.0000 0.1287485843
H   H90       1.0  0.02950  0.82590  0.05600  1.0000 0.1287485843
H   H91       1.0  0.17410  0.97050  0.55600  1.0000 0.1287485843
H   H92       1.0  0.97050  0.17410  0.94400  1.0000 0.1192616235
H   H93       1.0  0.70110  0.88810  0.56800  1.0000 0.1382695114
H   H94       1.0  0.88810  0.70110  0.93200  1.0000 0.1382695114
H   H95       1.0  0.29890  0.11190  0.43200  1.0000 0.1382695114
H   H96       1.0  0.11190  0.29890  0.06800  1.0000 0.1382695114
H   H97       1.0  0.76750  0.74450  0.44400  1.0000 0.1287485843
H   H98       1.0  0.74450  0.76750  0.05600  1.0000 0.1287485843
H   H99       1.0  0.23250  0.25550  0.55600  1.0000 0.1287485843
H   H100      1.0  0.25550  0.23250  0.94400  1.0000 0.1287485843
H   H101      1.0  0.66170  0.73610  0.43810  1.0000 0.1382695114
H   H102      1.0  0.73610  0.66170  0.06190  1.0000 0.1382695114
H   H103      1.0  0.33830  0.26390  0.56190  1.0000 0.1382695114
H   H104      1.0  0.26390  0.33830  0.93810  1.0000 0.1382695114
H   H105      1.0  0.75110  0.83430  0.41720  1.0000 0.1382695114
H   H106      1.0  0.83430  0.75110  0.08280  1.0000 0.1382695114
H   H107      1.0  0.24890  0.16570  0.58280  1.0000 0.1382695114
H   H108      1.0  0.16570  0.24890  0.91720  1.0000 0.1382695114
H   H109      1.0  0.80960  0.82820  0.59290  1.0000 0.1287485843
H   H110      1.0  0.82820  0.80960  0.90710  1.0000 0.1287485843
H   H111      1.0  0.19040  0.17180  0.40710  1.0000 0.1287485843
H   H112      1.0  0.17180  0.19040  0.09290  1.0000 0.1287485843
H   H113      1.0  0.79110  0.73310  0.55940  1.0000 0.1192616235
H   H114      1.0  0.73310  0.79110  0.94060  1.0000 0.1192616235
H   H115      1.0  0.20890  0.26690  0.44060  1.0000 0.1192616235
H   H116      1.0  0.26690  0.20890  0.05940  1.0000 0.1192616235
H   H117      1.0  0.87120  0.83520  0.53460  1.0000 0.1382695114
H   H118      1.0  0.83520  0.87120  0.96540  1.0000 0.1382695114
H   H119      1.0  0.12880  0.16480  0.46540  1.0000 0.1382695114
H   H120      1.0  0.16480  0.12880  0.03460  1.0000 0.1382695114
C   C1        1.0  0.96220  0.82560  0.73480  1.0000 0.5589322419
C   C2        1.0  0.82560  0.96220  0.76520  1.0000 0.5589322419
C   C3        1.0  0.03780  0.17440  0.26520  1.0000 0.5589322419
C   C4        1.0  0.17440  0.03780  0.23480  1.0000 0.5589322419
C   C5        1.0  0.94670  0.72370  0.72650  1.0000 -0.0462730928
C   C6        1.0  0.72370  0.94670  0.77350  1.0000 -0.0462730928
C   C7        1.0  0.05330  0.27630  0.27350  1.0000 -0.0462730928
C   C8        1.0  0.27630  0.05330  0.22650  1.0000 -0.0462730928
C   C9        1.0  0.95590  0.66690  0.78040  1.0000 -0.0823583259
C   C10       1.0  0.66690  0.95590  0.71960  1.0000 -0.0823583259
C   C11       1.0  0.04410  0.33310  0.21960  1.0000 -0.0823583259
C   C12       1.0  0.33310  0.04410  0.28040  1.0000 -0.0823583259
C   C13       1.0  0.94250  0.57210  0.77350  1.0000 -0.2011752827
C   C14       1.0  0.57210  0.94250  0.72650  1.0000 -0.2011752827
C   C15       1.0  0.05750  0.42790  0.22650  1.0000 -0.2011752827
C   C16       1.0  0.42790  0.05750  0.27350  1.0000 -0.2011752827
C   C17       1.0  0.92570  0.68490  0.66680  1.0000 -0.0905655046
C   C18       1.0  0.68490  0.92570  0.83320  1.0000 -0.0905655046
C   C19       1.0  0.07430  0.31510  0.33320  1.0000 -0.0905655046
C   C20       1.0  0.31510  0.07430  0.16680  1.0000 -0.0905655046
C   C21       1.0  0.91180  0.59020  0.65830  1.0000 -0.2372823721
C   C22       1.0  0.59020  0.91180  0.84170  1.0000 -0.2372823721
C   C23       1.0  0.08820  0.40980  0.34170  1.0000 -0.2372823721
C   C24       1.0  0.40980  0.08820  0.15830  1.0000 -0.2372823721
C   C25       1.0  0.92010  0.53470  0.71290  1.0000 0.2595760496
C   C26       1.0  0.53470  0.92010  0.78710  1.0000 0.2595760496
C   C27       1.0  0.07990  0.46530  0.28710  1.0000 0.2595760496
C   C28       1.0  0.46530  0.07990  0.21290  1.0000 0.2595760496
C   C29       1.0  0.84100  0.37060  0.67410  1.0000 0.2595760496
C   C30       1.0  0.37060  0.84100  0.82590  1.0000 0.2595760496
C   C31       1.0  0.15900  0.62940  0.32590  1.0000 0.2595760496
C   C32       1.0  0.62940  0.15900  0.17410  1.0000 0.2595760496
C   C33       1.0  0.75540  0.37240  0.64990  1.0000 -0.2276449083
C   C34       1.0  0.37240  0.75540  0.85010  1.0000 -0.2276449083
C   C35       1.0  0.24460  0.62760  0.35010  1.0000 -0.2276449083
C   C36       1.0  0.62760  0.24460  0.14990  1.0000 -0.2276449083
C   C37       1.0  0.89210  0.20350  0.49330  1.0000 -0.3424649714
C   C38       1.0  0.20350  0.89210  0.00670  1.0000 -0.3424649714
C   C39       1.0  0.10790  0.79650  0.50670  1.0000 -0.3424649714
C   C40       1.0  0.79650  0.10790  0.99330  1.0000 -0.3424649714
C   C41       1.0  0.04930  0.18090  0.75660  1.0000 0.5589322419
C   C42       1.0  0.18090  0.04930  0.74340  1.0000 0.5589322419
C   C43       1.0  0.95070  0.81910  0.24340  1.0000 0.5589322419
C   C44       1.0  0.81910  0.95070  0.25660  1.0000 0.5589322419
C   C45       1.0  0.78570  0.20990  0.63620  1.0000 -0.0905655046
C   C46       1.0  0.20990  0.78570  0.86380  1.0000 -0.0905655046
C   C47       1.0  0.21430  0.79010  0.36380  1.0000 -0.0905655046
C   C48       1.0  0.79010  0.21430  0.13620  1.0000 -0.0905655046
C   C49       1.0  0.62520  0.12660  0.57420  1.0000 0.5589322419
C   C50       1.0  0.12660  0.62520  0.92580  1.0000 0.5589322419
C   C51       1.0  0.37480  0.87340  0.42580  1.0000 0.5589322419
C   C52       1.0  0.87340  0.37480  0.07420  1.0000 0.5589322419
C   C53       1.0  0.40520  0.88300  0.58970  1.0000 0.5493554742
C   C54       1.0  0.88300  0.40520  0.91030  1.0000 0.5493554742
C   C55       1.0  0.59480  0.11700  0.41030  1.0000 0.5493554742
C   C56       1.0  0.11700  0.59480  0.08970  1.0000 0.5493554742
C   C57       1.0  0.08100  0.28800  0.75720  1.0000 -0.0414263355
C   C58       1.0  0.28800  0.08100  0.74280  1.0000 -0.0414263355
C   C59       1.0  0.91900  0.71200  0.24280  1.0000 -0.0414263355
C   C60       1.0  0.71200  0.91900  0.25720  1.0000 -0.0414263355
C   C61       1.0  0.19220  0.72620  0.69380  1.0000 -0.2098096852
C   C62       1.0  0.72620  0.19220  0.80620  1.0000 -0.2098096852
C   C63       1.0  0.80780  0.27380  0.30620  1.0000 -0.2098096852
C   C64       1.0  0.27380  0.80780  0.19380  1.0000 -0.2098096852
C   C65       1.0  0.10610  0.42870  0.81280  1.0000 -0.194967243
C   C66       1.0  0.42870  0.10610  0.68720  1.0000 -0.194967243
C   C67       1.0  0.89390  0.57130  0.18720  1.0000 -0.194967243
C   C68       1.0  0.57130  0.89390  0.31280  1.0000 -0.194967243
C   C69       1.0  0.21740  0.65360  0.71680  1.0000 0.2448233784
C   C70       1.0  0.65360  0.21740  0.78320  1.0000 0.2448233784
C   C71       1.0  0.78260  0.34640  0.28320  1.0000 0.2448233784
C   C72       1.0  0.34640  0.78260  0.21680  1.0000 0.2448233784
C   C73       1.0  0.25500  0.80280  0.65430  1.0000 -0.0905655046
C   C74       1.0  0.80280  0.25500  0.84570  1.0000 -0.0905655046
C   C75       1.0  0.74500  0.19720  0.34570  1.0000 -0.0905655046
C   C76       1.0  0.19720  0.74500  0.15430  1.0000 -0.0905655046
C   C77       1.0  0.34130  0.80550  0.63720  1.0000 -0.0314797508
C   C78       1.0  0.80550  0.34130  0.86280  1.0000 -0.0314797508
C   C79       1.0  0.65870  0.19450  0.36280  1.0000 -0.0314797508
C   C80       1.0  0.19450  0.65870  0.13720  1.0000 -0.0314797508
C   C81       1.0  0.69940  0.21060  0.61040  1.0000 -0.0414263355
C   C82       1.0  0.21060  0.69940  0.88960  1.0000 -0.0414263355
C   C83       1.0  0.30060  0.78940  0.38960  1.0000 -0.0414263355
C   C84       1.0  0.78940  0.30060  0.11040  1.0000 -0.0414263355
C   C85       1.0  0.11170  0.34670  0.70070  1.0000 -0.0957839741
C   C86       1.0  0.34670  0.11170  0.79930  1.0000 -0.0957839741
C   C87       1.0  0.88830  0.65330  0.29930  1.0000 -0.0957839741
C   C88       1.0  0.65330  0.88830  0.20070  1.0000 -0.0957839741
C   C89       1.0  0.07870  0.33030  0.81310  1.0000 -0.0905655046
C   C90       1.0  0.33030  0.07870  0.68690  1.0000 -0.0905655046
C   C91       1.0  0.92130  0.66970  0.18690  1.0000 -0.0905655046
C   C92       1.0  0.66970  0.92130  0.31310  1.0000 -0.0905655046
C   C93       1.0  0.85620  0.28920  0.66780  1.0000 -0.2098096852
C   C94       1.0  0.28920  0.85620  0.83220  1.0000 -0.2098096852
C   C95       1.0  0.14380  0.71080  0.33220  1.0000 -0.2098096852
C   C96       1.0  0.71080  0.14380  0.16780  1.0000 -0.2098096852
C   C97       1.0  0.94700  0.10620  0.56720  1.0000 0.2844677837
C   C98       1.0  0.10620  0.94700  0.93280  1.0000 0.2844677837
C   C99       1.0  0.05300  0.89380  0.43280  1.0000 0.2844677837
C   C100      1.0  0.89380  0.05300  0.06720  1.0000 0.2844677837
C   C101      1.0  0.30470  0.65750  0.70190  1.0000 -0.2196825399
C   C102      1.0  0.65750  0.30470  0.79810  1.0000 -0.2196825399
C   C103      1.0  0.69530  0.34250  0.29810  1.0000 -0.2196825399
C   C104      1.0  0.34250  0.69530  0.20190  1.0000 -0.2196825399
C   C105      1.0  0.68530  0.29190  0.61840  1.0000 -0.0738923131
C   C106      1.0  0.29190  0.68530  0.88160  1.0000 -0.0738923131
C   C107      1.0  0.31470  0.70810  0.38160  1.0000 -0.0738923131
C   C108      1.0  0.70810  0.31470  0.11840  1.0000 -0.0738923131
C   C109      1.0  0.36590  0.73230  0.66220  1.0000 -0.0823583259
C   C110      1.0  0.73230  0.36590  0.83780  1.0000 -0.0823583259
C   C111      1.0  0.63410  0.26770  0.33780  1.0000 -0.0823583259
C   C112      1.0  0.26770  0.63410  0.16220  1.0000 -0.0823583259
C   C113      1.0  0.13510  0.48570  0.75560  1.0000 0.2595760496
C   C114      1.0  0.48570  0.13510  0.74440  1.0000 0.2595760496
C   C115      1.0  0.86490  0.51430  0.24440  1.0000 0.2595760496
C   C116      1.0  0.51430  0.86490  0.25560  1.0000 0.2595760496
C   C117      1.0  0.13880  0.44480  0.69970  1.0000 -0.2196825399
C   C118      1.0  0.44480  0.13880  0.80030  1.0000 -0.2196825399
C   C119      1.0  0.86120  0.55520  0.30030  1.0000 -0.2196825399
C   C120      1.0  0.55520  0.86120  0.19970  1.0000 -0.2196825399
C   C121      1.0  0.89430  0.05750  0.45650  1.0000 -0.3424649714
C   C122      1.0  0.05750  0.89430  0.04350  1.0000 -0.3424649714
C   C123      1.0  0.10570  0.94250  0.54350  1.0000 -0.3424649714
C   C124      1.0  0.94250  0.10570  0.95650  1.0000 -0.3424649714
C   C125      1.0  0.69100  0.86600  0.52640  1.0000 0.1608991185
C   C126      1.0  0.86600  0.69100  0.97360  1.0000 0.1608991185
C   C127      1.0  0.30900  0.13400  0.47360  1.0000 0.1608991185
C   C128      1.0  0.13400  0.30900  0.02640  1.0000 0.1608991185
C   C129      1.0  0.72960  0.77900  0.44740  1.0000 -0.3164243354
C   C130      1.0  0.77900  0.72960  0.05260  1.0000 -0.3164243354
C   C131      1.0  0.27040  0.22100  0.55260  1.0000 -0.3164243354
C   C132      1.0  0.22100  0.27040  0.94740  1.0000 -0.3164243354
C   C133      1.0  0.80800  0.80140  0.55250  1.0000 -0.2493190049
C   C134      1.0  0.80140  0.80800  0.94750  1.0000 -0.2493190049
C   C135      1.0  0.19200  0.19860  0.44750  1.0000 -0.2493190049
C   C136      1.0  0.19860  0.19200  0.05250  1.0000 -0.2493190049
N   N1        1.0  0.91520  0.12300  0.50830  1.0000 0.0094676492
N   N2        1.0  0.12300  0.91520  0.99170  1.0000 0.0094676492
N   N3        1.0  0.08480  0.87700  0.49170  1.0000 0.0094676492
N   N4        1.0  0.87700  0.08480  0.00830  1.0000 0.0094676492
N   N5        1.0  0.74220  0.81180  0.51200  1.0000 0.0373716251
N   N6        1.0  0.81180  0.74220  0.98800  1.0000 0.0373716251
N   N7        1.0  0.25780  0.18820  0.48800  1.0000 0.0373716251
N   N8        1.0  0.18820  0.25780  0.01200  1.0000 0.0373716251
O   O1        1.0  0.95273  0.87227  0.68387  1.0000 -0.5293620257
O   O2        1.0  0.87227  0.95273  0.81613  1.0000 -0.5293620257
O   O3        1.0  0.04727  0.12773  0.31613  1.0000 -0.5293620257
O   O4        1.0  0.12773  0.04727  0.18387  1.0000 -0.5293620257
O   O5        1.0  0.98360  0.85800  0.79056  1.0000 -0.5417858689
O   O6        1.0  0.85800  0.98360  0.70944  1.0000 -0.5417858689
O   O7        1.0  0.01640  0.14200  0.20944  1.0000 -0.5417858689
O   O8        1.0  0.14200  0.01640  0.29056  1.0000 -0.5417858689
O   O9        1.0  0.91561  0.44359  0.70920  1.0000 -0.2098096852
O   O10       1.0  0.44359  0.91561  0.79080  1.0000 -0.2098096852
O   O11       1.0  0.08439  0.55641  0.29080  1.0000 -0.2098096852
O   O12       1.0  0.55641  0.08439  0.20920  1.0000 -0.2098096852
O   O13       1.0  0.48022  0.87778  0.57460  1.0000 -0.5140869944
O   O14       1.0  0.87778  0.48022  0.92540  1.0000 -0.5140869944
O   O15       1.0  0.51978  0.12222  0.42540  1.0000 -0.5140869944
O   O16       1.0  0.12222  0.51978  0.07460  1.0000 -0.5140869944
O   O17       1.0  0.54623  0.13017  0.55547  1.0000 -0.5293620257
O   O18       1.0  0.13017  0.54623  0.94453  1.0000 -0.5293620257
O   O19       1.0  0.45377  0.86983  0.44453  1.0000 -0.5293620257
O   O20       1.0  0.86983  0.45377  0.05547  1.0000 -0.5293620257
O   O21       1.0  0.03892  0.14708  0.70129  1.0000 -0.5513784169
O   O22       1.0  0.14708  0.03892  0.79871  1.0000 -0.5513784169
O   O23       1.0  0.96108  0.85292  0.29871  1.0000 -0.5513784169
O   O24       1.0  0.85292  0.96108  0.20129  1.0000 -0.5513784169
O   O25       1.0  0.96270  0.03610  0.58417  1.0000 -0.4570699661
O   O26       1.0  0.03610  0.96270  0.91583  1.0000 -0.4570699661
O   O27       1.0  0.03730  0.96390  0.41583  1.0000 -0.4570699661
O   O28       1.0  0.96390  0.03730  0.08417  1.0000 -0.4570699661
O   O29       1.0  0.03403  0.13117  0.80937  1.0000 -0.5140869944
O   O30       1.0  0.13117  0.03403  0.69063  1.0000 -0.5140869944
O   O31       1.0  0.96597  0.86883  0.19063  1.0000 -0.5140869944
O   O32       1.0  0.86883  0.96597  0.30937  1.0000 -0.5140869944
O   O33       1.0  0.64583  0.05857  0.56333  1.0000 -0.5293620257
O   O34       1.0  0.05857  0.64583  0.93667  1.0000 -0.5293620257
O   O35       1.0  0.35417  0.94143  0.43667  1.0000 -0.5293620257
O   O36       1.0  0.94143  0.35417  0.06333  1.0000 -0.5293620257
O   O37       1.0  0.37784  0.94636  0.56814  1.0000 -0.5293620257
O   O38       1.0  0.94636  0.37784  0.93186  1.0000 -0.5293620257
O   O39       1.0  0.62216  0.05364  0.43186  1.0000 -0.5293620257
O   O40       1.0  0.05364  0.62216  0.06814  1.0000 -0.5293620257
O   O41       1.0  0.64273  0.88347  0.49420  1.0000 -0.2917849152
O   O42       1.0  0.88347  0.64273  0.00580  1.0000 -0.2917849152
O   O43       1.0  0.35727  0.11653  0.50580  1.0000 -0.2917849152
O   O44       1.0  0.11653  0.35727  0.99420  1.0000 -0.2917849152
O   O45       1.0  0.15319  0.58201  0.75810  1.0000 -0.2098096852
O   O46       1.0  0.58201  0.15319  0.74190  1.0000 -0.2098096852
O   O47       1.0  0.84681  0.41799  0.24190  1.0000 -0.2098096852
O   O48       1.0  0.41799  0.84681  0.25810  1.0000 -0.2098096852
