# DDEC6 charges by PACMAN v1.1 (https://github.com/mtap-research/PACMAN-charge/)
data_2011[Zn][uni]3[FSR]1
_chemical_formula_sum              "Zn6 H90 C66 N12 Cl6 O12"
_cell_length_a       17.691
_cell_length_b       17.691
_cell_length_c       10.5617
_cell_angle_alpha    90
_cell_angle_beta     90
_cell_angle_gamma    120

_symmetry_space_group_name_H-M    "P 1"
_symmetry_Int_Tables_number       1

loop_
  _symmetry_equiv_pos_as_xyz
  'x, y, z'

loop_
  _atom_site_type_symbol
  _atom_site_label
  _atom_site_symmetry_multiplicity
  _atom_site_fract_x
  _atom_site_fract_y
  _atom_site_fract_z
  _atom_site_occupancy
  _atom_site_charge
Zn  Zn1       1.0  0.45961  0.53061  0.11764  1.0000 0.711438192
Zn  Zn2       1.0  0.92900  0.45961  0.28431  1.0000 0.711438192
Zn  Zn3       1.0  0.46939  0.92900  0.45097  1.0000 0.711438192
Zn  Zn4       1.0  0.54039  0.46939  0.61764  1.0000 0.711438192
Zn  Zn5       1.0  0.07100  0.54039  0.78431  1.0000 0.711438192
Zn  Zn6       1.0  0.53061  0.07100  0.95097  1.0000 0.711438192
H   H1        1.0  0.53110  0.44990  0.02600  1.0000 0.2512646845
H   H2        1.0  0.08120  0.53110  0.19267  1.0000 0.2512646845
H   H3        1.0  0.55010  0.08120  0.35933  1.0000 0.2512646845
H   H4        1.0  0.46890  0.55010  0.52600  1.0000 0.2512646845
H   H5        1.0  0.91880  0.46890  0.69267  1.0000 0.2512646845
H   H6        1.0  0.44990  0.91880  0.85933  1.0000 0.2512646845
H   H7        1.0  0.53210  0.22430  0.83260  1.0000 0.1179924557
H   H8        1.0  0.30780  0.53210  0.99927  1.0000 0.1179924557
H   H9        1.0  0.77570  0.30780  0.16593  1.0000 0.1179924557
H   H10       1.0  0.46790  0.77570  0.33260  1.0000 0.1179924557
H   H11       1.0  0.69220  0.46790  0.49927  1.0000 0.1179924557
H   H12       1.0  0.22430  0.69220  0.66593  1.0000 0.1179924557
H   H13       1.0  0.42750  0.10480  0.15030  1.0000 0.1179924557
H   H14       1.0  0.32270  0.42750  0.31697  1.0000 0.1179924557
H   H15       1.0  0.89520  0.32270  0.48363  1.0000 0.1179924557
H   H16       1.0  0.57250  0.89520  0.65030  1.0000 0.1179924557
H   H17       1.0  0.67730  0.57250  0.81697  1.0000 0.1179924557
H   H18       1.0  0.10480  0.67730  0.98363  1.0000 0.1179924557
H   H19       1.0  0.38550  0.20410  0.20050  1.0000 0.1462398125
H   H20       1.0  0.18140  0.38550  0.36717  1.0000 0.1462398125
H   H21       1.0  0.79590  0.18140  0.53383  1.0000 0.1462398125
H   H22       1.0  0.61450  0.79590  0.70050  1.0000 0.1462398125
H   H23       1.0  0.81860  0.61450  0.86717  1.0000 0.1462398125
H   H24       1.0  0.20410  0.81860  0.03383  1.0000 0.1462398125
H   H25       1.0  0.49280  0.32730  0.87390  1.0000 0.1462398125
H   H26       1.0  0.16550  0.49280  0.04057  1.0000 0.1462398125
H   H27       1.0  0.67270  0.16550  0.20723  1.0000 0.1462398125
H   H28       1.0  0.50720  0.67270  0.37390  1.0000 0.1462398125
H   H29       1.0  0.83450  0.50720  0.54057  1.0000 0.1462398125
H   H30       1.0  0.32730  0.83450  0.70723  1.0000 0.1462398125
H   H31       1.0  0.38290  0.35640  0.00920  1.0000 0.1391542011
H   H32       1.0  0.02650  0.38290  0.17587  1.0000 0.1391542011
H   H33       1.0  0.64360  0.02650  0.34253  1.0000 0.1391542011
H   H34       1.0  0.61710  0.64360  0.50920  1.0000 0.1391542011
H   H35       1.0  0.97350  0.61710  0.67587  1.0000 0.1391542011
H   H36       1.0  0.35640  0.97350  0.84253  1.0000 0.1391542011
H   H37       1.0  0.38160  0.33510  0.15340  1.0000 0.1179924557
H   H38       1.0  0.04650  0.38160  0.32007  1.0000 0.1179924557
H   H39       1.0  0.66490  0.04650  0.48673  1.0000 0.1179924557
H   H40       1.0  0.61840  0.66490  0.65340  1.0000 0.1179924557
H   H41       1.0  0.95350  0.61840  0.82007  1.0000 0.1179924557
H   H42       1.0  0.33510  0.95350  0.98673  1.0000 0.1179924557
H   H43       1.0  0.52940  0.37500  0.22690  1.0000 0.1107378608
H   H44       1.0  0.15440  0.52940  0.39357  1.0000 0.1107378608
H   H45       1.0  0.62500  0.15440  0.56023  1.0000 0.1107378608
H   H46       1.0  0.47060  0.62500  0.72690  1.0000 0.1107378608
H   H47       1.0  0.84560  0.47060  0.89357  1.0000 0.1107378608
H   H48       1.0  0.37500  0.84560  0.06023  1.0000 0.1107378608
H   H49       1.0  0.67560  0.48100  0.26020  1.0000 0.0878759256
H   H50       1.0  0.19460  0.67560  0.42687  1.0000 0.0878759256
H   H51       1.0  0.51900  0.19460  0.59353  1.0000 0.0878759256
H   H52       1.0  0.32440  0.51900  0.76020  1.0000 0.0878759256
H   H53       1.0  0.80540  0.32440  0.92687  1.0000 0.0878759256
H   H54       1.0  0.48100  0.80540  0.09353  1.0000 0.0878759256
H   H55       1.0  0.74580  0.59690  0.11550  1.0000 0.131445401
H   H56       1.0  0.14890  0.74580  0.28217  1.0000 0.131445401
H   H57       1.0  0.40310  0.14890  0.44883  1.0000 0.131445401
H   H58       1.0  0.25420  0.40310  0.61550  1.0000 0.131445401
H   H59       1.0  0.85110  0.25420  0.78217  1.0000 0.131445401
H   H60       1.0  0.59690  0.85110  0.94883  1.0000 0.131445401
H   H61       1.0  0.68240  0.60780  0.20760  1.0000 0.131445401
H   H62       1.0  0.07460  0.68240  0.37427  1.0000 0.131445401
H   H63       1.0  0.39220  0.07460  0.54093  1.0000 0.131445401
H   H64       1.0  0.31760  0.39220  0.70760  1.0000 0.131445401
H   H65       1.0  0.92540  0.31760  0.87427  1.0000 0.131445401
H   H66       1.0  0.60780  0.92540  0.04093  1.0000 0.131445401
H   H67       1.0  0.65380  0.57720  0.06770  1.0000 0.1107378608
H   H68       1.0  0.07660  0.65380  0.23437  1.0000 0.1107378608
H   H69       1.0  0.42280  0.07660  0.40103  1.0000 0.1107378608
H   H70       1.0  0.34620  0.42280  0.56770  1.0000 0.1107378608
H   H71       1.0  0.92340  0.34620  0.73437  1.0000 0.1107378608
H   H72       1.0  0.57720  0.92340  0.90103  1.0000 0.1107378608
H   H73       1.0  0.64760  0.43100  0.00280  1.0000 0.1179924557
H   H74       1.0  0.21660  0.64760  0.16947  1.0000 0.1179924557
H   H75       1.0  0.56900  0.21660  0.33613  1.0000 0.1179924557
H   H76       1.0  0.35240  0.56900  0.50280  1.0000 0.1179924557
H   H77       1.0  0.78340  0.35240  0.66947  1.0000 0.1179924557
H   H78       1.0  0.43100  0.78340  0.83613  1.0000 0.1179924557
H   H79       1.0  0.64610  0.37020  0.11210  1.0000 0.131445401
H   H80       1.0  0.27590  0.64610  0.27877  1.0000 0.131445401
H   H81       1.0  0.62980  0.27590  0.44543  1.0000 0.131445401
H   H82       1.0  0.35390  0.62980  0.61210  1.0000 0.131445401
H   H83       1.0  0.72410  0.35390  0.77877  1.0000 0.131445401
H   H84       1.0  0.37020  0.72410  0.94543  1.0000 0.131445401
H   H85       1.0  0.73300  0.45610  0.07900  1.0000 0.1391542011
H   H86       1.0  0.27690  0.73300  0.24567  1.0000 0.1391542011
H   H87       1.0  0.54390  0.27690  0.41233  1.0000 0.1391542011
H   H88       1.0  0.26700  0.54390  0.57900  1.0000 0.1391542011
H   H89       1.0  0.72310  0.26700  0.74567  1.0000 0.1391542011
H   H90       1.0  0.45610  0.72310  0.91233  1.0000 0.1391542011
C   C1        1.0  0.50290  0.22070  0.90750  1.0000 0.082660482
C   C2        1.0  0.28220  0.50290  0.07417  1.0000 0.082660482
C   C3        1.0  0.77930  0.28220  0.24083  1.0000 0.082660482
C   C4        1.0  0.49710  0.77930  0.40750  1.0000 0.082660482
C   C5        1.0  0.71780  0.49710  0.57417  1.0000 0.082660482
C   C6        1.0  0.22070  0.71780  0.74083  1.0000 0.082660482
C   C7        1.0  0.44130  0.15060  0.09460  1.0000 0.0672746605
C   C8        1.0  0.29070  0.44130  0.26127  1.0000 0.0672746605
C   C9        1.0  0.84940  0.29070  0.42793  1.0000 0.0672746605
C   C10       1.0  0.55870  0.84940  0.59460  1.0000 0.0672746605
C   C11       1.0  0.70930  0.55870  0.76127  1.0000 0.0672746605
C   C12       1.0  0.15060  0.70930  0.92793  1.0000 0.0672746605
C   C13       1.0  0.41580  0.21010  0.12570  1.0000 -0.199964098
C   C14       1.0  0.20570  0.41580  0.29237  1.0000 -0.199964098
C   C15       1.0  0.78990  0.20570  0.45903  1.0000 -0.199964098
C   C16       1.0  0.58420  0.78990  0.62570  1.0000 -0.199964098
C   C17       1.0  0.79430  0.58420  0.79237  1.0000 -0.199964098
C   C18       1.0  0.21010  0.79430  0.95903  1.0000 -0.199964098
C   C19       1.0  0.43560  0.27910  0.04460  1.0000 0.1391542011
C   C20       1.0  0.15650  0.43560  0.21127  1.0000 0.1462398125
C   C21       1.0  0.72090  0.15650  0.37793  1.0000 0.1462398125
C   C22       1.0  0.56440  0.72090  0.54460  1.0000 0.1391542011
C   C23       1.0  0.84350  0.56440  0.71127  1.0000 0.1391542011
C   C24       1.0  0.27910  0.84350  0.87793  1.0000 0.1391542011
C   C25       1.0  0.47950  0.28290  0.93200  1.0000 -0.1757861345
C   C26       1.0  0.19660  0.47950  0.09867  1.0000 -0.1757861345
C   C27       1.0  0.71710  0.19660  0.26533  1.0000 -0.1757861345
C   C28       1.0  0.52050  0.71710  0.43200  1.0000 -0.1757861345
C   C29       1.0  0.80340  0.52050  0.59867  1.0000 -0.1757861345
C   C30       1.0  0.28290  0.80340  0.76533  1.0000 -0.1757861345
C   C31       1.0  0.41670  0.35090  0.07700  1.0000 -0.1567630836
C   C32       1.0  0.06580  0.41670  0.24367  1.0000 -0.1567630836
C   C33       1.0  0.64910  0.06580  0.41033  1.0000 -0.1567630836
C   C34       1.0  0.58330  0.64910  0.57700  1.0000 -0.1567630836
C   C35       1.0  0.93420  0.58330  0.74367  1.0000 -0.1567630836
C   C36       1.0  0.35090  0.93420  0.91033  1.0000 -0.1567630836
C   C37       1.0  0.53190  0.47780  0.32310  1.0000 0.5681721798
C   C38       1.0  0.05410  0.53190  0.48977  1.0000 0.5681721798
C   C39       1.0  0.52220  0.05410  0.65643  1.0000 0.5681721798
C   C40       1.0  0.46810  0.52220  0.82310  1.0000 0.5681721798
C   C41       1.0  0.94590  0.46810  0.98977  1.0000 0.5681721798
C   C42       1.0  0.47780  0.94590  0.15643  1.0000 0.5681721798
C   C43       1.0  0.54949  0.43610  0.20620  1.0000 -0.0879402353
C   C44       1.0  0.11339  0.54949  0.37287  1.0000 -0.0879402353
C   C45       1.0  0.56390  0.11339  0.53953  1.0000 -0.0879402353
C   C46       1.0  0.45051  0.56390  0.70620  1.0000 -0.0879402353
C   C47       1.0  0.88661  0.45051  0.87287  1.0000 -0.0879402353
C   C48       1.0  0.43610  0.88661  0.03953  1.0000 -0.0879402353
C   C49       1.0  0.64740  0.48040  0.18000  1.0000 0.1038392988
C   C50       1.0  0.16700  0.64740  0.34667  1.0000 0.1038392988
C   C51       1.0  0.51960  0.16700  0.51333  1.0000 0.1038392988
C   C52       1.0  0.35260  0.51960  0.68000  1.0000 0.1038392988
C   C53       1.0  0.83300  0.35260  0.84667  1.0000 0.1038392988
C   C54       1.0  0.48040  0.83300  0.01333  1.0000 0.1038392988
C   C55       1.0  0.68580  0.57410  0.13900  1.0000 -0.4201845496
C   C56       1.0  0.11170  0.68580  0.30567  1.0000 -0.4201845496
C   C57       1.0  0.42590  0.11170  0.47233  1.0000 -0.4201845496
C   C58       1.0  0.31420  0.42590  0.63900  1.0000 -0.4201845496
C   C59       1.0  0.88830  0.31420  0.80567  1.0000 -0.4201845496
C   C60       1.0  0.57410  0.88830  0.97233  1.0000 -0.4201845496
C   C61       1.0  0.67070  0.42970  0.08450  1.0000 -0.4415034621
C   C62       1.0  0.24100  0.67070  0.25117  1.0000 -0.4415034621
C   C63       1.0  0.57030  0.24100  0.41783  1.0000 -0.4415034621
C   C64       1.0  0.32930  0.57030  0.58450  1.0000 -0.4415034621
C   C65       1.0  0.75900  0.32930  0.75117  1.0000 -0.4415034621
C   C66       1.0  0.42970  0.75900  0.91783  1.0000 -0.4415034621
N   N1        1.0  0.48480  0.15490  0.98910  1.0000 -0.2306330272
N   N2        1.0  0.32990  0.48480  0.15577  1.0000 -0.2306330272
N   N3        1.0  0.84510  0.32990  0.32243  1.0000 -0.2306330272
N   N4        1.0  0.51520  0.84510  0.48910  1.0000 -0.2306330272
N   N5        1.0  0.67010  0.51520  0.65577  1.0000 -0.2306330272
N   N6        1.0  0.15490  0.67010  0.82243  1.0000 -0.2306330272
N   N7        1.0  0.49753  0.43686  0.09680  1.0000 -0.3148289987
N   N8        1.0  0.06067  0.49753  0.26347  1.0000 -0.3148289987
N   N9        1.0  0.56314  0.06067  0.43013  1.0000 -0.3148289987
N   N10       1.0  0.50247  0.56314  0.59680  1.0000 -0.3148289987
N   N11       1.0  0.93933  0.50247  0.76347  1.0000 -0.3148289987
N   N12       1.0  0.43686  0.93933  0.93013  1.0000 -0.3148289987
Cl  Cl1       1.0  0.54491  0.67598  0.11882  1.0000 -0.5646981844
Cl  Cl2       1.0  0.86893  0.54491  0.28549  1.0000 -0.5646981844
Cl  Cl3       1.0  0.32402  0.86893  0.45215  1.0000 -0.5655495295
Cl  Cl4       1.0  0.45509  0.32402  0.61882  1.0000 -0.5646981844
Cl  Cl5       1.0  0.13107  0.45509  0.78549  1.0000 -0.5646981844
Cl  Cl6       1.0  0.67598  0.13107  0.95215  1.0000 -0.5646981844
O   O1        1.0  0.48509  0.51151  0.31200  1.0000 -0.5400838026
O   O2        1.0  0.97358  0.48509  0.47867  1.0000 -0.5400838026
O   O3        1.0  0.48849  0.97358  0.64533  1.0000 -0.5400838026
O   O4        1.0  0.51491  0.48849  0.81200  1.0000 -0.5400838026
O   O5        1.0  0.02642  0.51491  0.97867  1.0000 -0.5400838026
O   O6        1.0  0.51151  0.02642  0.14533  1.0000 -0.5400838026
O   O7        1.0  0.56639  0.47247  0.42350  1.0000 -0.5400838026
O   O8        1.0  0.09392  0.56639  0.59017  1.0000 -0.5400838026
O   O9        1.0  0.52753  0.09392  0.75683  1.0000 -0.5400838026
O   O10       1.0  0.43361  0.52753  0.92350  1.0000 -0.5400838026
O   O11       1.0  0.90608  0.43361  0.09017  1.0000 -0.5400838026
O   O12       1.0  0.47247  0.90608  0.25683  1.0000 -0.5400838026
