# DDEC6 charges by PACMAN v1.1 (https://github.com/mtap-research/PACMAN-charge/)
data_2011[Co][acs]3[FSR]1
_chemical_formula_sum              "Co2 H6 C6 O12"
_cell_length_a       7.3058
_cell_length_b       7.3058
_cell_length_c       8.1897
_cell_angle_alpha    90
_cell_angle_beta     90
_cell_angle_gamma    120

_symmetry_space_group_name_H-M    "P 1"
_symmetry_Int_Tables_number       1

loop_
  _symmetry_equiv_pos_as_xyz
  'x, y, z'

loop_
  _atom_site_type_symbol
  _atom_site_label
  _atom_site_symmetry_multiplicity
  _atom_site_fract_x
  _atom_site_fract_y
  _atom_site_fract_z
  _atom_site_occupancy
  _atom_site_charge
Co  Co1       1.0  0.66667  0.33333  0.75000  1.0000 1.0386565848
Co  Co2       1.0  0.33333  0.66667  0.25000  1.0000 1.0386565848
H   H1        1.0  0.00000  0.59200  0.00000  1.0000 0.0532375827
H   H2        1.0  0.40800  0.40800  0.00000  1.0000 0.0532375827
H   H3        1.0  0.59200  0.00000  0.00000  1.0000 0.0532375827
H   H4        1.0  0.00000  0.40800  0.50000  1.0000 0.0532375827
H   H5        1.0  0.59200  0.59200  0.50000  1.0000 0.0532375827
H   H6        1.0  0.40800  0.00000  0.50000  1.0000 0.0532375827
C   C1        1.0  0.00000  0.43900  0.00000  1.0000 0.5210787777
C   C2        1.0  0.56100  0.56100  0.00000  1.0000 0.5210787777
C   C3        1.0  0.43900  0.00000  0.00000  1.0000 0.5210787777
C   C4        1.0  0.00000  0.56100  0.50000  1.0000 0.5210787777
C   C5        1.0  0.43900  0.43900  0.50000  1.0000 0.5210787777
C   C6        1.0  0.56100  0.00000  0.50000  1.0000 0.5210787777
O   O1        1.0  0.89045  0.30738  0.89444  1.0000 -0.460267611
O   O2        1.0  0.69262  0.58307  0.89444  1.0000 -0.460267611
O   O3        1.0  0.41693  0.10955  0.89444  1.0000 -0.460267611
O   O4        1.0  0.10955  0.69262  0.39444  1.0000 -0.460267611
O   O5        1.0  0.30738  0.41693  0.39444  1.0000 -0.460267611
O   O6        1.0  0.58307  0.89045  0.39444  1.0000 -0.460267611
O   O7        1.0  0.30738  0.89045  0.10556  1.0000 -0.460267611
O   O8        1.0  0.58307  0.69262  0.10556  1.0000 -0.460267611
O   O9        1.0  0.10955  0.41693  0.10556  1.0000 -0.460267611
O   O10       1.0  0.69262  0.10955  0.60556  1.0000 -0.460267611
O   O11       1.0  0.41693  0.30738  0.60556  1.0000 -0.460267611
O   O12       1.0  0.89045  0.58307  0.60556  1.0000 -0.460267611
