# DDEC6 charges by PACMAN v1.1 (https://github.com/mtap-research/PACMAN-charge/)
data_2011[Tb][cds]3[FSR]1
_chemical_formula_sum              "Tb4 H88 C96 N8 O32"
_cell_length_a       10.0389
_cell_length_b       17.7423
_cell_length_c       19.7457
_cell_angle_alpha    90
_cell_angle_beta     90
_cell_angle_gamma    90

_symmetry_space_group_name_H-M    "P 1"
_symmetry_Int_Tables_number       1

loop_
  _symmetry_equiv_pos_as_xyz
  'x, y, z'

loop_
  _atom_site_type_symbol
  _atom_site_label
  _atom_site_symmetry_multiplicity
  _atom_site_fract_x
  _atom_site_fract_y
  _atom_site_fract_z
  _atom_site_occupancy
  _atom_site_charge
Tb  Tb1       1.0  0.96862  0.25000  0.75000  1.0000 2.0854085171
Tb  Tb2       1.0  0.53138  0.75000  0.25000  1.0000 2.0854085171
Tb  Tb3       1.0  0.03138  0.75000  0.25000  1.0000 2.0854085171
Tb  Tb4       1.0  0.46862  0.25000  0.75000  1.0000 2.0854085171
H   H1        1.0  0.87580  0.13680  0.54130  1.0000 0.1124515596
H   H2        1.0  0.87580  0.36320  0.95870  1.0000 0.1124515596
H   H3        1.0  0.62420  0.86320  0.04130  1.0000 0.1124515596
H   H4        1.0  0.62420  0.63680  0.45870  1.0000 0.1124515596
H   H5        1.0  0.12420  0.86320  0.45870  1.0000 0.1124515596
H   H6        1.0  0.12420  0.63680  0.04130  1.0000 0.1124515596
H   H7        1.0  0.37580  0.13680  0.95870  1.0000 0.1124515596
H   H8        1.0  0.37580  0.36320  0.54130  1.0000 0.1124515596
H   H9        1.0  0.82920  0.11460  0.42810  1.0000 0.1124515596
H   H10       1.0  0.82920  0.38540  0.07190  1.0000 0.1124515596
H   H11       1.0  0.67080  0.88540  0.92810  1.0000 0.1124515596
H   H12       1.0  0.67080  0.61460  0.57190  1.0000 0.1124515596
H   H13       1.0  0.17080  0.88540  0.57190  1.0000 0.1124515596
H   H14       1.0  0.17080  0.61460  0.92810  1.0000 0.1124515596
H   H15       1.0  0.32920  0.11460  0.07190  1.0000 0.1124515596
H   H16       1.0  0.32920  0.38540  0.42810  1.0000 0.1124515596
H   H17       1.0  0.52780  0.24610  0.55840  1.0000 0.1124515596
H   H18       1.0  0.52780  0.25390  0.94160  1.0000 0.1124515596
H   H19       1.0  0.97220  0.75390  0.05840  1.0000 0.1124515596
H   H20       1.0  0.97220  0.74610  0.44160  1.0000 0.1124515596
H   H21       1.0  0.47220  0.75390  0.44160  1.0000 0.1124515596
H   H22       1.0  0.47220  0.74610  0.05840  1.0000 0.1124515596
H   H23       1.0  0.02780  0.24610  0.94160  1.0000 0.1124515596
H   H24       1.0  0.02780  0.25390  0.55840  1.0000 0.1124515596
H   H25       1.0  0.48680  0.22590  0.44490  1.0000 0.1124515596
H   H26       1.0  0.48680  0.27410  0.05510  1.0000 0.1124515596
H   H27       1.0  0.01320  0.77410  0.94490  1.0000 0.1124515596
H   H28       1.0  0.01320  0.72590  0.55510  1.0000 0.1124515596
H   H29       1.0  0.51320  0.77410  0.55510  1.0000 0.1124515596
H   H30       1.0  0.51320  0.72590  0.94490  1.0000 0.1124515596
H   H31       1.0  0.98680  0.22590  0.05510  1.0000 0.1124515596
H   H32       1.0  0.98680  0.27410  0.44490  1.0000 0.1124515596
H   H33       1.0  0.63630  0.15970  0.38030  1.0000 0.1124515596
H   H34       1.0  0.63630  0.34030  0.11970  1.0000 0.1124515596
H   H35       1.0  0.86370  0.84030  0.88030  1.0000 0.1124515596
H   H36       1.0  0.86370  0.65970  0.61970  1.0000 0.1124515596
H   H37       1.0  0.36370  0.84030  0.61970  1.0000 0.1124515596
H   H38       1.0  0.36370  0.65970  0.88030  1.0000 0.1124515596
H   H39       1.0  0.13630  0.15970  0.11970  1.0000 0.1124515596
H   H40       1.0  0.13630  0.34030  0.38030  1.0000 0.1124515596
H   H41       1.0  0.05160  0.43770  0.68550  1.0000 0.1299168402
H   H42       1.0  0.05160  0.06230  0.81450  1.0000 0.1299168402
H   H43       1.0  0.44840  0.56230  0.18550  1.0000 0.1299168402
H   H44       1.0  0.44840  0.93770  0.31450  1.0000 0.1299168402
H   H45       1.0  0.94840  0.56230  0.31450  1.0000 0.1299168402
H   H46       1.0  0.94840  0.93770  0.18550  1.0000 0.1299168402
H   H47       1.0  0.55160  0.43770  0.81450  1.0000 0.1299168402
H   H48       1.0  0.55160  0.06230  0.68550  1.0000 0.1299168402
H   H49       1.0  0.80570  0.43840  0.49060  1.0000 0.1299168402
H   H50       1.0  0.80570  0.06160  0.00940  1.0000 0.1299168402
H   H51       1.0  0.69430  0.56160  0.99060  1.0000 0.1299168402
H   H52       1.0  0.69430  0.93840  0.50940  1.0000 0.1299168402
H   H53       1.0  0.19430  0.56160  0.50940  1.0000 0.1299168402
H   H54       1.0  0.19430  0.93840  0.99060  1.0000 0.1299168402
H   H55       1.0  0.30570  0.43840  0.00940  1.0000 0.1299168402
H   H56       1.0  0.30570  0.06160  0.49060  1.0000 0.1299168402
H   H57       1.0  0.73740  0.37050  0.58270  1.0000 0.1233839178
H   H58       1.0  0.73740  0.12950  0.91730  1.0000 0.1233839178
H   H59       1.0  0.76260  0.62950  0.08270  1.0000 0.1233839178
H   H60       1.0  0.76260  0.87050  0.41730  1.0000 0.1233839178
H   H61       1.0  0.26260  0.62950  0.41730  1.0000 0.1233839178
H   H62       1.0  0.26260  0.87050  0.08270  1.0000 0.1233839178
H   H63       1.0  0.23740  0.37050  0.91730  1.0000 0.1233839178
H   H64       1.0  0.23740  0.12950  0.58270  1.0000 0.1233839178
H   H65       1.0  0.12600  0.50460  0.59330  1.0000 0.1299168402
H   H66       1.0  0.12600  0.99540  0.90670  1.0000 0.1299168402
H   H67       1.0  0.37400  0.49540  0.09330  1.0000 0.1299168402
H   H68       1.0  0.37400  0.00460  0.40670  1.0000 0.1299168402
H   H69       1.0  0.87400  0.49540  0.40670  1.0000 0.1299168402
H   H70       1.0  0.87400  0.00460  0.09330  1.0000 0.1299168402
H   H71       1.0  0.62600  0.50460  0.90670  1.0000 0.1299168402
H   H72       1.0  0.62600  0.99540  0.59330  1.0000 0.1299168402
H   H73       1.0  0.15670  0.36300  0.78930  1.0000 0.3018399822
H   H74       1.0  0.15670  0.13700  0.71070  1.0000 0.3018399822
H   H75       1.0  0.34330  0.63700  0.28930  1.0000 0.3018399822
H   H76       1.0  0.34330  0.86300  0.21070  1.0000 0.3018399822
H   H77       1.0  0.84330  0.63700  0.21070  1.0000 0.3018399822
H   H78       1.0  0.84330  0.86300  0.28930  1.0000 0.3018399822
H   H79       1.0  0.65670  0.36300  0.71070  1.0000 0.3018399822
H   H80       1.0  0.65670  0.13700  0.78930  1.0000 0.3018399822
H   H81       1.0  0.05300  0.39540  0.81380  1.0000 0.2924710446
H   H82       1.0  0.05300  0.10460  0.68620  1.0000 0.2924710446
H   H83       1.0  0.44700  0.60460  0.31380  1.0000 0.2924710446
H   H84       1.0  0.44700  0.89540  0.18620  1.0000 0.2924710446
H   H85       1.0  0.94700  0.60460  0.18620  1.0000 0.2924710446
H   H86       1.0  0.94700  0.89540  0.31380  1.0000 0.2924710446
H   H87       1.0  0.55300  0.39540  0.68620  1.0000 0.2924710446
H   H88       1.0  0.55300  0.10460  0.81380  1.0000 0.2924710446
C   C1        1.0  0.72800  0.20450  0.63659  1.0000 0.6322683179
C   C2        1.0  0.72800  0.29550  0.86341  1.0000 0.6322683179
C   C3        1.0  0.77200  0.79550  0.13659  1.0000 0.6322683179
C   C4        1.0  0.77200  0.70450  0.36341  1.0000 0.6322683179
C   C5        1.0  0.27200  0.79550  0.36341  1.0000 0.6322683179
C   C6        1.0  0.27200  0.70450  0.13659  1.0000 0.6322683179
C   C7        1.0  0.22800  0.20450  0.86341  1.0000 0.6322683179
C   C8        1.0  0.22800  0.29550  0.63659  1.0000 0.6322683179
C   C9        1.0  0.70480  0.19288  0.56196  1.0000 -0.0374102191
C   C10       1.0  0.70480  0.30712  0.93804  1.0000 -0.0374102191
C   C11       1.0  0.79520  0.80712  0.06196  1.0000 -0.0374102191
C   C12       1.0  0.79520  0.69288  0.43804  1.0000 -0.0374102191
C   C13       1.0  0.29520  0.80712  0.43804  1.0000 -0.0374102191
C   C14       1.0  0.29520  0.69288  0.06196  1.0000 -0.0374102191
C   C15       1.0  0.20480  0.19288  0.93804  1.0000 -0.0374102191
C   C16       1.0  0.20480  0.30712  0.56196  1.0000 -0.0374102191
C   C17       1.0  0.79660  0.15409  0.52241  1.0000 -0.12132579
C   C18       1.0  0.79660  0.34591  0.97759  1.0000 -0.12132579
C   C19       1.0  0.70340  0.84591  0.02241  1.0000 -0.12132579
C   C20       1.0  0.70340  0.65409  0.47759  1.0000 -0.12132579
C   C21       1.0  0.20340  0.84591  0.47759  1.0000 -0.12132579
C   C22       1.0  0.20340  0.65409  0.02241  1.0000 -0.12132579
C   C23       1.0  0.29660  0.15409  0.97759  1.0000 -0.12132579
C   C24       1.0  0.29660  0.34591  0.52241  1.0000 -0.12132579
C   C25       1.0  0.76900  0.14145  0.45453  1.0000 -0.12132579
C   C26       1.0  0.76900  0.35855  0.04547  1.0000 -0.12132579
C   C27       1.0  0.73100  0.85855  0.95453  1.0000 -0.12132579
C   C28       1.0  0.73100  0.64145  0.54547  1.0000 -0.12132579
C   C29       1.0  0.23100  0.85855  0.54547  1.0000 -0.12132579
C   C30       1.0  0.23100  0.64145  0.95453  1.0000 -0.12132579
C   C31       1.0  0.26900  0.14145  0.04547  1.0000 -0.12132579
C   C32       1.0  0.26900  0.35855  0.45453  1.0000 -0.12132579
C   C33       1.0  0.58920  0.21967  0.53235  1.0000 -0.12132579
C   C34       1.0  0.58920  0.28033  0.96765  1.0000 -0.12132579
C   C35       1.0  0.91080  0.78033  0.03235  1.0000 -0.12132579
C   C36       1.0  0.91080  0.71967  0.46765  1.0000 -0.12132579
C   C37       1.0  0.41080  0.78033  0.46765  1.0000 -0.12132579
C   C38       1.0  0.41080  0.71967  0.03235  1.0000 -0.12132579
C   C39       1.0  0.08920  0.21967  0.96765  1.0000 -0.12132579
C   C40       1.0  0.08920  0.28033  0.53235  1.0000 -0.12132579
C   C41       1.0  0.56440  0.20743  0.46442  1.0000 -0.1025984409
C   C42       1.0  0.56440  0.29257  0.03558  1.0000 -0.1025984409
C   C43       1.0  0.93560  0.79257  0.96442  1.0000 -0.1025984409
C   C44       1.0  0.93560  0.70743  0.53558  1.0000 -0.1025984409
C   C45       1.0  0.43560  0.79257  0.53558  1.0000 -0.1025984409
C   C46       1.0  0.43560  0.70743  0.96442  1.0000 -0.1025984409
C   C47       1.0  0.06440  0.20743  0.03558  1.0000 -0.1025984409
C   C48       1.0  0.06440  0.29257  0.46442  1.0000 -0.1025984409
C   C49       1.0  0.65370  0.16824  0.42593  1.0000 -0.1025984409
C   C50       1.0  0.65370  0.33176  0.07407  1.0000 -0.1025984409
C   C51       1.0  0.84630  0.83176  0.92593  1.0000 -0.1025984409
C   C52       1.0  0.84630  0.66824  0.57407  1.0000 -0.1025984409
C   C53       1.0  0.34630  0.83176  0.57407  1.0000 -0.1025984409
C   C54       1.0  0.34630  0.66824  0.92593  1.0000 -0.1025984409
C   C55       1.0  0.15370  0.16824  0.07407  1.0000 -0.1025984409
C   C56       1.0  0.15370  0.33176  0.42593  1.0000 -0.1025984409
C   C57       1.0  0.00330  0.43682  0.64528  1.0000 -0.0374102191
C   C58       1.0  0.00330  0.06318  0.85472  1.0000 -0.0374102191
C   C59       1.0  0.49670  0.56318  0.14528  1.0000 -0.0374102191
C   C60       1.0  0.49670  0.93682  0.35472  1.0000 -0.0374102191
C   C61       1.0  0.99670  0.56318  0.35472  1.0000 -0.0374102191
C   C62       1.0  0.99670  0.93682  0.14528  1.0000 -0.0374102191
C   C63       1.0  0.50330  0.43682  0.85472  1.0000 -0.0374102191
C   C64       1.0  0.50330  0.06318  0.64528  1.0000 -0.0374102191
C   C65       1.0  0.85820  0.43802  0.52938  1.0000 -0.186924885
C   C66       1.0  0.85820  0.06198  0.97062  1.0000 -0.186924885
C   C67       1.0  0.64180  0.56198  0.02938  1.0000 -0.186924885
C   C68       1.0  0.64180  0.93802  0.47062  1.0000 -0.186924885
C   C69       1.0  0.14180  0.56198  0.47062  1.0000 -0.186924885
C   C70       1.0  0.14180  0.93802  0.02938  1.0000 -0.186924885
C   C71       1.0  0.35820  0.43802  0.97062  1.0000 -0.186924885
C   C72       1.0  0.35820  0.06198  0.52938  1.0000 -0.186924885
C   C73       1.0  0.97580  0.47864  0.52990  1.0000 0.089390614
C   C74       1.0  0.97580  0.02136  0.97010  1.0000 0.089390614
C   C75       1.0  0.52420  0.52136  0.02990  1.0000 0.089390614
C   C76       1.0  0.52420  0.97864  0.47010  1.0000 0.089390614
C   C77       1.0  0.02420  0.52136  0.47010  1.0000 0.089390614
C   C78       1.0  0.02420  0.97864  0.02990  1.0000 0.089390614
C   C79       1.0  0.47580  0.47864  0.97010  1.0000 0.089390614
C   C80       1.0  0.47580  0.02136  0.52990  1.0000 0.089390614
C   C81       1.0  0.81700  0.39727  0.58452  1.0000 -0.0639493089
C   C82       1.0  0.81700  0.10273  0.91548  1.0000 -0.0639493089
C   C83       1.0  0.68300  0.60273  0.08452  1.0000 -0.0639493089
C   C84       1.0  0.68300  0.89727  0.41548  1.0000 -0.0639493089
C   C85       1.0  0.18300  0.60273  0.41548  1.0000 -0.0639493089
C   C86       1.0  0.18300  0.89727  0.08452  1.0000 -0.0639493089
C   C87       1.0  0.31700  0.39727  0.91548  1.0000 -0.0639493089
C   C88       1.0  0.31700  0.10273  0.58452  1.0000 -0.0639493089
C   C89       1.0  0.04710  0.47745  0.59010  1.0000 -0.186924885
C   C90       1.0  0.04710  0.02255  0.90990  1.0000 -0.186924885
C   C91       1.0  0.45290  0.52255  0.09010  1.0000 -0.186924885
C   C92       1.0  0.45290  0.97745  0.40990  1.0000 -0.186924885
C   C93       1.0  0.95290  0.52255  0.40990  1.0000 -0.186924885
C   C94       1.0  0.95290  0.97745  0.09010  1.0000 -0.186924885
C   C95       1.0  0.54710  0.47745  0.90990  1.0000 -0.186924885
C   C96       1.0  0.54710  0.02255  0.59010  1.0000 -0.186924885
N   N1        1.0  0.89115  0.39598  0.64111  1.0000 0.3124985704
N   N2        1.0  0.89115  0.10402  0.85889  1.0000 0.3124985704
N   N3        1.0  0.60885  0.60402  0.14111  1.0000 0.3124985704
N   N4        1.0  0.60885  0.89598  0.35889  1.0000 0.3124985704
N   N5        1.0  0.10885  0.60402  0.35889  1.0000 0.3124985704
N   N6        1.0  0.10885  0.89598  0.14111  1.0000 0.3124985704
N   N7        1.0  0.39115  0.39598  0.85889  1.0000 0.3124985704
N   N8        1.0  0.39115  0.10402  0.64111  1.0000 0.3124985704
O   O1        1.0  0.62685  0.21973  0.67141  1.0000 -0.6800073898
O   O2        1.0  0.62685  0.28027  0.82859  1.0000 -0.6800073898
O   O3        1.0  0.87315  0.78027  0.17141  1.0000 -0.6800073898
O   O4        1.0  0.87315  0.71973  0.32859  1.0000 -0.6800073898
O   O5        1.0  0.37315  0.78027  0.32859  1.0000 -0.6800073898
O   O6        1.0  0.37315  0.71973  0.17141  1.0000 -0.6800073898
O   O7        1.0  0.12685  0.21973  0.82859  1.0000 -0.6800073898
O   O8        1.0  0.12685  0.28027  0.67141  1.0000 -0.6800073898
O   O9        1.0  0.84359  0.19829  0.65990  1.0000 -0.669485203
O   O10       1.0  0.84359  0.30171  0.84010  1.0000 -0.669485203
O   O11       1.0  0.65641  0.80171  0.15990  1.0000 -0.669485203
O   O12       1.0  0.65641  0.69829  0.34010  1.0000 -0.669485203
O   O13       1.0  0.15641  0.80171  0.34010  1.0000 -0.669485203
O   O14       1.0  0.15641  0.69829  0.15990  1.0000 -0.669485203
O   O15       1.0  0.34359  0.19829  0.84010  1.0000 -0.669485203
O   O16       1.0  0.34359  0.30171  0.65990  1.0000 -0.669485203
O   O17       1.0  0.85085  0.35540  0.69477  1.0000 -0.5986966706
O   O18       1.0  0.85085  0.14460  0.80523  1.0000 -0.5986966706
O   O19       1.0  0.64915  0.64460  0.19477  1.0000 -0.5986966706
O   O20       1.0  0.64915  0.85540  0.30523  1.0000 -0.5986966706
O   O21       1.0  0.14915  0.64460  0.30523  1.0000 -0.5986966706
O   O22       1.0  0.14915  0.85540  0.19477  1.0000 -0.5986966706
O   O23       1.0  0.35085  0.35540  0.80523  1.0000 -0.5986966706
O   O24       1.0  0.35085  0.14460  0.69477  1.0000 -0.5986966706
O   O25       1.0  0.07850  0.36614  0.78461  1.0000 -0.7165819919
O   O26       1.0  0.07850  0.13386  0.71539  1.0000 -0.7165819919
O   O27       1.0  0.42150  0.63386  0.28461  1.0000 -0.7165819919
O   O28       1.0  0.42150  0.86614  0.21539  1.0000 -0.7165819919
O   O29       1.0  0.92150  0.63386  0.21539  1.0000 -0.7165819919
O   O30       1.0  0.92150  0.86614  0.28461  1.0000 -0.7165819919
O   O31       1.0  0.57850  0.36614  0.71539  1.0000 -0.7165819919
O   O32       1.0  0.57850  0.13386  0.78461  1.0000 -0.7165819919
