# DDEC6 charges by PACMAN v1.1 (https://github.com/mtap-research/PACMAN-charge/)
data_2011[Cr][bpq]3[FSR]1
_chemical_formula_sum              "Cr2 H8 C16 O10"
_cell_length_a       10.567
_cell_length_b       10.567
_cell_length_c       6.778
_cell_angle_alpha    76.5163
_cell_angle_beta     103.484
_cell_angle_gamma    137.263

_symmetry_space_group_name_H-M    "P 1"
_symmetry_Int_Tables_number       1

loop_
  _symmetry_equiv_pos_as_xyz
  'x, y, z'

loop_
  _atom_site_type_symbol
  _atom_site_label
  _atom_site_symmetry_multiplicity
  _atom_site_fract_x
  _atom_site_fract_y
  _atom_site_fract_z
  _atom_site_occupancy
  _atom_site_charge
Cr  Cr1       1.0  0.00000  0.00000  0.50000  1.0000 1.6361963395
Cr  Cr2       1.0  0.00000  0.00000  0.00000  1.0000 1.6343588475
H   H1        1.0  0.56090  0.89830  0.29940  1.0000 0.1476770844
H   H2        1.0  0.89830  0.56090  0.20060  1.0000 0.1476770844
H   H3        1.0  0.43910  0.10170  0.70060  1.0000 0.1476770844
H   H4        1.0  0.10170  0.43910  0.79940  1.0000 0.1476770844
H   H5        1.0  0.62410  0.04910  0.84260  1.0000 0.1376590821
H   H6        1.0  0.04910  0.62410  0.65740  1.0000 0.1376590821
H   H7        1.0  0.37590  0.95090  0.15740  1.0000 0.1376590821
H   H8        1.0  0.95090  0.37590  0.34260  1.0000 0.1376590821
C   C1        1.0  0.60780  0.96940  0.58270  1.0000 -0.0091637331
C   C2        1.0  0.96940  0.60780  0.91730  1.0000 -0.0091637331
C   C3        1.0  0.39220  0.03060  0.41730  1.0000 -0.0091637331
C   C4        1.0  0.03060  0.39220  0.08270  1.0000 -0.0091637331
C   C5        1.0  0.53550  0.94070  0.38310  1.0000 -0.0914987456
C   C6        1.0  0.94070  0.53550  0.11690  1.0000 -0.0914987456
C   C7        1.0  0.46450  0.05930  0.61690  1.0000 -0.0914987456
C   C8        1.0  0.05930  0.46450  0.88310  1.0000 -0.0914987456
C   C9        1.0  0.57230  0.02870  0.69960  1.0000 -0.0914987456
C   C10       1.0  0.02870  0.57230  0.80040  1.0000 -0.0914987456
C   C11       1.0  0.42770  0.97130  0.30040  1.0000 -0.0914987456
C   C12       1.0  0.97130  0.42770  0.19960  1.0000 -0.0914987456
C   C13       1.0  0.72330  0.93650  0.67140  1.0000 0.6074046734
C   C14       1.0  0.93650  0.72330  0.82860  1.0000 0.6074046734
C   C15       1.0  0.27670  0.06350  0.32860  1.0000 0.6074046734
C   C16       1.0  0.06350  0.27670  0.17140  1.0000 0.6074046734
O   O1        1.0  0.88080  0.88080  0.25000  1.0000 -0.9364925977
O   O2        1.0  0.11920  0.11920  0.75000  1.0000 -0.9364925977
O   O3        1.0  0.75790  0.88350  0.56240  1.0000 -0.5254654643
O   O4        1.0  0.88350  0.75790  0.93760  1.0000 -0.5254654643
O   O5        1.0  0.24210  0.11650  0.43760  1.0000 -0.5246984121
O   O6        1.0  0.11650  0.24210  0.06240  1.0000 -0.5254654643
O   O7        1.0  0.78870  0.96110  0.85710  1.0000 -0.5246984121
O   O8        1.0  0.96110  0.78870  0.64290  1.0000 -0.5246984121
O   O9        1.0  0.21130  0.03890  0.14290  1.0000 -0.5246984121
O   O10       1.0  0.03890  0.21130  0.35710  1.0000 -0.5246984121
