# DDEC6 charges by PACMAN v1.1 (https://github.com/mtap-research/PACMAN-charge/)
data_2011[HoCu][stp]3[FSR]2
_chemical_formula_sum              "Ho4 Cu6 H60 C48 N12 O48"
_cell_length_a       13.388
_cell_length_b       13.388
_cell_length_c       14.306
_cell_angle_alpha    90
_cell_angle_beta     90
_cell_angle_gamma    120

_symmetry_space_group_name_H-M    "P 1"
_symmetry_Int_Tables_number       1

loop_
  _symmetry_equiv_pos_as_xyz
  'x, y, z'

loop_
  _atom_site_type_symbol
  _atom_site_label
  _atom_site_symmetry_multiplicity
  _atom_site_fract_x
  _atom_site_fract_y
  _atom_site_fract_z
  _atom_site_occupancy
  _atom_site_charge
Ho  Ho1       1.0  0.66667  0.33333  0.33309  1.0000 2.0524273774
Ho  Ho2       1.0  0.33333  0.66667  0.16691  1.0000 2.0524273774
Ho  Ho3       1.0  0.33333  0.66667  0.66691  1.0000 2.0524273774
Ho  Ho4       1.0  0.66667  0.33333  0.83309  1.0000 2.0524273774
Cu  Cu1       1.0  0.50000  0.50000  0.50000  1.0000 0.75273272
Cu  Cu2       1.0  0.50000  0.00000  0.50000  1.0000 0.75273272
Cu  Cu3       1.0  0.00000  0.50000  0.50000  1.0000 0.75273272
Cu  Cu4       1.0  0.00000  0.50000  0.00000  1.0000 0.75273272
Cu  Cu5       1.0  0.50000  0.00000  0.00000  1.0000 0.75273272
Cu  Cu6       1.0  0.50000  0.50000  0.00000  1.0000 0.75273272
H   H1        1.0  0.32750  0.34980  0.57950  1.0000 0.2590058506
H   H2        1.0  0.65020  0.97770  0.57950  1.0000 0.2590058506
H   H3        1.0  0.02230  0.67250  0.57950  1.0000 0.2590058506
H   H4        1.0  0.97770  0.65020  0.92050  1.0000 0.2590058506
H   H5        1.0  0.67250  0.02230  0.92050  1.0000 0.2590058506
H   H6        1.0  0.34980  0.32750  0.92050  1.0000 0.2590058506
H   H7        1.0  0.67250  0.65020  0.42050  1.0000 0.2590058506
H   H8        1.0  0.34980  0.02230  0.42050  1.0000 0.2590058506
H   H9        1.0  0.97770  0.32750  0.42050  1.0000 0.2590058506
H   H10       1.0  0.02230  0.34980  0.07950  1.0000 0.2590058506
H   H11       1.0  0.32750  0.97770  0.07950  1.0000 0.2590058506
H   H12       1.0  0.65020  0.67250  0.07950  1.0000 0.2590058506
H   H13       1.0  0.29610  0.25500  0.44790  1.0000 0.1439241678
H   H14       1.0  0.74500  0.04110  0.44790  1.0000 0.1439241678
H   H15       1.0  0.95890  0.70390  0.44790  1.0000 0.1439241678
H   H16       1.0  0.04110  0.74500  0.05210  1.0000 0.1439241678
H   H17       1.0  0.70390  0.95890  0.05210  1.0000 0.1439241678
H   H18       1.0  0.25500  0.29610  0.05210  1.0000 0.1439241678
H   H19       1.0  0.70390  0.74500  0.55210  1.0000 0.1439241678
H   H20       1.0  0.25500  0.95890  0.55210  1.0000 0.1439241678
H   H21       1.0  0.04110  0.29610  0.55210  1.0000 0.1439241678
H   H22       1.0  0.95890  0.25500  0.94790  1.0000 0.1439241678
H   H23       1.0  0.29610  0.04110  0.94790  1.0000 0.1439241678
H   H24       1.0  0.74500  0.70390  0.94790  1.0000 0.1439241678
H   H25       1.0  0.31900  0.18030  0.51990  1.0000 0.1322896441
H   H26       1.0  0.81970  0.13870  0.51990  1.0000 0.1322896441
H   H27       1.0  0.86130  0.68100  0.51990  1.0000 0.1322896441
H   H28       1.0  0.13870  0.81970  0.98010  1.0000 0.1322896441
H   H29       1.0  0.68100  0.86130  0.98010  1.0000 0.1322896441
H   H30       1.0  0.18030  0.31900  0.98010  1.0000 0.1322896441
H   H31       1.0  0.68100  0.81970  0.48010  1.0000 0.1322896441
H   H32       1.0  0.18030  0.86130  0.48010  1.0000 0.1322896441
H   H33       1.0  0.13870  0.31900  0.48010  1.0000 0.1322896441
H   H34       1.0  0.86130  0.18030  0.01990  1.0000 0.1322896441
H   H35       1.0  0.31900  0.13870  0.01990  1.0000 0.1322896441
H   H36       1.0  0.81970  0.68100  0.01990  1.0000 0.1322896441
H   H37       1.0  0.46090  0.26680  0.62900  1.0000 0.1575068377
H   H38       1.0  0.73320  0.19410  0.62900  1.0000 0.1575068377
H   H39       1.0  0.80590  0.53910  0.62900  1.0000 0.1575068377
H   H40       1.0  0.19410  0.73320  0.87100  1.0000 0.1575068377
H   H41       1.0  0.53910  0.80590  0.87100  1.0000 0.1575068377
H   H42       1.0  0.26680  0.46090  0.87100  1.0000 0.1575068377
H   H43       1.0  0.53910  0.73320  0.37100  1.0000 0.1575068377
H   H44       1.0  0.26680  0.80590  0.37100  1.0000 0.1575068377
H   H45       1.0  0.19410  0.46090  0.37100  1.0000 0.1575068377
H   H46       1.0  0.80590  0.26680  0.12900  1.0000 0.1575068377
H   H47       1.0  0.46090  0.19410  0.12900  1.0000 0.1575068377
H   H48       1.0  0.73320  0.53910  0.12900  1.0000 0.1575068377
H   H49       1.0  0.39970  0.31310  0.69510  1.0000 0.1548529973
H   H50       1.0  0.68690  0.08660  0.69510  1.0000 0.1575068377
H   H51       1.0  0.91340  0.60030  0.69510  1.0000 0.1548529973
H   H52       1.0  0.08660  0.68690  0.80490  1.0000 0.1548529973
H   H53       1.0  0.60030  0.91340  0.80490  1.0000 0.1548529973
H   H54       1.0  0.31310  0.39970  0.80490  1.0000 0.1548529973
H   H55       1.0  0.60030  0.68690  0.30490  1.0000 0.1548529973
H   H56       1.0  0.31310  0.91340  0.30490  1.0000 0.1548529973
H   H57       1.0  0.08660  0.39970  0.30490  1.0000 0.1548529973
H   H58       1.0  0.91340  0.31310  0.19510  1.0000 0.1548529973
H   H59       1.0  0.39970  0.08660  0.19510  1.0000 0.1575068377
H   H60       1.0  0.68690  0.60030  0.19510  1.0000 0.1548529973
C   C1        1.0  0.45430  0.26910  0.43040  1.0000 0.6193699499
C   C2        1.0  0.73090  0.18520  0.43040  1.0000 0.6193699499
C   C3        1.0  0.81480  0.54570  0.43040  1.0000 0.6193699499
C   C4        1.0  0.18520  0.73090  0.06960  1.0000 0.6193699499
C   C5        1.0  0.54570  0.81480  0.06960  1.0000 0.6193699499
C   C6        1.0  0.26910  0.45430  0.06960  1.0000 0.6193699499
C   C7        1.0  0.54570  0.73090  0.56960  1.0000 0.6193699499
C   C8        1.0  0.26910  0.81480  0.56960  1.0000 0.6193699499
C   C9        1.0  0.18520  0.45430  0.56960  1.0000 0.6193699499
C   C10       1.0  0.81480  0.26910  0.93040  1.0000 0.6193699499
C   C11       1.0  0.45430  0.18520  0.93040  1.0000 0.6193699499
C   C12       1.0  0.73090  0.54570  0.93040  1.0000 0.6193699499
C   C13       1.0  0.35380  0.25440  0.48850  1.0000 -0.2408594106
C   C14       1.0  0.74560  0.09940  0.48850  1.0000 -0.2408594106
C   C15       1.0  0.90060  0.64620  0.48850  1.0000 -0.2408594106
C   C16       1.0  0.09940  0.74560  0.01150  1.0000 -0.2408594106
C   C17       1.0  0.64620  0.90060  0.01150  1.0000 -0.2408594106
C   C18       1.0  0.25440  0.35380  0.01150  1.0000 -0.2408594106
C   C19       1.0  0.64620  0.74560  0.51150  1.0000 -0.2408594106
C   C20       1.0  0.25440  0.90060  0.51150  1.0000 -0.2408594106
C   C21       1.0  0.09940  0.35380  0.51150  1.0000 -0.2408594106
C   C22       1.0  0.90060  0.25440  0.98850  1.0000 -0.2408594106
C   C23       1.0  0.35380  0.09940  0.98850  1.0000 -0.2408594106
C   C24       1.0  0.74560  0.64620  0.98850  1.0000 -0.2408594106
C   C25       1.0  0.44910  0.33160  0.64070  1.0000 -0.2668707187
C   C26       1.0  0.66840  0.11750  0.64070  1.0000 -0.2668707187
C   C27       1.0  0.88250  0.55090  0.64070  1.0000 -0.2668707187
C   C28       1.0  0.11750  0.66840  0.85930  1.0000 -0.2668707187
C   C29       1.0  0.55090  0.88250  0.85930  1.0000 -0.2668707187
C   C30       1.0  0.33160  0.44910  0.85930  1.0000 -0.2668707187
C   C31       1.0  0.55090  0.66840  0.35930  1.0000 -0.2668707187
C   C32       1.0  0.33160  0.88250  0.35930  1.0000 -0.2668707187
C   C33       1.0  0.11750  0.44910  0.35930  1.0000 -0.2668707187
C   C34       1.0  0.88250  0.33160  0.14070  1.0000 -0.2668707187
C   C35       1.0  0.44910  0.11750  0.14070  1.0000 -0.2668707187
C   C36       1.0  0.66840  0.55090  0.14070  1.0000 -0.2668707187
C   C37       1.0  0.56270  0.43600  0.66100  1.0000 0.6586493512
C   C38       1.0  0.56400  0.12670  0.66100  1.0000 0.6586493512
C   C39       1.0  0.87330  0.43730  0.66100  1.0000 0.6586493512
C   C40       1.0  0.12670  0.56400  0.83900  1.0000 0.6586493512
C   C41       1.0  0.43730  0.87330  0.83900  1.0000 0.6586493512
C   C42       1.0  0.43600  0.56270  0.83900  1.0000 0.6586493512
C   C43       1.0  0.43730  0.56400  0.33900  1.0000 0.6586493512
C   C44       1.0  0.43600  0.87330  0.33900  1.0000 0.6586493512
C   C45       1.0  0.12670  0.56270  0.33900  1.0000 0.6586493512
C   C46       1.0  0.87330  0.43600  0.16100  1.0000 0.6586493512
C   C47       1.0  0.56270  0.12670  0.16100  1.0000 0.6586493512
C   C48       1.0  0.56400  0.43730  0.16100  1.0000 0.6586493512
N   N1        1.0  0.39080  0.34770  0.55920  1.0000 -0.2517409066
N   N2        1.0  0.65230  0.04310  0.55920  1.0000 -0.2517409066
N   N3        1.0  0.95690  0.60920  0.55920  1.0000 -0.2517409066
N   N4        1.0  0.04310  0.65230  0.94080  1.0000 -0.2517409066
N   N5        1.0  0.60920  0.95690  0.94080  1.0000 -0.2517409066
N   N6        1.0  0.34770  0.39080  0.94080  1.0000 -0.2517409066
N   N7        1.0  0.60920  0.65230  0.44080  1.0000 -0.2517409066
N   N8        1.0  0.34770  0.95690  0.44080  1.0000 -0.2517409066
N   N9        1.0  0.04310  0.39080  0.44080  1.0000 -0.2517409066
N   N10       1.0  0.95690  0.34770  0.05920  1.0000 -0.2517409066
N   N11       1.0  0.39080  0.04310  0.05920  1.0000 -0.2517409066
N   N12       1.0  0.65230  0.60920  0.05920  1.0000 -0.2517409066
O   O1        1.0  0.55030  0.36030  0.44100  1.0000 -0.6548885444
O   O2        1.0  0.63970  0.19000  0.44100  1.0000 -0.6586011389
O   O3        1.0  0.81000  0.44970  0.44100  1.0000 -0.6548885444
O   O4        1.0  0.19000  0.63970  0.05900  1.0000 -0.6548885444
O   O5        1.0  0.44970  0.81000  0.05900  1.0000 -0.6586011389
O   O6        1.0  0.36030  0.55030  0.05900  1.0000 -0.6548885444
O   O7        1.0  0.44970  0.63970  0.55900  1.0000 -0.6548885444
O   O8        1.0  0.36030  0.81000  0.55900  1.0000 -0.6586011389
O   O9        1.0  0.19000  0.55030  0.55900  1.0000 -0.6548885444
O   O10       1.0  0.81000  0.36030  0.94100  1.0000 -0.6586011389
O   O11       1.0  0.55030  0.19000  0.94100  1.0000 -0.6586011389
O   O12       1.0  0.63970  0.44970  0.94100  1.0000 -0.6586011389
O   O13       1.0  0.44100  0.19400  0.37240  1.0000 -0.5952887872
O   O14       1.0  0.80600  0.24700  0.37240  1.0000 -0.5952887872
O   O15       1.0  0.75300  0.55900  0.37240  1.0000 -0.5952887872
O   O16       1.0  0.24700  0.80600  0.12760  1.0000 -0.5952887872
O   O17       1.0  0.55900  0.75300  0.12760  1.0000 -0.5952887872
O   O18       1.0  0.19400  0.44100  0.12760  1.0000 -0.5952887872
O   O19       1.0  0.55900  0.80600  0.62760  1.0000 -0.5952887872
O   O20       1.0  0.19400  0.75300  0.62760  1.0000 -0.5952887872
O   O21       1.0  0.24700  0.44100  0.62760  1.0000 -0.5952887872
O   O22       1.0  0.75300  0.19400  0.87240  1.0000 -0.5952887872
O   O23       1.0  0.44100  0.24700  0.87240  1.0000 -0.5952887872
O   O24       1.0  0.80600  0.55900  0.87240  1.0000 -0.5952887872
O   O25       1.0  0.59790  0.52440  0.60920  1.0000 -0.5164441208
O   O26       1.0  0.47560  0.07350  0.60920  1.0000 -0.5164441208
O   O27       1.0  0.92650  0.40210  0.60920  1.0000 -0.5164441208
O   O28       1.0  0.07350  0.47560  0.89080  1.0000 -0.5164441208
O   O29       1.0  0.40210  0.92650  0.89080  1.0000 -0.5164441208
O   O30       1.0  0.52440  0.59790  0.89080  1.0000 -0.5164441208
O   O31       1.0  0.40210  0.47560  0.39080  1.0000 -0.5164441208
O   O32       1.0  0.52440  0.92650  0.39080  1.0000 -0.5164441208
O   O33       1.0  0.07350  0.59790  0.39080  1.0000 -0.5164441208
O   O34       1.0  0.92650  0.52440  0.10920  1.0000 -0.5164441208
O   O35       1.0  0.59790  0.07350  0.10920  1.0000 -0.5164441208
O   O36       1.0  0.47560  0.40210  0.10920  1.0000 -0.5164441208
O   O37       1.0  0.62030  0.43440  0.72990  1.0000 -0.6586011389
O   O38       1.0  0.56560  0.18590  0.72990  1.0000 -0.6586011389
O   O39       1.0  0.81410  0.37970  0.72990  1.0000 -0.6586011389
O   O40       1.0  0.18590  0.56560  0.77010  1.0000 -0.6586011389
O   O41       1.0  0.37970  0.81410  0.77010  1.0000 -0.6586011389
O   O42       1.0  0.43440  0.62030  0.77010  1.0000 -0.6586011389
O   O43       1.0  0.37970  0.56560  0.27010  1.0000 -0.6586011389
O   O44       1.0  0.43440  0.81410  0.27010  1.0000 -0.6586011389
O   O45       1.0  0.18590  0.62030  0.27010  1.0000 -0.6586011389
O   O46       1.0  0.81410  0.43440  0.22990  1.0000 -0.6586011389
O   O47       1.0  0.62030  0.18590  0.22990  1.0000 -0.6586011389
O   O48       1.0  0.56560  0.37970  0.22990  1.0000 -0.6586011389
