# DDEC6 charges by PACMAN v1.1 (https://github.com/mtap-research/PACMAN-charge/)
data_2011[Zn][pcu]3[FSR]15
_chemical_formula_sum              "Zn4 H40 C80 N8 O24"
_cell_length_a       11.217
_cell_length_b       17.703
_cell_length_c       11.526
_cell_angle_alpha    90
_cell_angle_beta     106.917
_cell_angle_gamma    90

_symmetry_space_group_name_H-M    "P 1"
_symmetry_Int_Tables_number       1

loop_
  _symmetry_equiv_pos_as_xyz
  'x, y, z'

loop_
  _atom_site_type_symbol
  _atom_site_label
  _atom_site_symmetry_multiplicity
  _atom_site_fract_x
  _atom_site_fract_y
  _atom_site_fract_z
  _atom_site_occupancy
  _atom_site_charge
Zn  Zn1       1.0  0.54105  0.00777  0.13535  1.0000 0.8397392943
Zn  Zn2       1.0  0.95895  0.50777  0.86465  1.0000 0.8397392943
Zn  Zn3       1.0  0.45895  0.99223  0.86465  1.0000 0.8397392943
Zn  Zn4       1.0  0.04105  0.49223  0.13535  1.0000 0.8397392943
H   H1        1.0  0.35170  0.36520  0.14110  1.0000 0.1214341104
H   H2        1.0  0.14830  0.86520  0.85890  1.0000 0.1214341104
H   H3        1.0  0.64830  0.63480  0.85890  1.0000 0.1214341104
H   H4        1.0  0.85170  0.13480  0.14110  1.0000 0.1214341104
H   H5        1.0  0.44410  0.24620  0.15390  1.0000 0.1252075895
H   H6        1.0  0.05590  0.74620  0.84610  1.0000 0.1252075895
H   H7        1.0  0.55590  0.75380  0.84610  1.0000 0.1252075895
H   H8        1.0  0.94410  0.25380  0.15390  1.0000 0.1252075895
H   H9        1.0  0.29640  0.21890  0.79450  1.0000 0.1214341104
H   H10       1.0  0.20360  0.71890  0.20550  1.0000 0.1214341104
H   H11       1.0  0.70360  0.78110  0.20550  1.0000 0.1214341104
H   H12       1.0  0.79640  0.28110  0.79450  1.0000 0.1214341104
H   H13       1.0  0.19490  0.33600  0.78130  1.0000 0.1214341104
H   H14       1.0  0.30510  0.83600  0.21870  1.0000 0.1214341104
H   H15       1.0  0.80510  0.66400  0.21870  1.0000 0.1214341104
H   H16       1.0  0.69490  0.16400  0.78130  1.0000 0.1214341104
H   H17       1.0  0.78760  0.96460  0.29360  1.0000 0.1214341104
H   H18       1.0  0.71240  0.46460  0.70640  1.0000 0.1214341104
H   H19       1.0  0.21240  0.03540  0.70640  1.0000 0.1214341104
H   H20       1.0  0.28760  0.53540  0.29360  1.0000 0.1214341104
H   H21       1.0  0.90280  0.96090  0.49720  1.0000 0.1525841649
H   H22       1.0  0.59720  0.46090  0.50280  1.0000 0.1525841649
H   H23       1.0  0.09720  0.03910  0.50280  1.0000 0.1525841649
H   H24       1.0  0.40280  0.53910  0.49720  1.0000 0.1525841649
H   H25       1.0  0.61960  0.06620  0.57570  1.0000 0.1525841649
H   H26       1.0  0.88040  0.56620  0.42430  1.0000 0.1525841649
H   H27       1.0  0.38040  0.93380  0.42430  1.0000 0.1525841649
H   H28       1.0  0.11960  0.43380  0.57570  1.0000 0.1525841649
H   H29       1.0  0.51460  0.06950  0.37170  1.0000 0.1214341104
H   H30       1.0  0.98540  0.56950  0.62830  1.0000 0.1214341104
H   H31       1.0  0.48540  0.93050  0.62830  1.0000 0.1214341104
H   H32       1.0  0.01460  0.43050  0.37170  1.0000 0.1214341104
H   H33       1.0  0.09740  0.15690  0.87370  1.0000 0.1214341104
H   H34       1.0  0.40260  0.65690  0.12630  1.0000 0.1214341104
H   H35       1.0  0.90260  0.84310  0.12630  1.0000 0.1214341104
H   H36       1.0  0.59740  0.34310  0.87370  1.0000 0.1214341104
H   H37       1.0  0.79850  0.84820  0.91890  1.0000 0.1214341104
H   H38       1.0  0.70150  0.34820  0.08110  1.0000 0.1252075895
H   H39       1.0  0.20150  0.15180  0.08110  1.0000 0.1252075895
H   H40       1.0  0.29850  0.65180  0.91890  1.0000 0.1252075895
C   C1        1.0  0.18400  0.43350  0.95590  1.0000 0.580119209
C   C2        1.0  0.31600  0.93350  0.04410  1.0000 0.580119209
C   C3        1.0  0.81600  0.56650  0.04410  1.0000 0.580119209
C   C4        1.0  0.68400  0.06650  0.95590  1.0000 0.580119209
C   C5        1.0  0.25930  0.36130  0.96040  1.0000 -0.021862226
C   C6        1.0  0.24070  0.86130  0.03960  1.0000 -0.021862226
C   C7        1.0  0.74070  0.63870  0.03960  1.0000 -0.021862226
C   C8        1.0  0.75930  0.13870  0.96040  1.0000 -0.021862226
C   C9        1.0  0.33710  0.33500  0.07140  1.0000 -0.1007237072
C   C10       1.0  0.16290  0.83500  0.92860  1.0000 -0.1007237072
C   C11       1.0  0.66290  0.66500  0.92860  1.0000 -0.1007237072
C   C12       1.0  0.83710  0.16500  0.07140  1.0000 -0.1007237072
C   C13       1.0  0.39320  0.26370  0.07880  1.0000 -0.1007237072
C   C14       1.0  0.10680  0.76370  0.92120  1.0000 -0.1007237072
C   C15       1.0  0.60680  0.73630  0.92120  1.0000 -0.1007237072
C   C16       1.0  0.89320  0.23630  0.07880  1.0000 -0.1007237072
C   C17       1.0  0.37420  0.21860  0.97620  1.0000 -0.0270195663
C   C18       1.0  0.12580  0.71860  0.02380  1.0000 -0.0270195663
C   C19       1.0  0.62580  0.78140  0.02380  1.0000 -0.0270195663
C   C20       1.0  0.87420  0.28140  0.97620  1.0000 -0.0270195663
C   C21       1.0  0.30420  0.24720  0.86540  1.0000 -0.1007237072
C   C22       1.0  0.19580  0.74720  0.13460  1.0000 -0.1007237072
C   C23       1.0  0.69580  0.75280  0.13460  1.0000 -0.1007237072
C   C24       1.0  0.80420  0.25280  0.86540  1.0000 -0.1007237072
C   C25       1.0  0.24440  0.31810  0.85680  1.0000 -0.1084384829
C   C26       1.0  0.25560  0.81810  0.14320  1.0000 -0.1084384829
C   C27       1.0  0.75560  0.68190  0.14320  1.0000 -0.1084384829
C   C28       1.0  0.74440  0.18190  0.85680  1.0000 -0.1084384829
C   C29       1.0  0.42350  0.13760  0.98560  1.0000 0.580119209
C   C30       1.0  0.07650  0.63760  0.01440  1.0000 0.580119209
C   C31       1.0  0.57650  0.86240  0.01440  1.0000 0.580119209
C   C32       1.0  0.92350  0.36240  0.98560  1.0000 0.580119209
C   C33       1.0  0.75270  0.98470  0.35180  1.0000 0.1214341104
C   C34       1.0  0.74730  0.48470  0.64820  1.0000 0.1214341104
C   C35       1.0  0.24730  0.01530  0.64820  1.0000 0.1214341104
C   C36       1.0  0.25270  0.51530  0.35180  1.0000 0.1214341104
C   C37       1.0  0.82250  0.98210  0.47390  1.0000 -0.2092006564
C   C38       1.0  0.67750  0.48210  0.52610  1.0000 -0.2092006564
C   C39       1.0  0.17750  0.01790  0.52610  1.0000 -0.2092006564
C   C40       1.0  0.32250  0.51790  0.47390  1.0000 -0.2092006564
C   C41       1.0  0.77180  0.01090  0.55870  1.0000 0.2360074386
C   C42       1.0  0.72820  0.51090  0.44130  1.0000 0.2360074386
C   C43       1.0  0.22820  0.98910  0.44130  1.0000 0.2360074386
C   C44       1.0  0.27180  0.48910  0.55870  1.0000 0.2360074386
C   C45       1.0  0.65550  0.04450  0.51940  1.0000 -0.2025724337
C   C46       1.0  0.84450  0.54450  0.48060  1.0000 -0.2025724337
C   C47       1.0  0.34450  0.95550  0.48060  1.0000 -0.2025724337
C   C48       1.0  0.15550  0.45550  0.51940  1.0000 -0.2025724337
C   C49       1.0  0.59280  0.04570  0.39750  1.0000 0.098613964
C   C50       1.0  0.90720  0.54570  0.60250  1.0000 0.098613964
C   C51       1.0  0.40720  0.95430  0.60250  1.0000 0.098613964
C   C52       1.0  0.09280  0.45430  0.39750  1.0000 0.098613964
C   C53       1.0  0.81100  0.94720  0.75560  1.0000 0.4502180308
C   C54       1.0  0.68900  0.44720  0.24440  1.0000 0.4502180308
C   C55       1.0  0.18900  0.05280  0.24440  1.0000 0.4502180308
C   C56       1.0  0.31100  0.55280  0.75560  1.0000 0.4502180308
C   C57       1.0  0.88100  0.94390  0.88440  1.0000 -0.0624193558
C   C58       1.0  0.61900  0.44390  0.11560  1.0000 -0.0624193558
C   C59       1.0  0.11900  0.05610  0.11560  1.0000 -0.0624193558
C   C60       1.0  0.38100  0.55610  0.88440  1.0000 -0.0624193558
C   C61       1.0  0.96800  0.00120  0.93540  1.0000 0.037165565
C   C62       1.0  0.53200  0.50120  0.06460  1.0000 0.037165565
C   C63       1.0  0.03200  0.99880  0.06460  1.0000 0.037165565
C   C64       1.0  0.46800  0.49880  0.93540  1.0000 0.037165565
C   C65       1.0  0.99670  0.06150  0.86630  1.0000 -0.0689788446
C   C66       1.0  0.50330  0.56150  0.13370  1.0000 -0.0689788446
C   C67       1.0  0.00330  0.93850  0.13370  1.0000 -0.0689788446
C   C68       1.0  0.49670  0.43850  0.86630  1.0000 -0.0689788446
C   C69       1.0  0.93210  0.06320  0.73330  1.0000 0.4502180308
C   C70       1.0  0.56790  0.56320  0.26670  1.0000 0.4502180308
C   C71       1.0  0.06790  0.93680  0.26670  1.0000 0.4502180308
C   C72       1.0  0.43210  0.43680  0.73330  1.0000 0.4502180308
C   C73       1.0  0.08130  0.11690  0.92070  1.0000 -0.0689788446
C   C74       1.0  0.41870  0.61690  0.07930  1.0000 -0.0689788446
C   C75       1.0  0.91870  0.88310  0.07930  1.0000 -0.0689788446
C   C76       1.0  0.58130  0.38310  0.92070  1.0000 -0.0689788446
C   C77       1.0  0.85670  0.88580  0.95470  1.0000 -0.0624193558
C   C78       1.0  0.64330  0.38580  0.04530  1.0000 -0.0624193558
C   C79       1.0  0.14330  0.11420  0.04530  1.0000 -0.0624193558
C   C80       1.0  0.35670  0.61420  0.95470  1.0000 -0.0624193558
N   N1        1.0  0.63930  0.01430  0.31440  1.0000 -0.2092006564
N   N2        1.0  0.86070  0.51430  0.68560  1.0000 -0.2092006564
N   N3        1.0  0.36070  0.98570  0.68560  1.0000 -0.2092006564
N   N4        1.0  0.13930  0.48570  0.31440  1.0000 -0.2092006564
N   N5        1.0  0.84000  0.00800  0.68810  1.0000 -0.2494136677
N   N6        1.0  0.66000  0.50800  0.31190  1.0000 -0.2494136677
N   N7        1.0  0.16000  0.99200  0.31190  1.0000 -0.2494136677
N   N8        1.0  0.34000  0.49200  0.68810  1.0000 -0.2494136677
O   O1        1.0  0.18250  0.46090  0.05780  1.0000 -0.5817305878
O   O2        1.0  0.31750  0.96090  0.94220  1.0000 -0.5817305878
O   O3        1.0  0.81750  0.53910  0.94220  1.0000 -0.5817305878
O   O4        1.0  0.68250  0.03910  0.05780  1.0000 -0.5817305878
O   O5        1.0  0.12390  0.45920  0.85360  1.0000 -0.5462249503
O   O6        1.0  0.37610  0.95920  0.14640  1.0000 -0.5462249503
O   O7        1.0  0.87610  0.54080  0.14640  1.0000 -0.5462249503
O   O8        1.0  0.62390  0.04080  0.85360  1.0000 -0.5462249503
O   O9        1.0  0.47070  0.11250  0.09300  1.0000 -0.5415263757
O   O10       1.0  0.02930  0.61250  0.90700  1.0000 -0.5415263757
O   O11       1.0  0.52930  0.88750  0.90700  1.0000 -0.5415263757
O   O12       1.0  0.97070  0.38750  0.09300  1.0000 -0.5415263757
O   O13       1.0  0.40910  0.10210  0.88890  1.0000 -0.5415263757
O   O14       1.0  0.09090  0.60210  0.11110  1.0000 -0.5415263757
O   O15       1.0  0.59090  0.89790  0.11110  1.0000 -0.5415263757
O   O16       1.0  0.90910  0.39790  0.88890  1.0000 -0.5415263757
O   O17       1.0  0.72850  0.90220  0.70200  1.0000 -0.4365980759
O   O18       1.0  0.77150  0.40220  0.29800  1.0000 -0.4365980759
O   O19       1.0  0.27150  0.09780  0.29800  1.0000 -0.4365980759
O   O20       1.0  0.22850  0.59780  0.70200  1.0000 -0.4365980759
O   O21       1.0  0.95530  0.11100  0.66480  1.0000 -0.4365980759
O   O22       1.0  0.54470  0.61100  0.33520  1.0000 -0.4365980759
O   O23       1.0  0.04470  0.88900  0.33520  1.0000 -0.4365980759
O   O24       1.0  0.45530  0.38900  0.66480  1.0000 -0.4365980759
