# DDEC6 charges by PACMAN v1.1 (https://github.com/mtap-research/PACMAN-charge/)
data_2011[Ni][nan]3[FSR]1
_chemical_formula_sum              "Ni6 H24 C42 O30"
_cell_length_a       8.8079
_cell_length_b       8.8079
_cell_length_c       21.1663
_cell_angle_alpha    90
_cell_angle_beta     90
_cell_angle_gamma    120

_symmetry_space_group_name_H-M    "P 1"
_symmetry_Int_Tables_number       1

loop_
  _symmetry_equiv_pos_as_xyz
  'x, y, z'

loop_
  _atom_site_type_symbol
  _atom_site_label
  _atom_site_symmetry_multiplicity
  _atom_site_fract_x
  _atom_site_fract_y
  _atom_site_fract_z
  _atom_site_occupancy
  _atom_site_charge
Ni  Ni1       1.0  0.03473  0.98102  0.08281  1.0000 0.9199871261
Ni  Ni2       1.0  0.01898  0.05371  0.41614  1.0000 0.9199871261
Ni  Ni3       1.0  0.94629  0.96527  0.74948  1.0000 0.9199871261
Ni  Ni4       1.0  0.05371  0.01898  0.58386  1.0000 0.9199871261
Ni  Ni5       1.0  0.96527  0.94629  0.25052  1.0000 0.9199871261
Ni  Ni6       1.0  0.98102  0.03473  0.91719  1.0000 0.9199871261
H   H1        1.0  0.07790  0.46790  0.07460  1.0000 0.1480408822
H   H2        1.0  0.53210  0.61000  0.40793  1.0000 0.1480408822
H   H3        1.0  0.39000  0.92210  0.74127  1.0000 0.1480408822
H   H4        1.0  0.61000  0.53210  0.59207  1.0000 0.1480408822
H   H5        1.0  0.92210  0.39000  0.25873  1.0000 0.1480408822
H   H6        1.0  0.46790  0.07790  0.92540  1.0000 0.1480408822
H   H7        1.0  0.59260  0.48880  0.08880  1.0000 0.1480408822
H   H8        1.0  0.51120  0.10380  0.42213  1.0000 0.1480408822
H   H9        1.0  0.89620  0.40740  0.75547  1.0000 0.1480408822
H   H10       1.0  0.10380  0.51120  0.57787  1.0000 0.1480408822
H   H11       1.0  0.40740  0.89620  0.24453  1.0000 0.1480408822
H   H12       1.0  0.48880  0.59260  0.91120  1.0000 0.1480408822
H   H13       1.0  0.36400  0.21400  0.13310  1.0000 0.3842959542
H   H14       1.0  0.78600  0.15000  0.46643  1.0000 0.3842959542
H   H15       1.0  0.85000  0.63600  0.79977  1.0000 0.3842959542
H   H16       1.0  0.15000  0.78600  0.53357  1.0000 0.3842959542
H   H17       1.0  0.63600  0.85000  0.20023  1.0000 0.3842959542
H   H18       1.0  0.21400  0.36400  0.86690  1.0000 0.3842959542
H   H19       1.0  0.11600  0.74600  0.02760  1.0000 0.3883565256
H   H20       1.0  0.25400  0.37000  0.36093  1.0000 0.3883565256
H   H21       1.0  0.63000  0.88400  0.69427  1.0000 0.3883565256
H   H22       1.0  0.37000  0.25400  0.63907  1.0000 0.3883565256
H   H23       1.0  0.88400  0.63000  0.30573  1.0000 0.3883565256
H   H24       1.0  0.74600  0.11600  0.97240  1.0000 0.3883565256
C   C1        1.0  0.00000  0.72050  0.16667  1.0000 0.1210088906
C   C2        1.0  0.27950  0.27950  0.50000  1.0000 0.1210088906
C   C3        1.0  0.72050  0.00000  0.83333  1.0000 0.1210088906
C   C4        1.0  0.00000  0.23660  0.16667  1.0000 0.5722109317
C   C5        1.0  0.76340  0.76340  0.50000  1.0000 0.5722109317
C   C6        1.0  0.23660  0.00000  0.83333  1.0000 0.5722109317
C   C7        1.0  0.73300  0.73300  0.00000  1.0000 0.5722109317
C   C8        1.0  0.26700  0.00000  0.33333  1.0000 0.5722109317
C   C9        1.0  0.00000  0.26700  0.66667  1.0000 0.5722109317
C   C10       1.0  0.24920  0.24920  0.00000  1.0000 0.1210088906
C   C11       1.0  0.75080  0.00000  0.33333  1.0000 0.1210088906
C   C12       1.0  0.00000  0.75080  0.66667  1.0000 0.1210088906
C   C13       1.0  0.56460  0.56460  0.00000  1.0000 0.0107571416
C   C14       1.0  0.43540  0.00000  0.33333  1.0000 0.0107571416
C   C15       1.0  0.00000  0.43540  0.66667  1.0000 0.0107571416
C   C16       1.0  0.36240  0.29770  0.05180  1.0000 0.1898570696
C   C17       1.0  0.70230  0.06470  0.38513  1.0000 0.1898570696
C   C18       1.0  0.93530  0.63760  0.71847  1.0000 0.1898570696
C   C19       1.0  0.06470  0.70230  0.61487  1.0000 0.1898570696
C   C20       1.0  0.63760  0.93530  0.28153  1.0000 0.1898570696
C   C21       1.0  0.29770  0.36240  0.94820  1.0000 0.1898570696
C   C22       1.0  0.04770  0.50710  0.11181  1.0000 -0.2744357398
C   C23       1.0  0.49290  0.54060  0.44514  1.0000 -0.2744357398
C   C24       1.0  0.45940  0.95230  0.77848  1.0000 -0.2744357398
C   C25       1.0  0.54060  0.49290  0.55486  1.0000 -0.2744357398
C   C26       1.0  0.95230  0.45940  0.22152  1.0000 -0.2744357398
C   C27       1.0  0.50710  0.04770  0.88819  1.0000 -0.2744357398
C   C28       1.0  0.51830  0.45530  0.05286  1.0000 -0.2744357398
C   C29       1.0  0.54470  0.06300  0.38619  1.0000 -0.2744357398
C   C30       1.0  0.93700  0.48170  0.71953  1.0000 -0.2744357398
C   C31       1.0  0.06300  0.54470  0.61381  1.0000 -0.2744357398
C   C32       1.0  0.48170  0.93700  0.28047  1.0000 -0.2744357398
C   C33       1.0  0.45530  0.51830  0.94714  1.0000 -0.2744357398
C   C34       1.0  0.05040  0.66610  0.11235  1.0000 0.1898570696
C   C35       1.0  0.33390  0.38430  0.44568  1.0000 0.1898570696
C   C36       1.0  0.61570  0.94960  0.77902  1.0000 0.1898570696
C   C37       1.0  0.38430  0.33390  0.55432  1.0000 0.1898570696
C   C38       1.0  0.94960  0.61570  0.22098  1.0000 0.1898570696
C   C39       1.0  0.66610  0.05040  0.88765  1.0000 0.1898570696
C   C40       1.0  0.00000  0.40560  0.16667  1.0000 0.0107571416
C   C41       1.0  0.59440  0.59440  0.50000  1.0000 0.0107571416
C   C42       1.0  0.40560  0.00000  0.83333  1.0000 0.0107571416
O   O1        1.0  0.09860  0.09860  0.00000  1.0000 -0.5392692249
O   O2        1.0  0.90140  0.00000  0.33333  1.0000 -0.5392692249
O   O3        1.0  0.00000  0.90140  0.66667  1.0000 -0.5392692249
O   O4        1.0  0.78580  0.81130  0.05265  1.0000 -0.5593453805
O   O5        1.0  0.18870  0.97450  0.38598  1.0000 -0.5593453805
O   O6        1.0  0.02550  0.21420  0.71932  1.0000 -0.5593453805
O   O7        1.0  0.97450  0.18870  0.61402  1.0000 -0.5593453805
O   O8        1.0  0.21420  0.02550  0.28068  1.0000 -0.5593453805
O   O9        1.0  0.81130  0.78580  0.94735  1.0000 -0.5593453805
O   O10       1.0  0.00000  0.87140  0.16667  1.0000 -0.5519123932
O   O11       1.0  0.12860  0.12860  0.50000  1.0000 -0.5392692249
O   O12       1.0  0.87140  0.00000  0.83333  1.0000 -0.5519123932
O   O13       1.0  0.30350  0.17360  0.09919  1.0000 -0.4331609717
O   O14       1.0  0.82640  0.12990  0.43252  1.0000 -0.4331609717
O   O15       1.0  0.87010  0.69650  0.76586  1.0000 -0.4331609717
O   O16       1.0  0.12990  0.82640  0.56748  1.0000 -0.4331609717
O   O17       1.0  0.69650  0.87010  0.23414  1.0000 -0.4331609717
O   O18       1.0  0.17360  0.30350  0.90081  1.0000 -0.4331609717
O   O19       1.0  0.96070  0.15200  0.11524  1.0000 -0.5519123932
O   O20       1.0  0.84800  0.80870  0.44857  1.0000 -0.5519123932
O   O21       1.0  0.19130  0.03930  0.78191  1.0000 -0.5519123932
O   O22       1.0  0.80870  0.84800  0.55143  1.0000 -0.5593453805
O   O23       1.0  0.03930  0.19130  0.21809  1.0000 -0.5593453805
O   O24       1.0  0.15200  0.96070  0.88476  1.0000 -0.5519123932
O   O25       1.0  0.10210  0.78290  0.06322  1.0000 -0.4331609717
O   O26       1.0  0.21710  0.31920  0.39655  1.0000 -0.4331609717
O   O27       1.0  0.68080  0.89790  0.72989  1.0000 -0.4331609717
O   O28       1.0  0.31920  0.21710  0.60345  1.0000 -0.4331609717
O   O29       1.0  0.89790  0.68080  0.27011  1.0000 -0.4331609717
O   O30       1.0  0.78290  0.10210  0.93678  1.0000 -0.4331609717
