# DDEC6 charges by PACMAN v1.1 (https://github.com/mtap-research/PACMAN-charge/)
data_2011[Gd][flu]3[FSR]1
_chemical_formula_sum              "Gd2 H14 C30 O18"
_cell_length_a       9.331
_cell_length_b       9.841
_cell_length_c       11.423
_cell_angle_alpha    94.224
_cell_angle_beta     98.51
_cell_angle_gamma    110.952

_symmetry_space_group_name_H-M    "P 1"
_symmetry_Int_Tables_number       1

loop_
  _symmetry_equiv_pos_as_xyz
  'x, y, z'

loop_
  _atom_site_type_symbol
  _atom_site_label
  _atom_site_symmetry_multiplicity
  _atom_site_fract_x
  _atom_site_fract_y
  _atom_site_fract_z
  _atom_site_occupancy
  _atom_site_charge
Gd  Gd1       1.0  0.71885  0.45439  0.01460  1.0000 1.9850704733
Gd  Gd2       1.0  0.28115  0.54561  0.98540  1.0000 1.9850704733
H   H1        1.0  0.31860  0.99770  0.03780  1.0000 0.1367591831
H   H2        1.0  0.68140  0.00230  0.96220  1.0000 0.1367591831
H   H3        1.0  0.19500  0.28760  0.22110  1.0000 0.149117188
H   H4        1.0  0.80500  0.71240  0.77890  1.0000 0.149117188
H   H5        1.0  0.91890  0.86070  0.16320  1.0000 0.149117188
H   H6        1.0  0.08110  0.13930  0.83680  1.0000 0.149117188
H   H7        1.0  0.17650  0.10090  0.43180  1.0000 0.130152202
H   H8        1.0  0.82350  0.89910  0.56820  1.0000 0.130152202
H   H9        1.0  0.26970  0.22690  0.61890  1.0000 0.1219449926
H   H10       1.0  0.73030  0.77310  0.38110  1.0000 0.1219449926
H   H11       1.0  0.93700  0.39780  0.57830  1.0000 0.1135126713
H   H12       1.0  0.06300  0.60220  0.42170  1.0000 0.1135126713
H   H13       1.0  0.84450  0.27420  0.38460  1.0000 0.149117188
H   H14       1.0  0.15550  0.72580  0.61540  1.0000 0.149117188
C   C1        1.0  0.07640  0.75250  0.03330  1.0000 0.6181729499
C   C2        1.0  0.92360  0.24750  0.96670  1.0000 0.6181729499
C   C3        1.0  0.11150  0.90630  0.08950  1.0000 -0.0267674581
C   C4        1.0  0.88850  0.09370  0.91050  1.0000 -0.0267674581
C   C5        1.0  0.24730  0.01840  0.07780  1.0000 -0.1124041353
C   C6        1.0  0.75270  0.98160  0.92220  1.0000 -0.1124041353
C   C7        1.0  0.27730  0.16180  0.12560  1.0000 -0.0143318691
C   C8        1.0  0.72270  0.83820  0.87440  1.0000 -0.0143318691
C   C9        1.0  0.17580  0.19140  0.19010  1.0000 -0.2180368093
C   C10       1.0  0.82420  0.80860  0.80990  1.0000 -0.2180368093
C   C11       1.0  0.04600  0.07850  0.20870  1.0000 0.227756283
C   C12       1.0  0.95400  0.92150  0.79130  1.0000 0.227756283
C   C13       1.0  0.01030  0.93580  0.15500  1.0000 -0.1917195406
C   C14       1.0  0.98970  0.06420  0.84500  1.0000 -0.1917195406
C   C15       1.0  0.41910  0.28290  0.10310  1.0000 0.6050720278
C   C16       1.0  0.58090  0.71710  0.89690  1.0000 0.6045865479
C   C17       1.0  0.00290  0.17820  0.38870  1.0000 0.2511870924
C   C18       1.0  0.99710  0.82180  0.61130  1.0000 0.2511870924
C   C19       1.0  0.12980  0.16230  0.46080  1.0000 -0.2131071326
C   C20       1.0  0.87020  0.83770  0.53920  1.0000 -0.2131071326
C   C21       1.0  0.18390  0.23660  0.57270  1.0000 -0.0699861397
C   C22       1.0  0.81610  0.76340  0.42730  1.0000 -0.0699861397
C   C23       1.0  0.11570  0.32740  0.62150  1.0000 -0.0594988998
C   C24       1.0  0.88430  0.67260  0.37850  1.0000 -0.0594988998
C   C25       1.0  0.98610  0.33930  0.54840  1.0000 -0.0699861397
C   C26       1.0  0.01390  0.66070  0.45160  1.0000 -0.0699861397
C   C27       1.0  0.92980  0.26500  0.43190  1.0000 -0.2006973189
C   C28       1.0  0.07020  0.73500  0.56810  1.0000 -0.2006973189
C   C29       1.0  0.17650  0.41310  0.74080  1.0000 0.5302170578
C   C30       1.0  0.82350  0.58690  0.25920  1.0000 0.5302170578
O   O1        1.0  0.94580  0.65770  0.03190  1.0000 -0.5988027987
O   O2        1.0  0.05420  0.34230  0.96810  1.0000 -0.5988027987
O   O3        1.0  0.18200  0.72920  0.98870  1.0000 -0.5922331449
O   O4        1.0  0.81800  0.27080  0.01130  1.0000 -0.5922331449
O   O5        1.0  0.81070  0.45670  0.81920  1.0000 -0.1515431937
O   O6        1.0  0.18930  0.54330  0.18080  1.0000 -0.1515431937
O   O7        1.0  0.54710  0.26380  0.11000  1.0000 -0.5708828059
O   O8        1.0  0.45290  0.73620  0.89000  1.0000 -0.5708828059
O   O9        1.0  0.51200  0.28270  0.85600  1.0000 -0.1124041353
O   O10       1.0  0.48800  0.71730  0.14400  1.0000 -0.1124041353
O   O11       1.0  0.40630  0.39990  0.07400  1.0000 -0.6417244014
O   O12       1.0  0.59370  0.60010  0.92600  1.0000 -0.6417244014
O   O13       1.0  0.28460  0.39040  0.80840  1.0000 -0.5708828059
O   O14       1.0  0.71540  0.60960  0.19160  1.0000 -0.5708828059
O   O15       1.0  0.12330  0.50560  0.77830  1.0000 -0.5512477097
O   O16       1.0  0.87670  0.49440  0.22170  1.0000 -0.5512477097
O   O17       1.0  0.94270  0.10500  0.27430  1.0000 -0.2006973189
O   O18       1.0  0.05730  0.89500  0.72570  1.0000 -0.2006973189
