# DDEC6 charges by PACMAN v1.1 (https://github.com/mtap-research/PACMAN-charge/)
data_2011[Zn][nan]3[FSR]11
_chemical_formula_sum              "Zn24 H192 C432 N96 O192"
_cell_length_a       31.1162
_cell_length_b       31.1162
_cell_length_c       31.1162
_cell_angle_alpha    109.471
_cell_angle_beta     109.471
_cell_angle_gamma    109.471

_symmetry_space_group_name_H-M    "P 1"
_symmetry_Int_Tables_number       1

loop_
  _symmetry_equiv_pos_as_xyz
  'x, y, z'

loop_
  _atom_site_type_symbol
  _atom_site_label
  _atom_site_symmetry_multiplicity
  _atom_site_fract_x
  _atom_site_fract_y
  _atom_site_fract_z
  _atom_site_occupancy
  _atom_site_charge
Zn  Zn1       1.0  0.10961  0.75000  0.85961  1.0000 0.9324200736
Zn  Zn2       1.0  0.39039  0.25000  0.64039  1.0000 0.9324200736
Zn  Zn3       1.0  0.85961  0.10961  0.75000  1.0000 0.9324200736
Zn  Zn4       1.0  0.64039  0.39039  0.25000  1.0000 0.9324200736
Zn  Zn5       1.0  0.75000  0.85961  0.10961  1.0000 0.9324200736
Zn  Zn6       1.0  0.25000  0.64039  0.39039  1.0000 0.9324200736
Zn  Zn7       1.0  0.25000  0.10961  0.85961  1.0000 0.9324200736
Zn  Zn8       1.0  0.75000  0.39039  0.64039  1.0000 0.9324200736
Zn  Zn9       1.0  0.39039  0.64039  0.75000  1.0000 0.9324200736
Zn  Zn10      1.0  0.10961  0.85961  0.25000  1.0000 0.9324200736
Zn  Zn11      1.0  0.85961  0.25000  0.10961  1.0000 0.9324200736
Zn  Zn12      1.0  0.64039  0.75000  0.39039  1.0000 0.9324200736
Zn  Zn13      1.0  0.25000  0.74936  0.75064  1.0000 0.9158565636
Zn  Zn14      1.0  0.49872  0.49936  0.74936  1.0000 0.9158565636
Zn  Zn15      1.0  0.00128  0.75064  0.00064  1.0000 0.9158565636
Zn  Zn16      1.0  0.25000  0.00064  0.49936  1.0000 0.9158565636
Zn  Zn17      1.0  0.75064  0.25000  0.74936  1.0000 0.9158565636
Zn  Zn18      1.0  0.74936  0.49872  0.49936  1.0000 0.9158565636
Zn  Zn19      1.0  0.00064  0.00128  0.75064  1.0000 0.9158565636
Zn  Zn20      1.0  0.49936  0.25000  0.00064  1.0000 0.9158565636
Zn  Zn21      1.0  0.74936  0.75064  0.25000  1.0000 0.9158565636
Zn  Zn22      1.0  0.49936  0.74936  0.49872  1.0000 0.9158565636
Zn  Zn23      1.0  0.75064  0.00064  0.00128  1.0000 0.9158565636
Zn  Zn24      1.0  0.00064  0.49936  0.25000  1.0000 0.9158565636
H   H1        1.0  0.38210  0.96950  0.99740  1.0000 0.3162704767
H   H2        1.0  0.47210  0.38470  0.50260  1.0000 0.3162704767
H   H3        1.0  0.02790  0.53050  0.91260  1.0000 0.3162704767
H   H4        1.0  0.11790  0.11530  0.58740  1.0000 0.3162704767
H   H5        1.0  0.99740  0.38210  0.96950  1.0000 0.3162704767
H   H6        1.0  0.50260  0.47210  0.38470  1.0000 0.3162704767
H   H7        1.0  0.91260  0.02790  0.53050  1.0000 0.3162704767
H   H8        1.0  0.58740  0.11790  0.11530  1.0000 0.3162704767
H   H9        1.0  0.96950  0.99740  0.38210  1.0000 0.3162704767
H   H10       1.0  0.38470  0.50260  0.47210  1.0000 0.3162704767
H   H11       1.0  0.53050  0.91260  0.02790  1.0000 0.3162704767
H   H12       1.0  0.11530  0.58740  0.11790  1.0000 0.3162704767
H   H13       1.0  0.11530  0.02790  0.99740  1.0000 0.3162704767
H   H14       1.0  0.53050  0.11790  0.50260  1.0000 0.3162704767
H   H15       1.0  0.38470  0.38210  0.91260  1.0000 0.3162704767
H   H16       1.0  0.96950  0.47210  0.58740  1.0000 0.3162704767
H   H17       1.0  0.47210  0.58740  0.96950  1.0000 0.3162704767
H   H18       1.0  0.38210  0.91260  0.38470  1.0000 0.3162704767
H   H19       1.0  0.11790  0.50260  0.53050  1.0000 0.3162704767
H   H20       1.0  0.02790  0.99740  0.11530  1.0000 0.3162704767
H   H21       1.0  0.91260  0.38470  0.38210  1.0000 0.3162704767
H   H22       1.0  0.58740  0.96950  0.47210  1.0000 0.3162704767
H   H23       1.0  0.99740  0.11530  0.02790  1.0000 0.3162704767
H   H24       1.0  0.50260  0.53050  0.11790  1.0000 0.3162704767
H   H25       1.0  0.07850  0.88610  0.79900  1.0000 0.150854972
H   H26       1.0  0.58710  0.27950  0.70100  1.0000 0.150854972
H   H27       1.0  0.91290  0.61390  0.69240  1.0000 0.150854972
H   H28       1.0  0.42150  0.22050  0.80760  1.0000 0.150854972
H   H29       1.0  0.79900  0.07850  0.88610  1.0000 0.150854972
H   H30       1.0  0.70100  0.58710  0.27950  1.0000 0.150854972
H   H31       1.0  0.69240  0.91290  0.61390  1.0000 0.150854972
H   H32       1.0  0.80760  0.42150  0.22050  1.0000 0.150854972
H   H33       1.0  0.88610  0.79900  0.07850  1.0000 0.150854972
H   H34       1.0  0.27950  0.70100  0.58710  1.0000 0.150854972
H   H35       1.0  0.61390  0.69240  0.91290  1.0000 0.150854972
H   H36       1.0  0.22050  0.80760  0.42150  1.0000 0.150854972
H   H37       1.0  0.22050  0.91290  0.79900  1.0000 0.150854972
H   H38       1.0  0.61390  0.42150  0.70100  1.0000 0.150854972
H   H39       1.0  0.27950  0.07850  0.69240  1.0000 0.150854972
H   H40       1.0  0.88610  0.58710  0.80760  1.0000 0.150854972
H   H41       1.0  0.58710  0.80760  0.88610  1.0000 0.150854972
H   H42       1.0  0.07850  0.69240  0.27950  1.0000 0.150854972
H   H43       1.0  0.42150  0.70100  0.61390  1.0000 0.150854972
H   H44       1.0  0.91290  0.79900  0.22050  1.0000 0.150854972
H   H45       1.0  0.69240  0.27950  0.07850  1.0000 0.150854972
H   H46       1.0  0.80760  0.88610  0.58710  1.0000 0.150854972
H   H47       1.0  0.79900  0.22050  0.91290  1.0000 0.150854972
H   H48       1.0  0.70100  0.61390  0.42150  1.0000 0.150854972
H   H49       1.0  0.99430  0.87460  0.92550  1.0000 0.3105081443
H   H50       1.0  0.44910  0.06880  0.57450  1.0000 0.3105081443
H   H51       1.0  0.05090  0.62540  0.61970  1.0000 0.3105081443
H   H52       1.0  0.50570  0.43120  0.88030  1.0000 0.3105081443
H   H53       1.0  0.92550  0.99430  0.87460  1.0000 0.3105081443
H   H54       1.0  0.57450  0.44910  0.06880  1.0000 0.3105081443
H   H55       1.0  0.61970  0.05090  0.62540  1.0000 0.3105081443
H   H56       1.0  0.88030  0.50570  0.43120  1.0000 0.3105081443
H   H57       1.0  0.87460  0.92550  0.99430  1.0000 0.3105081443
H   H58       1.0  0.06880  0.57450  0.44910  1.0000 0.3105081443
H   H59       1.0  0.62540  0.61970  0.05090  1.0000 0.3105081443
H   H60       1.0  0.43120  0.88030  0.50570  1.0000 0.3105081443
H   H61       1.0  0.43120  0.05090  0.92550  1.0000 0.3105081443
H   H62       1.0  0.62540  0.50570  0.57450  1.0000 0.3105081443
H   H63       1.0  0.06880  0.99430  0.61970  1.0000 0.3105081443
H   H64       1.0  0.87460  0.44910  0.88030  1.0000 0.3105081443
H   H65       1.0  0.44910  0.88030  0.87460  1.0000 0.3105081443
H   H66       1.0  0.99430  0.61970  0.06880  1.0000 0.3105081443
H   H67       1.0  0.50570  0.57450  0.62540  1.0000 0.3105081443
H   H68       1.0  0.05090  0.92550  0.43120  1.0000 0.3105081443
H   H69       1.0  0.61970  0.06880  0.99430  1.0000 0.3105081443
H   H70       1.0  0.88030  0.87460  0.44910  1.0000 0.3105081443
H   H71       1.0  0.92550  0.43120  0.05090  1.0000 0.3105081443
H   H72       1.0  0.57450  0.62540  0.50570  1.0000 0.3105081443
H   H73       1.0  0.99550  0.93740  0.85110  1.0000 0.1391719577
H   H74       1.0  0.58630  0.14440  0.64890  1.0000 0.1391719577
H   H75       1.0  0.91370  0.56260  0.55810  1.0000 0.1391719577
H   H76       1.0  0.50450  0.35560  0.94190  1.0000 0.1391719577
H   H77       1.0  0.85110  0.99550  0.93740  1.0000 0.1282033084
H   H78       1.0  0.64890  0.58630  0.14440  1.0000 0.1391719577
H   H79       1.0  0.55810  0.91370  0.56260  1.0000 0.1391719577
H   H80       1.0  0.94190  0.50450  0.35560  1.0000 0.1391719577
H   H81       1.0  0.93740  0.85110  0.99550  1.0000 0.1391719577
H   H82       1.0  0.14440  0.64890  0.58630  1.0000 0.1391719577
H   H83       1.0  0.56260  0.55810  0.91370  1.0000 0.1391719577
H   H84       1.0  0.35560  0.94190  0.50450  1.0000 0.1391719577
H   H85       1.0  0.35560  0.91370  0.85110  1.0000 0.1391719577
H   H86       1.0  0.56260  0.50450  0.64890  1.0000 0.1391719577
H   H87       1.0  0.14440  0.99550  0.55810  1.0000 0.1391719577
H   H88       1.0  0.93740  0.58630  0.94190  1.0000 0.1391719577
H   H89       1.0  0.58630  0.94190  0.93740  1.0000 0.1391719577
H   H90       1.0  0.99550  0.55810  0.14440  1.0000 0.1391719577
H   H91       1.0  0.50450  0.64890  0.56260  1.0000 0.1391719577
H   H92       1.0  0.91370  0.85110  0.35560  1.0000 0.1391719577
H   H93       1.0  0.55810  0.14440  0.99550  1.0000 0.1391719577
H   H94       1.0  0.94190  0.93740  0.58630  1.0000 0.1391719577
H   H95       1.0  0.85110  0.35560  0.91370  1.0000 0.1391719577
H   H96       1.0  0.64890  0.56260  0.50450  1.0000 0.1391719577
H   H97       1.0  0.40040  0.87680  0.92280  1.0000 0.1282033084
H   H98       1.0  0.45400  0.47760  0.57720  1.0000 0.1282033084
H   H99       1.0  0.04600  0.62320  0.02360  1.0000 0.1282033084
H   H100      1.0  0.09960  0.02240  0.47640  1.0000 0.1282033084
H   H101      1.0  0.92280  0.40040  0.87680  1.0000 0.1282033084
H   H102      1.0  0.57720  0.45400  0.47760  1.0000 0.1282033084
H   H103      1.0  0.02360  0.04600  0.62320  1.0000 0.1282033084
H   H104      1.0  0.47640  0.09960  0.02240  1.0000 0.1282033084
H   H105      1.0  0.87680  0.92280  0.40040  1.0000 0.1282033084
H   H106      1.0  0.47760  0.57720  0.45400  1.0000 0.1282033084
H   H107      1.0  0.62320  0.02360  0.04600  1.0000 0.1282033084
H   H108      1.0  0.02240  0.47640  0.09960  1.0000 0.1282033084
H   H109      1.0  0.02240  0.04600  0.92280  1.0000 0.1282033084
H   H110      1.0  0.62320  0.09960  0.57720  1.0000 0.1282033084
H   H111      1.0  0.47760  0.40040  0.02360  1.0000 0.1282033084
H   H112      1.0  0.87680  0.45400  0.47640  1.0000 0.1282033084
H   H113      1.0  0.45400  0.47640  0.87680  1.0000 0.1282033084
H   H114      1.0  0.40040  0.02360  0.47760  1.0000 0.1282033084
H   H115      1.0  0.09960  0.57720  0.62320  1.0000 0.1282033084
H   H116      1.0  0.04600  0.92280  0.02240  1.0000 0.1282033084
H   H117      1.0  0.02360  0.47760  0.40040  1.0000 0.1282033084
H   H118      1.0  0.47640  0.87680  0.45400  1.0000 0.1282033084
H   H119      1.0  0.92280  0.02240  0.04600  1.0000 0.1282033084
H   H120      1.0  0.57720  0.62320  0.09960  1.0000 0.1282033084
H   H121      1.0  0.30300  0.89910  0.97090  1.0000 0.1391719577
H   H122      1.0  0.42820  0.33210  0.52910  1.0000 0.1391719577
H   H123      1.0  0.07180  0.60090  0.90390  1.0000 0.1391719577
H   H124      1.0  0.19700  0.16790  0.59610  1.0000 0.1391719577
H   H125      1.0  0.97090  0.30300  0.89910  1.0000 0.1391719577
H   H126      1.0  0.52910  0.42820  0.33210  1.0000 0.1391719577
H   H127      1.0  0.90390  0.07180  0.60090  1.0000 0.1391719577
H   H128      1.0  0.59610  0.19700  0.16790  1.0000 0.1391719577
H   H129      1.0  0.89910  0.97090  0.30300  1.0000 0.1391719577
H   H130      1.0  0.33210  0.52910  0.42820  1.0000 0.1391719577
H   H131      1.0  0.60090  0.90390  0.07180  1.0000 0.1391719577
H   H132      1.0  0.16790  0.59610  0.19700  1.0000 0.1391719577
H   H133      1.0  0.16790  0.07180  0.97090  1.0000 0.1391719577
H   H134      1.0  0.60090  0.19700  0.52910  1.0000 0.1391719577
H   H135      1.0  0.33210  0.30300  0.90390  1.0000 0.1391719577
H   H136      1.0  0.89910  0.42820  0.59610  1.0000 0.1391719577
H   H137      1.0  0.42820  0.59610  0.89910  1.0000 0.1391719577
H   H138      1.0  0.30300  0.90390  0.33210  1.0000 0.1391719577
H   H139      1.0  0.19700  0.52910  0.60090  1.0000 0.1391719577
H   H140      1.0  0.07180  0.97090  0.16790  1.0000 0.1391719577
H   H141      1.0  0.90390  0.33210  0.30300  1.0000 0.1391719577
H   H142      1.0  0.59610  0.89910  0.42820  1.0000 0.1391719577
H   H143      1.0  0.97090  0.16790  0.07180  1.0000 0.1391719577
H   H144      1.0  0.52910  0.60090  0.19700  1.0000 0.1391719577
H   H145      1.0  0.03680  0.84410  0.89310  1.0000 0.150854972
H   H146      1.0  0.45100  0.14370  0.60690  1.0000 0.150854972
H   H147      1.0  0.04900  0.65590  0.69270  1.0000 0.150854972
H   H148      1.0  0.46320  0.35630  0.80730  1.0000 0.150854972
H   H149      1.0  0.89310  0.03680  0.84410  1.0000 0.150854972
H   H150      1.0  0.60690  0.45100  0.14370  1.0000 0.150854972
H   H151      1.0  0.69270  0.04900  0.65590  1.0000 0.150854972
H   H152      1.0  0.80730  0.46320  0.35630  1.0000 0.150854972
H   H153      1.0  0.84410  0.89310  0.03680  1.0000 0.150854972
H   H154      1.0  0.14370  0.60690  0.45100  1.0000 0.150854972
H   H155      1.0  0.65590  0.69270  0.04900  1.0000 0.150854972
H   H156      1.0  0.35630  0.80730  0.46320  1.0000 0.150854972
H   H157      1.0  0.35630  0.04900  0.89310  1.0000 0.150854972
H   H158      1.0  0.65590  0.46320  0.60690  1.0000 0.150854972
H   H159      1.0  0.14370  0.03680  0.69270  1.0000 0.150854972
H   H160      1.0  0.84410  0.45100  0.80730  1.0000 0.150854972
H   H161      1.0  0.45100  0.80730  0.84410  1.0000 0.150854972
H   H162      1.0  0.03680  0.69270  0.14370  1.0000 0.150854972
H   H163      1.0  0.46320  0.60690  0.65590  1.0000 0.150854972
H   H164      1.0  0.04900  0.89310  0.35630  1.0000 0.150854972
H   H165      1.0  0.69270  0.14370  0.03680  1.0000 0.150854972
H   H166      1.0  0.80730  0.84410  0.45100  1.0000 0.150854972
H   H167      1.0  0.89310  0.35630  0.04900  1.0000 0.150854972
H   H168      1.0  0.60690  0.65590  0.46320  1.0000 0.150854972
H   H169      1.0  0.25100  0.76540  0.84620  1.0000 0.1391719577
H   H170      1.0  0.41920  0.40480  0.65380  1.0000 0.1391719577
H   H171      1.0  0.08080  0.73460  0.98560  1.0000 0.1391719577
H   H172      1.0  0.24900  0.09520  0.51440  1.0000 0.1391719577
H   H173      1.0  0.84620  0.25100  0.76540  1.0000 0.1391719577
H   H174      1.0  0.65380  0.41920  0.40480  1.0000 0.1391719577
H   H175      1.0  0.98560  0.08080  0.73460  1.0000 0.1391719577
H   H176      1.0  0.51440  0.24900  0.09520  1.0000 0.1391719577
H   H177      1.0  0.76540  0.84620  0.25100  1.0000 0.1391719577
H   H178      1.0  0.40480  0.65380  0.41920  1.0000 0.1391719577
H   H179      1.0  0.73460  0.98560  0.08080  1.0000 0.1391719577
H   H180      1.0  0.09520  0.51440  0.24900  1.0000 0.1391719577
H   H181      1.0  0.09520  0.08080  0.84620  1.0000 0.1391719577
H   H182      1.0  0.73460  0.24900  0.65380  1.0000 0.1391719577
H   H183      1.0  0.40480  0.25100  0.98560  1.0000 0.1391719577
H   H184      1.0  0.76540  0.41920  0.51440  1.0000 0.1391719577
H   H185      1.0  0.41920  0.51440  0.76540  1.0000 0.1391719577
H   H186      1.0  0.25100  0.98560  0.40480  1.0000 0.1391719577
H   H187      1.0  0.24900  0.65380  0.73460  1.0000 0.1391719577
H   H188      1.0  0.08080  0.84620  0.09520  1.0000 0.1391719577
H   H189      1.0  0.98560  0.40480  0.25100  1.0000 0.1391719577
H   H190      1.0  0.51440  0.76540  0.41920  1.0000 0.1391719577
H   H191      1.0  0.84620  0.09520  0.08080  1.0000 0.1391719577
H   H192      1.0  0.65380  0.73460  0.24900  1.0000 0.1391719577
C   C1        1.0  0.01231  0.89123  0.87866  1.0000 0.2244918172
C   C2        1.0  0.51257  0.13365  0.62134  1.0000 0.2244918172
C   C3        1.0  0.98743  0.60877  0.62108  1.0000 0.2244918172
C   C4        1.0  0.48769  0.36635  0.87892  1.0000 0.2244918172
C   C5        1.0  0.87866  0.01231  0.89123  1.0000 0.2244918172
C   C6        1.0  0.62134  0.51257  0.13365  1.0000 0.2244918172
C   C7        1.0  0.62108  0.98743  0.60877  1.0000 0.2244918172
C   C8        1.0  0.87892  0.48769  0.36635  1.0000 0.2244918172
C   C9        1.0  0.89123  0.87866  0.01231  1.0000 0.2244918172
C   C10       1.0  0.13365  0.62134  0.51257  1.0000 0.2244918172
C   C11       1.0  0.60877  0.62108  0.98743  1.0000 0.2244918172
C   C12       1.0  0.36635  0.87892  0.48769  1.0000 0.2244918172
C   C13       1.0  0.36635  0.98743  0.87866  1.0000 0.2244918172
C   C14       1.0  0.60877  0.48769  0.62134  1.0000 0.2244918172
C   C15       1.0  0.13365  0.01231  0.62108  1.0000 0.2244918172
C   C16       1.0  0.89123  0.51257  0.87892  1.0000 0.2244918172
C   C17       1.0  0.51257  0.87892  0.89123  1.0000 0.2244918172
C   C18       1.0  0.01231  0.62108  0.13365  1.0000 0.2244918172
C   C19       1.0  0.48769  0.62134  0.60877  1.0000 0.2244918172
C   C20       1.0  0.98743  0.87866  0.36635  1.0000 0.2244918172
C   C21       1.0  0.62108  0.13365  0.01231  1.0000 0.2244918172
C   C22       1.0  0.87892  0.89123  0.51257  1.0000 0.2244918172
C   C23       1.0  0.87866  0.36635  0.98743  1.0000 0.2244918172
C   C24       1.0  0.62134  0.60877  0.48769  1.0000 0.2244918172
C   C25       1.0  0.06199  0.88728  0.81899  1.0000 -0.0923973498
C   C26       1.0  0.56829  0.24300  0.68101  1.0000 -0.0923973498
C   C27       1.0  0.93171  0.61272  0.67471  1.0000 -0.0923973498
C   C28       1.0  0.43801  0.25700  0.82529  1.0000 -0.0923973498
C   C29       1.0  0.81899  0.06199  0.88728  1.0000 -0.0923973498
C   C30       1.0  0.68101  0.56829  0.24300  1.0000 -0.0923973498
C   C31       1.0  0.67471  0.93171  0.61272  1.0000 -0.0923973498
C   C32       1.0  0.82529  0.43801  0.25700  1.0000 -0.0923973498
C   C33       1.0  0.88728  0.81899  0.06199  1.0000 -0.0923973498
C   C34       1.0  0.24300  0.68101  0.56829  1.0000 -0.0923973498
C   C35       1.0  0.61272  0.67471  0.93171  1.0000 -0.0923973498
C   C36       1.0  0.25700  0.82529  0.43801  1.0000 -0.0923973498
C   C37       1.0  0.25700  0.93171  0.81899  1.0000 -0.0923973498
C   C38       1.0  0.61272  0.43801  0.68101  1.0000 -0.0923973498
C   C39       1.0  0.24300  0.06199  0.67471  1.0000 -0.0923973498
C   C40       1.0  0.88728  0.56829  0.82529  1.0000 -0.0923973498
C   C41       1.0  0.56829  0.82529  0.88728  1.0000 -0.0923973498
C   C42       1.0  0.06199  0.67471  0.24300  1.0000 -0.0923973498
C   C43       1.0  0.43801  0.68101  0.61272  1.0000 -0.0923973498
C   C44       1.0  0.93171  0.81899  0.25700  1.0000 -0.0923973498
C   C45       1.0  0.67471  0.24300  0.06199  1.0000 -0.0923973498
C   C46       1.0  0.82529  0.88728  0.56829  1.0000 -0.0923973498
C   C47       1.0  0.81899  0.25700  0.93171  1.0000 -0.0923973498
C   C48       1.0  0.68101  0.61272  0.43801  1.0000 -0.0923973498
C   C49       1.0  0.08553  0.82347  0.84252  1.0000 0.5280743352
C   C50       1.0  0.48095  0.24301  0.65748  1.0000 0.5280743352
C   C51       1.0  0.01905  0.67653  0.76206  1.0000 0.5280743352
C   C52       1.0  0.41447  0.25699  0.73794  1.0000 0.5280743352
C   C53       1.0  0.84252  0.08553  0.82347  1.0000 0.5280743352
C   C54       1.0  0.65748  0.48095  0.24301  1.0000 0.5280743352
C   C55       1.0  0.76206  0.01905  0.67653  1.0000 0.5280743352
C   C56       1.0  0.73794  0.41447  0.25699  1.0000 0.5280743352
C   C57       1.0  0.82347  0.84252  0.08553  1.0000 0.5280743352
C   C58       1.0  0.24301  0.65748  0.48095  1.0000 0.5280743352
C   C59       1.0  0.67653  0.76206  0.01905  1.0000 0.5280743352
C   C60       1.0  0.25699  0.73794  0.41447  1.0000 0.5280743352
C   C61       1.0  0.25699  0.01905  0.84252  1.0000 0.5280743352
C   C62       1.0  0.67653  0.41447  0.65748  1.0000 0.5280743352
C   C63       1.0  0.24301  0.08553  0.76206  1.0000 0.5280743352
C   C64       1.0  0.82347  0.48095  0.73794  1.0000 0.5280743352
C   C65       1.0  0.48095  0.73794  0.82347  1.0000 0.5280743352
C   C66       1.0  0.08553  0.76206  0.24301  1.0000 0.5280743352
C   C67       1.0  0.41447  0.65748  0.67653  1.0000 0.5280743352
C   C68       1.0  0.01905  0.84252  0.25699  1.0000 0.5280743352
C   C69       1.0  0.76206  0.24301  0.08553  1.0000 0.5280743352
C   C70       1.0  0.73794  0.82347  0.48095  1.0000 0.5280743352
C   C71       1.0  0.84252  0.25699  0.01905  1.0000 0.5280743352
C   C72       1.0  0.65748  0.67653  0.41447  1.0000 0.5280743352
C   C73       1.0  0.44808  0.97482  0.01404  1.0000 0.5515191082
C   C74       1.0  0.46078  0.43404  0.48596  1.0000 0.5515191082
C   C75       1.0  0.03922  0.52518  0.97326  1.0000 0.5515191082
C   C76       1.0  0.05192  0.06596  0.52674  1.0000 0.5515191082
C   C77       1.0  0.01404  0.44808  0.97482  1.0000 0.5515191082
C   C78       1.0  0.48596  0.46078  0.43404  1.0000 0.5515191082
C   C79       1.0  0.97326  0.03922  0.52518  1.0000 0.5515191082
C   C80       1.0  0.52674  0.05192  0.06596  1.0000 0.5515191082
C   C81       1.0  0.97482  0.01404  0.44808  1.0000 0.5515191082
C   C82       1.0  0.43404  0.48596  0.46078  1.0000 0.5515191082
C   C83       1.0  0.52518  0.97326  0.03922  1.0000 0.5515191082
C   C84       1.0  0.06596  0.52674  0.05192  1.0000 0.5515191082
C   C85       1.0  0.06596  0.03922  0.01404  1.0000 0.5515191082
C   C86       1.0  0.52518  0.05192  0.48596  1.0000 0.5515191082
C   C87       1.0  0.43404  0.44808  0.97326  1.0000 0.5515191082
C   C88       1.0  0.97482  0.46078  0.52674  1.0000 0.5515191082
C   C89       1.0  0.46078  0.52674  0.97482  1.0000 0.5515191082
C   C90       1.0  0.44808  0.97326  0.43404  1.0000 0.5515191082
C   C91       1.0  0.05192  0.48596  0.52518  1.0000 0.5515191082
C   C92       1.0  0.03922  0.01404  0.06596  1.0000 0.5515191082
C   C93       1.0  0.97326  0.43404  0.44808  1.0000 0.5515191082
C   C94       1.0  0.52674  0.97482  0.46078  1.0000 0.5515191082
C   C95       1.0  0.01404  0.06596  0.03922  1.0000 0.5515191082
C   C96       1.0  0.48596  0.52518  0.05192  1.0000 0.5515191082
C   C97       1.0  0.01269  0.91801  0.85062  1.0000 -0.1864920446
C   C98       1.0  0.56739  0.16207  0.64938  1.0000 -0.1864920446
C   C99       1.0  0.93261  0.58199  0.59468  1.0000 -0.1864920446
C   C100      1.0  0.48731  0.33793  0.90532  1.0000 -0.1864920446
C   C101      1.0  0.85062  0.01269  0.91801  1.0000 -0.1864920446
C   C102      1.0  0.64938  0.56739  0.16207  1.0000 -0.1864920446
C   C103      1.0  0.59468  0.93261  0.58199  1.0000 -0.1864920446
C   C104      1.0  0.90532  0.48731  0.33793  1.0000 -0.1864920446
C   C105      1.0  0.91801  0.85062  0.01269  1.0000 -0.1864920446
C   C106      1.0  0.16207  0.64938  0.56739  1.0000 -0.1864920446
C   C107      1.0  0.58199  0.59468  0.93261  1.0000 -0.1864920446
C   C108      1.0  0.33793  0.90532  0.48731  1.0000 -0.1864920446
C   C109      1.0  0.33793  0.93261  0.85062  1.0000 -0.1864920446
C   C110      1.0  0.58199  0.48731  0.64938  1.0000 -0.1864920446
C   C111      1.0  0.16207  0.01269  0.59468  1.0000 -0.1864920446
C   C112      1.0  0.91801  0.56739  0.90532  1.0000 -0.1864920446
C   C113      1.0  0.56739  0.90532  0.91801  1.0000 -0.1864920446
C   C114      1.0  0.01269  0.59468  0.16207  1.0000 -0.1864920446
C   C115      1.0  0.48731  0.64938  0.58199  1.0000 -0.1864920446
C   C116      1.0  0.93261  0.85062  0.33793  1.0000 -0.1864920446
C   C117      1.0  0.59468  0.16207  0.01269  1.0000 -0.1864920446
C   C118      1.0  0.90532  0.91801  0.56739  1.0000 -0.1864920446
C   C119      1.0  0.85062  0.33793  0.93261  1.0000 -0.1864920446
C   C120      1.0  0.64938  0.58199  0.48731  1.0000 -0.1864920446
C   C121      1.0  0.36706  0.86445  0.91923  1.0000 -0.1804959241
C   C122      1.0  0.44522  0.44783  0.58077  1.0000 -0.1804959241
C   C123      1.0  0.05478  0.63555  0.00261  1.0000 -0.1804959241
C   C124      1.0  0.13294  0.05217  0.49739  1.0000 -0.1804959241
C   C125      1.0  0.91923  0.36706  0.86445  1.0000 -0.1804959241
C   C126      1.0  0.58077  0.44522  0.44783  1.0000 -0.1804959241
C   C127      1.0  0.00261  0.05478  0.63555  1.0000 -0.1804959241
C   C128      1.0  0.49739  0.13294  0.05217  1.0000 -0.1804959241
C   C129      1.0  0.86445  0.91923  0.36706  1.0000 -0.1804959241
C   C130      1.0  0.44783  0.58077  0.44522  1.0000 -0.1804959241
C   C131      1.0  0.63555  0.00261  0.05478  1.0000 -0.1804959241
C   C132      1.0  0.05217  0.49739  0.13294  1.0000 -0.1804959241
C   C133      1.0  0.05217  0.05478  0.91923  1.0000 -0.1804959241
C   C134      1.0  0.63555  0.13294  0.58077  1.0000 -0.1804959241
C   C135      1.0  0.44783  0.36706  0.00261  1.0000 -0.1804959241
C   C136      1.0  0.86445  0.44522  0.49739  1.0000 -0.1804959241
C   C137      1.0  0.44522  0.49739  0.86445  1.0000 -0.1804959241
C   C138      1.0  0.36706  0.00261  0.44783  1.0000 -0.1804959241
C   C139      1.0  0.13294  0.58077  0.63555  1.0000 -0.1804959241
C   C140      1.0  0.05478  0.91923  0.05217  1.0000 -0.1804959241
C   C141      1.0  0.00261  0.44783  0.36706  1.0000 -0.1804959241
C   C142      1.0  0.49739  0.86445  0.44522  1.0000 -0.1804959241
C   C143      1.0  0.91923  0.05217  0.05478  1.0000 -0.1804959241
C   C144      1.0  0.58077  0.63555  0.13294  1.0000 -0.1804959241
C   C145      1.0  0.35890  0.89817  0.95267  1.0000 0.2295148918
C   C146      1.0  0.44550  0.40623  0.54733  1.0000 0.2295148918
C   C147      1.0  0.05450  0.60183  0.96073  1.0000 0.2295148918
C   C148      1.0  0.14110  0.09377  0.53927  1.0000 0.2295148918
C   C149      1.0  0.95267  0.35890  0.89817  1.0000 0.2295148918
C   C150      1.0  0.54733  0.44550  0.40623  1.0000 0.2295148918
C   C151      1.0  0.96073  0.05450  0.60183  1.0000 0.2295148918
C   C152      1.0  0.53927  0.14110  0.09377  1.0000 0.2295148918
C   C153      1.0  0.89817  0.95267  0.35890  1.0000 0.2295148918
C   C154      1.0  0.40623  0.54733  0.44550  1.0000 0.2295148918
C   C155      1.0  0.60183  0.96073  0.05450  1.0000 0.2295148918
C   C156      1.0  0.09377  0.53927  0.14110  1.0000 0.2295148918
C   C157      1.0  0.09377  0.05450  0.95267  1.0000 0.2295148918
C   C158      1.0  0.60183  0.14110  0.54733  1.0000 0.2295148918
C   C159      1.0  0.40623  0.35890  0.96073  1.0000 0.2295148918
C   C160      1.0  0.89817  0.44550  0.53927  1.0000 0.2295148918
C   C161      1.0  0.44550  0.53927  0.89817  1.0000 0.2295148918
C   C162      1.0  0.35890  0.96073  0.40623  1.0000 0.2295148918
C   C163      1.0  0.14110  0.54733  0.60183  1.0000 0.2295148918
C   C164      1.0  0.05450  0.95267  0.09377  1.0000 0.2295148918
C   C165      1.0  0.96073  0.40623  0.35890  1.0000 0.2295148918
C   C166      1.0  0.53927  0.89817  0.44550  1.0000 0.2295148918
C   C167      1.0  0.95267  0.09377  0.05450  1.0000 0.2295148918
C   C168      1.0  0.54733  0.60183  0.14110  1.0000 0.2295148918
C   C169      1.0  0.03893  0.91592  0.82183  1.0000 0.0163491837
C   C170      1.0  0.59409  0.21710  0.67817  1.0000 0.0163491837
C   C171      1.0  0.90591  0.58408  0.62301  1.0000 0.0163491837
C   C172      1.0  0.46107  0.28290  0.87699  1.0000 0.0163491837
C   C173      1.0  0.82183  0.03893  0.91592  1.0000 0.0163491837
C   C174      1.0  0.67817  0.59409  0.21710  1.0000 0.0163491837
C   C175      1.0  0.62301  0.90591  0.58408  1.0000 0.0163491837
C   C176      1.0  0.87699  0.46107  0.28290  1.0000 0.0163491837
C   C177      1.0  0.91592  0.82183  0.03893  1.0000 0.0163491837
C   C178      1.0  0.21710  0.67817  0.59409  1.0000 0.0163491837
C   C179      1.0  0.58408  0.62301  0.90591  1.0000 0.0163491837
C   C180      1.0  0.28290  0.87699  0.46107  1.0000 0.0163491837
C   C181      1.0  0.28290  0.90591  0.82183  1.0000 0.0163491837
C   C182      1.0  0.58408  0.46107  0.67817  1.0000 0.0163491837
C   C183      1.0  0.21710  0.03893  0.62301  1.0000 0.0163491837
C   C184      1.0  0.91592  0.59409  0.87699  1.0000 0.0163491837
C   C185      1.0  0.59409  0.87699  0.91592  1.0000 0.0163491837
C   C186      1.0  0.03893  0.62301  0.21710  1.0000 0.0163491837
C   C187      1.0  0.46107  0.67817  0.58408  1.0000 0.0163491837
C   C188      1.0  0.90591  0.82183  0.28290  1.0000 0.0163491837
C   C189      1.0  0.62301  0.21710  0.03893  1.0000 0.0163491837
C   C190      1.0  0.87699  0.91592  0.59409  1.0000 0.0163491837
C   C191      1.0  0.82183  0.28290  0.90591  1.0000 0.0163491837
C   C192      1.0  0.67817  0.58408  0.46107  1.0000 0.0163491837
C   C193      1.0  0.30932  0.87794  0.94748  1.0000 -0.1723517578
C   C194      1.0  0.43046  0.36184  0.55252  1.0000 -0.1723517578
C   C195      1.0  0.06954  0.62206  0.93138  1.0000 -0.1723517578
C   C196      1.0  0.19068  0.13816  0.56862  1.0000 -0.1723517578
C   C197      1.0  0.94748  0.30932  0.87794  1.0000 -0.1723517578
C   C198      1.0  0.55252  0.43046  0.36184  1.0000 -0.1723517578
C   C199      1.0  0.93138  0.06954  0.62206  1.0000 -0.1723517578
C   C200      1.0  0.56862  0.19068  0.13816  1.0000 -0.1723517578
C   C201      1.0  0.87794  0.94748  0.30932  1.0000 -0.1723517578
C   C202      1.0  0.36184  0.55252  0.43046  1.0000 -0.1723517578
C   C203      1.0  0.62206  0.93138  0.06954  1.0000 -0.1723517578
C   C204      1.0  0.13816  0.56862  0.19068  1.0000 -0.1723517578
C   C205      1.0  0.13816  0.06954  0.94748  1.0000 -0.1723517578
C   C206      1.0  0.62206  0.19068  0.55252  1.0000 -0.1723517578
C   C207      1.0  0.36184  0.30932  0.93138  1.0000 -0.1723517578
C   C208      1.0  0.87794  0.43046  0.56862  1.0000 -0.1723517578
C   C209      1.0  0.43046  0.56862  0.87794  1.0000 -0.1723517578
C   C210      1.0  0.30932  0.93138  0.36184  1.0000 -0.1723517578
C   C211      1.0  0.19068  0.55252  0.62206  1.0000 -0.1723517578
C   C212      1.0  0.06954  0.94748  0.13816  1.0000 -0.1723517578
C   C213      1.0  0.93138  0.36184  0.30932  1.0000 -0.1723517578
C   C214      1.0  0.56862  0.87794  0.43046  1.0000 -0.1723517578
C   C215      1.0  0.94748  0.13816  0.06954  1.0000 -0.1723517578
C   C216      1.0  0.55252  0.62206  0.19068  1.0000 -0.1723517578
C   C217      1.0  0.03692  0.86246  0.87482  1.0000 -0.1864920446
C   C218      1.0  0.48764  0.16210  0.62518  1.0000 -0.1864920446
C   C219      1.0  0.01236  0.63754  0.67446  1.0000 -0.1864920446
C   C220      1.0  0.46308  0.33790  0.82554  1.0000 -0.1864920446
C   C221      1.0  0.87482  0.03692  0.86246  1.0000 -0.1864920446
C   C222      1.0  0.62518  0.48764  0.16210  1.0000 -0.1864920446
C   C223      1.0  0.67446  0.01236  0.63754  1.0000 -0.1864920446
C   C224      1.0  0.82554  0.46308  0.33790  1.0000 -0.1864920446
C   C225      1.0  0.86246  0.87482  0.03692  1.0000 -0.1864920446
C   C226      1.0  0.16210  0.62518  0.48764  1.0000 -0.1864920446
C   C227      1.0  0.63754  0.67446  0.01236  1.0000 -0.1864920446
C   C228      1.0  0.33790  0.82554  0.46308  1.0000 -0.1864920446
C   C229      1.0  0.33790  0.01236  0.87482  1.0000 -0.1864920446
C   C230      1.0  0.63754  0.46308  0.62518  1.0000 -0.1864920446
C   C231      1.0  0.16210  0.03692  0.67446  1.0000 -0.1864920446
C   C232      1.0  0.86246  0.48764  0.82554  1.0000 -0.1864920446
C   C233      1.0  0.48764  0.82554  0.86246  1.0000 -0.1864920446
C   C234      1.0  0.03692  0.67446  0.16210  1.0000 -0.1864920446
C   C235      1.0  0.46308  0.62518  0.63754  1.0000 -0.1864920446
C   C236      1.0  0.01236  0.87482  0.33790  1.0000 -0.1864920446
C   C237      1.0  0.67446  0.16210  0.03692  1.0000 -0.1864920446
C   C238      1.0  0.82554  0.86246  0.48764  1.0000 -0.1864920446
C   C239      1.0  0.87482  0.33790  0.01236  1.0000 -0.1864920446
C   C240      1.0  0.62518  0.63754  0.46308  1.0000 -0.1864920446
C   C241      1.0  0.32992  0.81475  0.88161  1.0000 0.0024302619
C   C242      1.0  0.43314  0.44831  0.61839  1.0000 0.0024302619
C   C243      1.0  0.06686  0.68525  0.01517  1.0000 0.0024302619
C   C244      1.0  0.17008  0.05169  0.48483  1.0000 0.0024302619
C   C245      1.0  0.88161  0.32992  0.81475  1.0000 0.0024302619
C   C246      1.0  0.61839  0.43314  0.44831  1.0000 0.0024302619
C   C247      1.0  0.01517  0.06686  0.68525  1.0000 0.0024302619
C   C248      1.0  0.48483  0.17008  0.05169  1.0000 0.0024302619
C   C249      1.0  0.81475  0.88161  0.32992  1.0000 0.0024302619
C   C250      1.0  0.44831  0.61839  0.43314  1.0000 0.0024302619
C   C251      1.0  0.68525  0.01517  0.06686  1.0000 0.0024302619
C   C252      1.0  0.05169  0.48483  0.17008  1.0000 0.0024302619
C   C253      1.0  0.05169  0.06686  0.88161  1.0000 0.0024302619
C   C254      1.0  0.68525  0.17008  0.61839  1.0000 0.0024302619
C   C255      1.0  0.44831  0.32992  0.01517  1.0000 0.0024302619
C   C256      1.0  0.81475  0.43314  0.48483  1.0000 0.0024302619
C   C257      1.0  0.43314  0.48483  0.81475  1.0000 0.0024302619
C   C258      1.0  0.32992  0.01517  0.44831  1.0000 0.0024302619
C   C259      1.0  0.17008  0.61839  0.68525  1.0000 0.0024302619
C   C260      1.0  0.06686  0.88161  0.05169  1.0000 0.0024302619
C   C261      1.0  0.01517  0.44831  0.32992  1.0000 0.0024302619
C   C262      1.0  0.48483  0.81475  0.43314  1.0000 0.0024302619
C   C263      1.0  0.88161  0.05169  0.06686  1.0000 0.0024302619
C   C264      1.0  0.61839  0.68525  0.17008  1.0000 0.0024302619
C   C265      1.0  0.27855  0.79787  0.87490  1.0000 -0.0923973498
C   C266      1.0  0.42297  0.40365  0.62510  1.0000 -0.0923973498
C   C267      1.0  0.07703  0.70213  0.98068  1.0000 -0.0923973498
C   C268      1.0  0.22145  0.09635  0.51932  1.0000 -0.0923973498
C   C269      1.0  0.87490  0.27855  0.79787  1.0000 -0.0923973498
C   C270      1.0  0.62510  0.42297  0.40365  1.0000 -0.0923973498
C   C271      1.0  0.98068  0.07703  0.70213  1.0000 -0.0923973498
C   C272      1.0  0.51932  0.22145  0.09635  1.0000 -0.0923973498
C   C273      1.0  0.79787  0.87490  0.27855  1.0000 -0.0923973498
C   C274      1.0  0.40365  0.62510  0.42297  1.0000 -0.0923973498
C   C275      1.0  0.70213  0.98068  0.07703  1.0000 -0.0923973498
C   C276      1.0  0.09635  0.51932  0.22145  1.0000 -0.0923973498
C   C277      1.0  0.09635  0.07703  0.87490  1.0000 -0.0923973498
C   C278      1.0  0.70213  0.22145  0.62510  1.0000 -0.0923973498
C   C279      1.0  0.40365  0.27855  0.98068  1.0000 -0.0923973498
C   C280      1.0  0.79787  0.42297  0.51932  1.0000 -0.0923973498
C   C281      1.0  0.42297  0.51932  0.79787  1.0000 -0.0923973498
C   C282      1.0  0.27855  0.98068  0.40365  1.0000 -0.0923973498
C   C283      1.0  0.22145  0.62510  0.70213  1.0000 -0.0923973498
C   C284      1.0  0.07703  0.87490  0.09635  1.0000 -0.0923973498
C   C285      1.0  0.98068  0.40365  0.27855  1.0000 -0.0923973498
C   C286      1.0  0.51932  0.79787  0.42297  1.0000 -0.0923973498
C   C287      1.0  0.87490  0.09635  0.07703  1.0000 -0.0923973498
C   C288      1.0  0.62510  0.70213  0.22145  1.0000 -0.0923973498
C   C289      1.0  0.26851  0.82709  0.90850  1.0000 0.0024302619
C   C290      1.0  0.41859  0.36001  0.59150  1.0000 0.0024302619
C   C291      1.0  0.08141  0.67291  0.94142  1.0000 0.0024302619
C   C292      1.0  0.23149  0.13999  0.55858  1.0000 0.0024302619
C   C293      1.0  0.90850  0.26851  0.82709  1.0000 0.0024302619
C   C294      1.0  0.59150  0.41859  0.36001  1.0000 0.0024302619
C   C295      1.0  0.94142  0.08141  0.67291  1.0000 0.0024302619
C   C296      1.0  0.55858  0.23149  0.13999  1.0000 0.0024302619
C   C297      1.0  0.82709  0.90850  0.26851  1.0000 0.0024302619
C   C298      1.0  0.36001  0.59150  0.41859  1.0000 0.0024302619
C   C299      1.0  0.67291  0.94142  0.08141  1.0000 0.0024302619
C   C300      1.0  0.13999  0.55858  0.23149  1.0000 0.0024302619
C   C301      1.0  0.13999  0.08141  0.90850  1.0000 0.0024302619
C   C302      1.0  0.67291  0.23149  0.59150  1.0000 0.0024302619
C   C303      1.0  0.36001  0.26851  0.94142  1.0000 0.0024302619
C   C304      1.0  0.82709  0.41859  0.55858  1.0000 0.0024302619
C   C305      1.0  0.41859  0.55858  0.82709  1.0000 0.0024302619
C   C306      1.0  0.26851  0.94142  0.36001  1.0000 0.0024302619
C   C307      1.0  0.23149  0.59150  0.67291  1.0000 0.0024302619
C   C308      1.0  0.08141  0.90850  0.13999  1.0000 0.0024302619
C   C309      1.0  0.94142  0.36001  0.26851  1.0000 0.0024302619
C   C310      1.0  0.55858  0.82709  0.41859  1.0000 0.0024302619
C   C311      1.0  0.90850  0.13999  0.08141  1.0000 0.0024302619
C   C312      1.0  0.59150  0.67291  0.23149  1.0000 0.0024302619
C   C313      1.0  0.95821  0.91104  0.91757  1.0000 0.5380619043
C   C314      1.0  0.49347  0.04064  0.58243  1.0000 0.5380619043
C   C315      1.0  0.00653  0.58896  0.54717  1.0000 0.5380619043
C   C316      1.0  0.54179  0.45936  0.95283  1.0000 0.5380619043
C   C317      1.0  0.91757  0.95821  0.91104  1.0000 0.5380619043
C   C318      1.0  0.58243  0.49347  0.04064  1.0000 0.5380619043
C   C319      1.0  0.54717  0.00653  0.58896  1.0000 0.5380619043
C   C320      1.0  0.95283  0.54179  0.45936  1.0000 0.5380619043
C   C321      1.0  0.91104  0.91757  0.95821  1.0000 0.5380619043
C   C322      1.0  0.04064  0.58243  0.49347  1.0000 0.5380619043
C   C323      1.0  0.58896  0.54717  0.00653  1.0000 0.5380619043
C   C324      1.0  0.45936  0.95283  0.54179  1.0000 0.5380619043
C   C325      1.0  0.45936  0.00653  0.91757  1.0000 0.5380619043
C   C326      1.0  0.58896  0.54179  0.58243  1.0000 0.5380619043
C   C327      1.0  0.04064  0.95821  0.54717  1.0000 0.5380619043
C   C328      1.0  0.91104  0.49347  0.95283  1.0000 0.5380619043
C   C329      1.0  0.49347  0.95283  0.91104  1.0000 0.5380619043
C   C330      1.0  0.95821  0.54717  0.04064  1.0000 0.5380619043
C   C331      1.0  0.54179  0.58243  0.58896  1.0000 0.5380619043
C   C332      1.0  0.00653  0.91757  0.45936  1.0000 0.5380619043
C   C333      1.0  0.54717  0.04064  0.95821  1.0000 0.5380619043
C   C334      1.0  0.95283  0.91104  0.49347  1.0000 0.5380619043
C   C335      1.0  0.91757  0.45936  0.00653  1.0000 0.5380619043
C   C336      1.0  0.58243  0.58896  0.54179  1.0000 0.5380619043
C   C337      1.0  0.21681  0.80900  0.90369  1.0000 0.5380619043
C   C338      1.0  0.40531  0.31312  0.59631  1.0000 0.5380619043
C   C339      1.0  0.09469  0.69100  0.90781  1.0000 0.5380619043
C   C340      1.0  0.28319  0.18688  0.59219  1.0000 0.5380619043
C   C341      1.0  0.90369  0.21681  0.80900  1.0000 0.5380619043
C   C342      1.0  0.59631  0.40531  0.31312  1.0000 0.5380619043
C   C343      1.0  0.90781  0.09469  0.69100  1.0000 0.5380619043
C   C344      1.0  0.59219  0.28319  0.18688  1.0000 0.5380619043
C   C345      1.0  0.80900  0.90369  0.21681  1.0000 0.5380619043
C   C346      1.0  0.31312  0.59631  0.40531  1.0000 0.5380619043
C   C347      1.0  0.69100  0.90781  0.09469  1.0000 0.5380619043
C   C348      1.0  0.18688  0.59219  0.28319  1.0000 0.5380619043
C   C349      1.0  0.18688  0.09469  0.90369  1.0000 0.5380619043
C   C350      1.0  0.69100  0.28319  0.59631  1.0000 0.5380619043
C   C351      1.0  0.31312  0.21681  0.90781  1.0000 0.5380619043
C   C352      1.0  0.80900  0.40531  0.59219  1.0000 0.5380619043
C   C353      1.0  0.40531  0.59219  0.80900  1.0000 0.5380619043
C   C354      1.0  0.21681  0.90781  0.31312  1.0000 0.5380619043
C   C355      1.0  0.28319  0.59631  0.69100  1.0000 0.5380619043
C   C356      1.0  0.09469  0.90369  0.18688  1.0000 0.5380619043
C   C357      1.0  0.90781  0.31312  0.21681  1.0000 0.5380619043
C   C358      1.0  0.59219  0.80900  0.40531  1.0000 0.5380619043
C   C359      1.0  0.90369  0.18688  0.09469  1.0000 0.5380619043
C   C360      1.0  0.59631  0.69100  0.28319  1.0000 0.5380619043
C   C361      1.0  0.06236  0.85849  0.84541  1.0000 0.0342878519
C   C362      1.0  0.51308  0.21695  0.65459  1.0000 0.0342878519
C   C363      1.0  0.98692  0.64151  0.70387  1.0000 0.0342878519
C   C364      1.0  0.43764  0.28305  0.79613  1.0000 0.0342878519
C   C365      1.0  0.84541  0.06236  0.85849  1.0000 0.0342878519
C   C366      1.0  0.65459  0.51308  0.21695  1.0000 0.0342878519
C   C367      1.0  0.70387  0.98692  0.64151  1.0000 0.0342878519
C   C368      1.0  0.79613  0.43764  0.28305  1.0000 0.0342878519
C   C369      1.0  0.85849  0.84541  0.06236  1.0000 0.0342878519
C   C370      1.0  0.21695  0.65459  0.51308  1.0000 0.0342878519
C   C371      1.0  0.64151  0.70387  0.98692  1.0000 0.0342878519
C   C372      1.0  0.28305  0.79613  0.43764  1.0000 0.0342878519
C   C373      1.0  0.28305  0.98692  0.84541  1.0000 0.0342878519
C   C374      1.0  0.64151  0.43764  0.65459  1.0000 0.0342878519
C   C375      1.0  0.21695  0.06236  0.70387  1.0000 0.0342878519
C   C376      1.0  0.85849  0.51308  0.79613  1.0000 0.0342878519
C   C377      1.0  0.51308  0.79613  0.85849  1.0000 0.0342878519
C   C378      1.0  0.06236  0.70387  0.21695  1.0000 0.0342878519
C   C379      1.0  0.43764  0.65459  0.64151  1.0000 0.0342878519
C   C380      1.0  0.98692  0.84541  0.28305  1.0000 0.0342878519
C   C381      1.0  0.70387  0.21695  0.06236  1.0000 0.0342878519
C   C382      1.0  0.79613  0.85849  0.51308  1.0000 0.0342878519
C   C383      1.0  0.84541  0.28305  0.98692  1.0000 0.0342878519
C   C384      1.0  0.65459  0.64151  0.43764  1.0000 0.0342878519
C   C385      1.0  0.33991  0.77934  0.84383  1.0000 0.5706267567
C   C386      1.0  0.43551  0.49608  0.65617  1.0000 0.5706267567
C   C387      1.0  0.06449  0.72066  0.06057  1.0000 0.5706267567
C   C388      1.0  0.16009  0.00392  0.43943  1.0000 0.5706267567
C   C389      1.0  0.84383  0.33991  0.77934  1.0000 0.5706267567
C   C390      1.0  0.65617  0.43551  0.49608  1.0000 0.5706267567
C   C391      1.0  0.06057  0.06449  0.72066  1.0000 0.5706267567
C   C392      1.0  0.43943  0.16009  0.00392  1.0000 0.5706267567
C   C393      1.0  0.77934  0.84383  0.33991  1.0000 0.5706267567
C   C394      1.0  0.49608  0.65617  0.43551  1.0000 0.5706267567
C   C395      1.0  0.72066  0.06057  0.06449  1.0000 0.5706267567
C   C396      1.0  0.00392  0.43943  0.16009  1.0000 0.5706267567
C   C397      1.0  0.00392  0.06449  0.84383  1.0000 0.5706267567
C   C398      1.0  0.72066  0.16009  0.65617  1.0000 0.5706267567
C   C399      1.0  0.49608  0.33991  0.06057  1.0000 0.5706267567
C   C400      1.0  0.77934  0.43551  0.43943  1.0000 0.5706267567
C   C401      1.0  0.43551  0.43943  0.77934  1.0000 0.5706267567
C   C402      1.0  0.33991  0.06057  0.49608  1.0000 0.5706267567
C   C403      1.0  0.16009  0.65617  0.72066  1.0000 0.5706267567
C   C404      1.0  0.06449  0.84383  0.00392  1.0000 0.5706267567
C   C405      1.0  0.06057  0.49608  0.33991  1.0000 0.5706267567
C   C406      1.0  0.43943  0.77934  0.43551  1.0000 0.5706267567
C   C407      1.0  0.84383  0.00392  0.06449  1.0000 0.5706267567
C   C408      1.0  0.65617  0.72066  0.16009  1.0000 0.5706267567
C   C409      1.0  0.03924  0.94704  0.79200  1.0000 0.5515191082
C   C410      1.0  0.65504  0.24724  0.70800  1.0000 0.5515191082
C   C411      1.0  0.84496  0.55296  0.59220  1.0000 0.5515191082
C   C412      1.0  0.46076  0.25276  0.90780  1.0000 0.5515191082
C   C413      1.0  0.79200  0.03924  0.94704  1.0000 0.5515191082
C   C414      1.0  0.70800  0.65504  0.24724  1.0000 0.5515191082
C   C415      1.0  0.59220  0.84496  0.55296  1.0000 0.5515191082
C   C416      1.0  0.90780  0.46076  0.25276  1.0000 0.5515191082
C   C417      1.0  0.94704  0.79200  0.03924  1.0000 0.5515191082
C   C418      1.0  0.24724  0.70800  0.65504  1.0000 0.5515191082
C   C419      1.0  0.55296  0.59220  0.84496  1.0000 0.5515191082
C   C420      1.0  0.25276  0.90780  0.46076  1.0000 0.5515191082
C   C421      1.0  0.25276  0.84496  0.79200  1.0000 0.5515191082
C   C422      1.0  0.55296  0.46076  0.70800  1.0000 0.5515191082
C   C423      1.0  0.24724  0.03924  0.59220  1.0000 0.5515191082
C   C424      1.0  0.94704  0.65504  0.90780  1.0000 0.5515191082
C   C425      1.0  0.65504  0.90780  0.94704  1.0000 0.5515191082
C   C426      1.0  0.03924  0.59220  0.24724  1.0000 0.5515191082
C   C427      1.0  0.46076  0.70800  0.55296  1.0000 0.5515191082
C   C428      1.0  0.84496  0.79200  0.25276  1.0000 0.5515191082
C   C429      1.0  0.59220  0.24724  0.03924  1.0000 0.5515191082
C   C430      1.0  0.90780  0.94704  0.65504  1.0000 0.5515191082
C   C431      1.0  0.79200  0.25276  0.84496  1.0000 0.5515191082
C   C432      1.0  0.70800  0.55296  0.46076  1.0000 0.5515191082
N   N1        1.0  0.39523  0.94978  0.98907  1.0000 -0.2916843992
N   N2        1.0  0.46071  0.40616  0.51093  1.0000 -0.2916843992
N   N3        1.0  0.03929  0.55022  0.94545  1.0000 -0.2916843992
N   N4        1.0  0.10477  0.09384  0.55455  1.0000 -0.2916843992
N   N5        1.0  0.98907  0.39523  0.94978  1.0000 -0.2916843992
N   N6        1.0  0.51093  0.46071  0.40616  1.0000 -0.2916843992
N   N7        1.0  0.94545  0.03929  0.55022  1.0000 -0.2916843992
N   N8        1.0  0.55455  0.10477  0.09384  1.0000 -0.2916843992
N   N9        1.0  0.94978  0.98907  0.39523  1.0000 -0.2916843992
N   N10       1.0  0.40616  0.51093  0.46071  1.0000 -0.2916843992
N   N11       1.0  0.55022  0.94545  0.03929  1.0000 -0.2916843992
N   N12       1.0  0.09384  0.55455  0.10477  1.0000 -0.2916843992
N   N13       1.0  0.09384  0.03929  0.98907  1.0000 -0.2916843992
N   N14       1.0  0.55022  0.10477  0.51093  1.0000 -0.2916843992
N   N15       1.0  0.40616  0.39523  0.94545  1.0000 -0.2916843992
N   N16       1.0  0.94978  0.46071  0.55455  1.0000 -0.2916843992
N   N17       1.0  0.46071  0.55455  0.94978  1.0000 -0.2916843992
N   N18       1.0  0.39523  0.94545  0.40616  1.0000 -0.2916843992
N   N19       1.0  0.10477  0.51093  0.55022  1.0000 -0.2916843992
N   N20       1.0  0.03929  0.98907  0.09384  1.0000 -0.2916843992
N   N21       1.0  0.94545  0.40616  0.39523  1.0000 -0.2916843992
N   N22       1.0  0.55455  0.94978  0.46071  1.0000 -0.2916843992
N   N23       1.0  0.98907  0.09384  0.03929  1.0000 -0.2916843992
N   N24       1.0  0.51093  0.55022  0.10477  1.0000 -0.2916843992
N   N25       1.0  0.94143  0.89903  0.94950  1.0000 -0.5297654384
N   N26       1.0  0.44953  0.99193  0.55050  1.0000 -0.5297654384
N   N27       1.0  0.05047  0.60097  0.54240  1.0000 -0.5297654384
N   N28       1.0  0.55857  0.50807  0.95760  1.0000 -0.5297654384
N   N29       1.0  0.94950  0.94143  0.89903  1.0000 -0.5297654384
N   N30       1.0  0.55050  0.44953  0.99193  1.0000 -0.5297654384
N   N31       1.0  0.54240  0.05047  0.60097  1.0000 -0.5297654384
N   N32       1.0  0.95760  0.55857  0.50807  1.0000 -0.5297654384
N   N33       1.0  0.89903  0.94950  0.94143  1.0000 -0.5297654384
N   N34       1.0  0.99193  0.55050  0.44953  1.0000 -0.5297654384
N   N35       1.0  0.60097  0.54240  0.05047  1.0000 -0.5297654384
N   N36       1.0  0.50807  0.95760  0.55857  1.0000 -0.5297654384
N   N37       1.0  0.50807  0.05047  0.94950  1.0000 -0.5297654384
N   N38       1.0  0.60097  0.55857  0.55050  1.0000 -0.5297654384
N   N39       1.0  0.99193  0.94143  0.54240  1.0000 -0.5297654384
N   N40       1.0  0.89903  0.44953  0.95760  1.0000 -0.5297654384
N   N41       1.0  0.44953  0.95760  0.89903  1.0000 -0.5297654384
N   N42       1.0  0.94143  0.54240  0.99193  1.0000 -0.5297654384
N   N43       1.0  0.55857  0.55050  0.60097  1.0000 -0.5297654384
N   N44       1.0  0.05047  0.94950  0.50807  1.0000 -0.5297654384
N   N45       1.0  0.54240  0.99193  0.94143  1.0000 -0.5297654384
N   N46       1.0  0.95760  0.89903  0.44953  1.0000 -0.5297654384
N   N47       1.0  0.94950  0.50807  0.05047  1.0000 -0.5297654384
N   N48       1.0  0.55050  0.60097  0.55857  1.0000 -0.5297654384
N   N49       1.0  0.47401  0.02856  0.04067  1.0000 -0.5392313887
N   N50       1.0  0.48789  0.43334  0.45933  1.0000 -0.5392313887
N   N51       1.0  0.01211  0.47144  0.94545  1.0000 -0.5392313887
N   N52       1.0  0.02599  0.06666  0.55455  1.0000 -0.5392313887
N   N53       1.0  0.04067  0.47401  0.02856  1.0000 -0.5392313887
N   N54       1.0  0.45933  0.48789  0.43334  1.0000 -0.5392313887
N   N55       1.0  0.94545  0.01211  0.47144  1.0000 -0.5392313887
N   N56       1.0  0.55455  0.02599  0.06666  1.0000 -0.5392313887
N   N57       1.0  0.02856  0.04067  0.47401  1.0000 -0.5392313887
N   N58       1.0  0.43334  0.45933  0.48789  1.0000 -0.5392313887
N   N59       1.0  0.47144  0.94545  0.01211  1.0000 -0.5392313887
N   N60       1.0  0.06666  0.55455  0.02599  1.0000 -0.5392313887
N   N61       1.0  0.06666  0.01211  0.04067  1.0000 -0.5392313887
N   N62       1.0  0.47144  0.02599  0.45933  1.0000 -0.5392313887
N   N63       1.0  0.43334  0.47401  0.94545  1.0000 -0.5392313887
N   N64       1.0  0.02856  0.48789  0.55455  1.0000 -0.5392313887
N   N65       1.0  0.48789  0.55455  0.02856  1.0000 -0.5392313887
N   N66       1.0  0.47401  0.94545  0.43334  1.0000 -0.5392313887
N   N67       1.0  0.02599  0.45933  0.47144  1.0000 -0.5392313887
N   N68       1.0  0.01211  0.04067  0.06666  1.0000 -0.5392313887
N   N69       1.0  0.94545  0.43334  0.47401  1.0000 -0.5392313887
N   N70       1.0  0.55455  0.02856  0.48789  1.0000 -0.5392313887
N   N71       1.0  0.04067  0.06666  0.01211  1.0000 -0.5392313887
N   N72       1.0  0.45933  0.47144  0.02599  1.0000 -0.5392313887
N   N73       1.0  0.98854  0.89103  0.90877  1.0000 -0.2916843992
N   N74       1.0  0.48226  0.07977  0.59123  1.0000 -0.2916843992
N   N75       1.0  0.01774  0.60897  0.59751  1.0000 -0.2916843992
N   N76       1.0  0.51146  0.42023  0.90249  1.0000 -0.2916843992
N   N77       1.0  0.90877  0.98854  0.89103  1.0000 -0.2916843992
N   N78       1.0  0.59123  0.48226  0.07977  1.0000 -0.2916843992
N   N79       1.0  0.59751  0.01774  0.60897  1.0000 -0.2916843992
N   N80       1.0  0.90249  0.51146  0.42023  1.0000 -0.2916843992
N   N81       1.0  0.89103  0.90877  0.98854  1.0000 -0.2916843992
N   N82       1.0  0.07977  0.59123  0.48226  1.0000 -0.2916843992
N   N83       1.0  0.60897  0.59751  0.01774  1.0000 -0.2916843992
N   N84       1.0  0.42023  0.90249  0.51146  1.0000 -0.2916843992
N   N85       1.0  0.42023  0.01774  0.90877  1.0000 -0.2916843992
N   N86       1.0  0.60897  0.51146  0.59123  1.0000 -0.2916843992
N   N87       1.0  0.07977  0.98854  0.59751  1.0000 -0.2916843992
N   N88       1.0  0.89103  0.48226  0.90249  1.0000 -0.2916843992
N   N89       1.0  0.48226  0.90249  0.89103  1.0000 -0.2916843992
N   N90       1.0  0.98854  0.59751  0.07977  1.0000 -0.2916843992
N   N91       1.0  0.51146  0.59123  0.60897  1.0000 -0.2916843992
N   N92       1.0  0.01774  0.90877  0.42023  1.0000 -0.2916843992
N   N93       1.0  0.59751  0.07977  0.98854  1.0000 -0.2916843992
N   N94       1.0  0.90249  0.89103  0.48226  1.0000 -0.2916843992
N   N95       1.0  0.90877  0.42023  0.01774  1.0000 -0.2916843992
N   N96       1.0  0.59123  0.60897  0.51146  1.0000 -0.2916843992
O   O1        1.0  0.30700  0.74665  0.79861  1.0000 -0.4624122792
O   O2        1.0  0.44804  0.50839  0.70139  1.0000 -0.4624122792
O   O3        1.0  0.05196  0.75335  0.06035  1.0000 -0.4624122792
O   O4        1.0  0.19300  0.99161  0.43965  1.0000 -0.4624122792
O   O5        1.0  0.79861  0.30700  0.74665  1.0000 -0.4624122792
O   O6        1.0  0.70139  0.44804  0.50839  1.0000 -0.4624122792
O   O7        1.0  0.06035  0.05196  0.75335  1.0000 -0.4624122792
O   O8        1.0  0.43965  0.19300  0.99161  1.0000 -0.4624122792
O   O9        1.0  0.74665  0.79861  0.30700  1.0000 -0.4624122792
O   O10       1.0  0.50839  0.70139  0.44804  1.0000 -0.4624122792
O   O11       1.0  0.75335  0.06035  0.05196  1.0000 -0.4624122792
O   O12       1.0  0.99161  0.43965  0.19300  1.0000 -0.4624122792
O   O13       1.0  0.99161  0.05196  0.79861  1.0000 -0.4624122792
O   O14       1.0  0.75335  0.19300  0.70139  1.0000 -0.4624122792
O   O15       1.0  0.50839  0.30700  0.06035  1.0000 -0.4624122792
O   O16       1.0  0.74665  0.44804  0.43965  1.0000 -0.4624122792
O   O17       1.0  0.44804  0.43965  0.74665  1.0000 -0.4624122792
O   O18       1.0  0.30700  0.06035  0.50839  1.0000 -0.4624122792
O   O19       1.0  0.19300  0.70139  0.75335  1.0000 -0.4624122792
O   O20       1.0  0.05196  0.79861  0.99161  1.0000 -0.4624122792
O   O21       1.0  0.06035  0.50839  0.30700  1.0000 -0.4624122792
O   O22       1.0  0.43965  0.74665  0.44804  1.0000 -0.4624122792
O   O23       1.0  0.79861  0.99161  0.05196  1.0000 -0.4624122792
O   O24       1.0  0.70139  0.75335  0.19300  1.0000 -0.4624122792
O   O25       1.0  0.17686  0.76662  0.86082  1.0000 -0.421431888
O   O26       1.0  0.40580  0.31604  0.63918  1.0000 -0.421431888
O   O27       1.0  0.09420  0.73338  0.91024  1.0000 -0.421431888
O   O28       1.0  0.32314  0.18396  0.58976  1.0000 -0.421431888
O   O29       1.0  0.86082  0.17686  0.76662  1.0000 -0.421431888
O   O30       1.0  0.63918  0.40580  0.31604  1.0000 -0.421431888
O   O31       1.0  0.91024  0.09420  0.73338  1.0000 -0.421431888
O   O32       1.0  0.58976  0.32314  0.18396  1.0000 -0.421431888
O   O33       1.0  0.76662  0.86082  0.17686  1.0000 -0.421431888
O   O34       1.0  0.31604  0.63918  0.40580  1.0000 -0.421431888
O   O35       1.0  0.73338  0.91024  0.09420  1.0000 -0.421431888
O   O36       1.0  0.18396  0.58976  0.32314  1.0000 -0.421431888
O   O37       1.0  0.18396  0.09420  0.86082  1.0000 -0.421431888
O   O38       1.0  0.73338  0.32314  0.63918  1.0000 -0.421431888
O   O39       1.0  0.31604  0.17686  0.91024  1.0000 -0.421431888
O   O40       1.0  0.76662  0.40580  0.58976  1.0000 -0.421431888
O   O41       1.0  0.40580  0.58976  0.76662  1.0000 -0.421431888
O   O42       1.0  0.17686  0.91024  0.31604  1.0000 -0.421431888
O   O43       1.0  0.32314  0.63918  0.73338  1.0000 -0.421431888
O   O44       1.0  0.09420  0.86082  0.18396  1.0000 -0.421431888
O   O45       1.0  0.91024  0.31604  0.17686  1.0000 -0.421431888
O   O46       1.0  0.58976  0.76662  0.40580  1.0000 -0.421431888
O   O47       1.0  0.86082  0.18396  0.09420  1.0000 -0.421431888
O   O48       1.0  0.63918  0.73338  0.32314  1.0000 -0.421431888
O   O49       1.0  0.10632  0.81939  0.81513  1.0000 -0.407987451
O   O50       1.0  0.50426  0.29119  0.68487  1.0000 -0.407987451
O   O51       1.0  0.99574  0.68061  0.78693  1.0000 -0.4015321424
O   O52       1.0  0.39368  0.20881  0.71307  1.0000 -0.407987451
O   O53       1.0  0.81513  0.10632  0.81939  1.0000 -0.407987451
O   O54       1.0  0.68487  0.50426  0.29119  1.0000 -0.4015321424
O   O55       1.0  0.78693  0.99574  0.68061  1.0000 -0.407987451
O   O56       1.0  0.71307  0.39368  0.20881  1.0000 -0.407987451
O   O57       1.0  0.81939  0.81513  0.10632  1.0000 -0.407987451
O   O58       1.0  0.29119  0.68487  0.50426  1.0000 -0.407987451
O   O59       1.0  0.68061  0.78693  0.99574  1.0000 -0.407987451
O   O60       1.0  0.20881  0.71307  0.39368  1.0000 -0.407987451
O   O61       1.0  0.20881  0.99574  0.81513  1.0000 -0.407987451
O   O62       1.0  0.68061  0.39368  0.68487  1.0000 -0.407987451
O   O63       1.0  0.29119  0.10632  0.78693  1.0000 -0.407987451
O   O64       1.0  0.81939  0.50426  0.71307  1.0000 -0.407987451
O   O65       1.0  0.50426  0.71307  0.81939  1.0000 -0.407987451
O   O66       1.0  0.10632  0.78693  0.29119  1.0000 -0.407987451
O   O67       1.0  0.39368  0.68487  0.68061  1.0000 -0.407987451
O   O68       1.0  0.99574  0.81513  0.20881  1.0000 -0.407987451
O   O69       1.0  0.78693  0.29119  0.10632  1.0000 -0.407987451
O   O70       1.0  0.71307  0.81939  0.50426  1.0000 -0.407987451
O   O71       1.0  0.81513  0.20881  0.99574  1.0000 -0.407987451
O   O72       1.0  0.68487  0.68061  0.39368  1.0000 -0.407987451
O   O73       1.0  0.21002  0.83132  0.94008  1.0000 -0.4302208406
O   O74       1.0  0.39124  0.26994  0.55992  1.0000 -0.4302208406
O   O75       1.0  0.10876  0.66868  0.87870  1.0000 -0.4302208406
O   O76       1.0  0.28998  0.23006  0.62130  1.0000 -0.4302208406
O   O77       1.0  0.94008  0.21002  0.83132  1.0000 -0.4302208406
O   O78       1.0  0.55992  0.39124  0.26994  1.0000 -0.4302208406
O   O79       1.0  0.87870  0.10876  0.66868  1.0000 -0.4302208406
O   O80       1.0  0.62130  0.28998  0.23006  1.0000 -0.4302208406
O   O81       1.0  0.83132  0.94008  0.21002  1.0000 -0.4302208406
O   O82       1.0  0.26994  0.55992  0.39124  1.0000 -0.4302208406
O   O83       1.0  0.66868  0.87870  0.10876  1.0000 -0.4302208406
O   O84       1.0  0.23006  0.62130  0.28998  1.0000 -0.4302208406
O   O85       1.0  0.23006  0.10876  0.94008  1.0000 -0.4302208406
O   O86       1.0  0.66868  0.28998  0.55992  1.0000 -0.4302208406
O   O87       1.0  0.26994  0.21002  0.87870  1.0000 -0.4302208406
O   O88       1.0  0.83132  0.39124  0.62130  1.0000 -0.4302208406
O   O89       1.0  0.39124  0.62130  0.83132  1.0000 -0.4302208406
O   O90       1.0  0.21002  0.87870  0.26994  1.0000 -0.4302208406
O   O91       1.0  0.28998  0.55992  0.66868  1.0000 -0.4302208406
O   O92       1.0  0.10876  0.94008  0.23006  1.0000 -0.4302208406
O   O93       1.0  0.87870  0.26994  0.21002  1.0000 -0.4302208406
O   O94       1.0  0.62130  0.83132  0.39124  1.0000 -0.4302208406
O   O95       1.0  0.94008  0.23006  0.10876  1.0000 -0.4302208406
O   O96       1.0  0.55992  0.66868  0.28998  1.0000 -0.4302208406
O   O97       1.0  0.38600  0.78235  0.87035  1.0000 -0.5297654384
O   O98       1.0  0.41200  0.51565  0.62965  1.0000 -0.5297654384
O   O99       1.0  0.08800  0.71765  0.10365  1.0000 -0.5297654384
O   O100      1.0  0.11400  0.98435  0.39635  1.0000 -0.5297654384
O   O101      1.0  0.87035  0.38600  0.78235  1.0000 -0.5297654384
O   O102      1.0  0.62965  0.41200  0.51565  1.0000 -0.5297654384
O   O103      1.0  0.10365  0.08800  0.71765  1.0000 -0.5297654384
O   O104      1.0  0.39635  0.11400  0.98435  1.0000 -0.5297654384
O   O105      1.0  0.78235  0.87035  0.38600  1.0000 -0.5297654384
O   O106      1.0  0.51565  0.62965  0.41200  1.0000 -0.5297654384
O   O107      1.0  0.71765  0.10365  0.08800  1.0000 -0.5297654384
O   O108      1.0  0.98435  0.39635  0.11400  1.0000 -0.5297654384
O   O109      1.0  0.98435  0.08800  0.87035  1.0000 -0.5297654384
O   O110      1.0  0.71765  0.11400  0.62965  1.0000 -0.5297654384
O   O111      1.0  0.51565  0.38600  0.10365  1.0000 -0.5297654384
O   O112      1.0  0.78235  0.41200  0.39635  1.0000 -0.5297654384
O   O113      1.0  0.41200  0.39635  0.78235  1.0000 -0.5297654384
O   O114      1.0  0.38600  0.10365  0.51565  1.0000 -0.5297654384
O   O115      1.0  0.11400  0.62965  0.71765  1.0000 -0.5297654384
O   O116      1.0  0.08800  0.87035  0.98435  1.0000 -0.5297654384
O   O117      1.0  0.10365  0.51565  0.38600  1.0000 -0.5297654384
O   O118      1.0  0.39635  0.78235  0.41200  1.0000 -0.5297654384
O   O119      1.0  0.87035  0.98435  0.08800  1.0000 -0.5297654384
O   O120      1.0  0.62965  0.71765  0.11400  1.0000 -0.5297654384
O   O121      1.0  0.08484  0.80134  0.86950  1.0000 -0.4302208406
O   O122      1.0  0.43184  0.21534  0.63050  1.0000 -0.4302208406
O   O123      1.0  0.06816  0.69866  0.78350  1.0000 -0.4302208406
O   O124      1.0  0.41516  0.28466  0.71650  1.0000 -0.4302208406
O   O125      1.0  0.86950  0.08484  0.80134  1.0000 -0.4302208406
O   O126      1.0  0.63050  0.43184  0.21534  1.0000 -0.4302208406
O   O127      1.0  0.78350  0.06816  0.69866  1.0000 -0.4302208406
O   O128      1.0  0.71650  0.41516  0.28466  1.0000 -0.4302208406
O   O129      1.0  0.80134  0.86950  0.08484  1.0000 -0.4302208406
O   O130      1.0  0.21534  0.63050  0.43184  1.0000 -0.4302208406
O   O131      1.0  0.69866  0.78350  0.06816  1.0000 -0.4302208406
O   O132      1.0  0.28466  0.71650  0.41516  1.0000 -0.4302208406
O   O133      1.0  0.28466  0.06816  0.86950  1.0000 -0.4302208406
O   O134      1.0  0.69866  0.41516  0.63050  1.0000 -0.4302208406
O   O135      1.0  0.21534  0.08484  0.78350  1.0000 -0.4302208406
O   O136      1.0  0.80134  0.43184  0.71650  1.0000 -0.4302208406
O   O137      1.0  0.43184  0.71650  0.80134  1.0000 -0.4302208406
O   O138      1.0  0.08484  0.78350  0.21534  1.0000 -0.4302208406
O   O139      1.0  0.41516  0.63050  0.69866  1.0000 -0.4302208406
O   O140      1.0  0.06816  0.86950  0.28466  1.0000 -0.4302208406
O   O141      1.0  0.78350  0.21534  0.08484  1.0000 -0.4302208406
O   O142      1.0  0.71650  0.80134  0.43184  1.0000 -0.4302208406
O   O143      1.0  0.86950  0.28466  0.06816  1.0000 -0.4302208406
O   O144      1.0  0.63050  0.69866  0.41516  1.0000 -0.4302208406
O   O145      1.0  0.00199  0.95693  0.78080  1.0000 -0.5392313887
O   O146      1.0  0.67613  0.22119  0.71920  1.0000 -0.5392313887
O   O147      1.0  0.82387  0.54307  0.54506  1.0000 -0.5392313887
O   O148      1.0  0.49801  0.27881  0.95494  1.0000 -0.5392313887
O   O149      1.0  0.78080  0.00199  0.95693  1.0000 -0.5392313887
O   O150      1.0  0.71920  0.67613  0.22119  1.0000 -0.5392313887
O   O151      1.0  0.54506  0.82387  0.54307  1.0000 -0.5392313887
O   O152      1.0  0.95494  0.49801  0.27881  1.0000 -0.5392313887
O   O153      1.0  0.95693  0.78080  0.00199  1.0000 -0.5392313887
O   O154      1.0  0.22119  0.71920  0.67613  1.0000 -0.5392313887
O   O155      1.0  0.54307  0.54506  0.82387  1.0000 -0.5392313887
O   O156      1.0  0.27881  0.95494  0.49801  1.0000 -0.5392313887
O   O157      1.0  0.27881  0.82387  0.78080  1.0000 -0.5392313887
O   O158      1.0  0.54307  0.49801  0.71920  1.0000 -0.5392313887
O   O159      1.0  0.22119  0.00199  0.54506  1.0000 -0.5392313887
O   O160      1.0  0.95693  0.67613  0.95494  1.0000 -0.5392313887
O   O161      1.0  0.67613  0.95494  0.95693  1.0000 -0.5392313887
O   O162      1.0  0.00199  0.54506  0.22119  1.0000 -0.5392313887
O   O163      1.0  0.49801  0.71920  0.54307  1.0000 -0.5392313887
O   O164      1.0  0.82387  0.78080  0.27881  1.0000 -0.5392313887
O   O165      1.0  0.54506  0.22119  0.00199  1.0000 -0.5392313887
O   O166      1.0  0.95494  0.95693  0.67613  1.0000 -0.5392313887
O   O167      1.0  0.78080  0.27881  0.82387  1.0000 -0.5392313887
O   O168      1.0  0.71920  0.54307  0.49801  1.0000 -0.5392313887
O   O169      1.0  0.07322  0.95846  0.78132  1.0000 -0.4015321424
O   O170      1.0  0.67714  0.29190  0.71868  1.0000 -0.4015321424
O   O171      1.0  0.82286  0.54154  0.61476  1.0000 -0.4015321424
O   O172      1.0  0.42678  0.20810  0.88524  1.0000 -0.4015321424
O   O173      1.0  0.78132  0.07322  0.95846  1.0000 -0.4015321424
O   O174      1.0  0.71868  0.67714  0.29190  1.0000 -0.4015321424
O   O175      1.0  0.61476  0.82286  0.54154  1.0000 -0.4015321424
O   O176      1.0  0.88524  0.42678  0.20810  1.0000 -0.4015321424
O   O177      1.0  0.95846  0.78132  0.07322  1.0000 -0.4015321424
O   O178      1.0  0.29190  0.71868  0.67714  1.0000 -0.4015321424
O   O179      1.0  0.54154  0.61476  0.82286  1.0000 -0.4015321424
O   O180      1.0  0.20810  0.88524  0.42678  1.0000 -0.4015321424
O   O181      1.0  0.20810  0.82286  0.78132  1.0000 -0.4015321424
O   O182      1.0  0.54154  0.42678  0.71868  1.0000 -0.4015321424
O   O183      1.0  0.29190  0.07322  0.61476  1.0000 -0.4015321424
O   O184      1.0  0.95846  0.67714  0.88524  1.0000 -0.4015321424
O   O185      1.0  0.67714  0.88524  0.95846  1.0000 -0.4015321424
O   O186      1.0  0.07322  0.61476  0.29190  1.0000 -0.4015321424
O   O187      1.0  0.42678  0.71868  0.54154  1.0000 -0.4015321424
O   O188      1.0  0.82286  0.78132  0.20810  1.0000 -0.4015321424
O   O189      1.0  0.61476  0.29190  0.07322  1.0000 -0.4015321424
O   O190      1.0  0.88524  0.95846  0.67714  1.0000 -0.4015321424
O   O191      1.0  0.78132  0.20810  0.82286  1.0000 -0.4015321424
O   O192      1.0  0.71868  0.54154  0.42678  1.0000 -0.4015321424
