# DDEC6 charges by PACMAN v1.1 (https://github.com/mtap-research/PACMAN-charge/)
data_2011[Ni][nan]3[FSR]6
_chemical_formula_sum              "Ni4 H104 C80 N32 O12"
_cell_length_a       10.137
_cell_length_b       16.768
_cell_length_c       15.852
_cell_angle_alpha    90
_cell_angle_beta     94.166
_cell_angle_gamma    90

_symmetry_space_group_name_H-M    "P 1"
_symmetry_Int_Tables_number       1

loop_
  _symmetry_equiv_pos_as_xyz
  'x, y, z'

loop_
  _atom_site_type_symbol
  _atom_site_label
  _atom_site_symmetry_multiplicity
  _atom_site_fract_x
  _atom_site_fract_y
  _atom_site_fract_z
  _atom_site_occupancy
  _atom_site_charge
Ni  Ni1       1.0  0.79001  0.77275  0.63237  1.0000 0.641366814
Ni  Ni2       1.0  0.20999  0.27275  0.86763  1.0000 0.641366814
Ni  Ni3       1.0  0.20999  0.22725  0.36763  1.0000 0.641366814
Ni  Ni4       1.0  0.79001  0.72725  0.13237  1.0000 0.641366814
H   H1        1.0  0.42120  0.98580  0.23160  1.0000 0.1298450424
H   H2        1.0  0.57880  0.48580  0.26840  1.0000 0.1298450424
H   H3        1.0  0.57880  0.01420  0.76840  1.0000 0.1298450424
H   H4        1.0  0.42120  0.51420  0.73160  1.0000 0.1298450424
H   H5        1.0  0.43750  0.12710  0.26880  1.0000 0.1190308048
H   H6        1.0  0.56250  0.62710  0.23120  1.0000 0.1190308048
H   H7        1.0  0.56250  0.87290  0.73120  1.0000 0.1190308048
H   H8        1.0  0.43750  0.37290  0.76880  1.0000 0.1190308048
H   H9        1.0  0.12720  0.04300  0.37050  1.0000 0.104267537
H   H10       1.0  0.87280  0.54300  0.12950  1.0000 0.104267537
H   H11       1.0  0.87280  0.95700  0.62950  1.0000 0.104267537
H   H12       1.0  0.12720  0.45700  0.87050  1.0000 0.104267537
H   H13       1.0  0.11480  0.90090  0.29740  1.0000 0.1190308048
H   H14       1.0  0.88520  0.40090  0.20260  1.0000 0.1190308048
H   H15       1.0  0.88520  0.09910  0.70260  1.0000 0.1190308048
H   H16       1.0  0.11480  0.59910  0.79740  1.0000 0.1190308048
H   H17       1.0  0.23570  0.87730  0.24650  1.0000 0.1110284382
H   H18       1.0  0.76430  0.37730  0.25350  1.0000 0.1110284382
H   H19       1.0  0.76430  0.12270  0.75350  1.0000 0.1110284382
H   H20       1.0  0.23570  0.62270  0.74650  1.0000 0.1110284382
H   H21       1.0  0.23990  0.93430  0.46580  1.0000 0.1110284382
H   H22       1.0  0.76010  0.43430  0.03420  1.0000 0.1110284382
H   H23       1.0  0.76010  0.06570  0.53420  1.0000 0.1110284382
H   H24       1.0  0.23990  0.56570  0.96580  1.0000 0.1110284382
H   H25       1.0  0.27580  0.85040  0.50360  1.0000 0.1110284382
H   H26       1.0  0.72420  0.35040  0.99640  1.0000 0.1110284382
H   H27       1.0  0.72420  0.14960  0.49640  1.0000 0.1110284382
H   H28       1.0  0.27580  0.64960  0.00360  1.0000 0.1110284382
H   H29       1.0  0.96820  0.93780  0.39350  1.0000 0.1298450424
H   H30       1.0  0.03180  0.43780  0.10650  1.0000 0.1298450424
H   H31       1.0  0.03180  0.06220  0.60650  1.0000 0.1298450424
H   H32       1.0  0.96820  0.56220  0.89350  1.0000 0.1298450424
H   H33       1.0  0.78120  0.88900  0.46620  1.0000 0.1110284382
H   H34       1.0  0.21880  0.38900  0.03380  1.0000 0.1110284382
H   H35       1.0  0.21880  0.11100  0.53380  1.0000 0.1110284382
H   H36       1.0  0.78120  0.61100  0.96620  1.0000 0.1110284382
H   H37       1.0  0.09680  0.78750  0.57290  1.0000 0.104267537
H   H38       1.0  0.90320  0.28750  0.92710  1.0000 0.104267537
H   H39       1.0  0.90320  0.21250  0.42710  1.0000 0.104267537
H   H40       1.0  0.09680  0.71250  0.07290  1.0000 0.104267537
H   H41       1.0  0.26350  0.73210  0.40630  1.0000 0.1110284382
H   H42       1.0  0.73650  0.23210  0.09370  1.0000 0.1110284382
H   H43       1.0  0.73650  0.26790  0.59370  1.0000 0.1110284382
H   H44       1.0  0.26350  0.76790  0.90630  1.0000 0.1110284382
H   H45       1.0  0.30040  0.74520  0.31330  1.0000 0.1110284382
H   H46       1.0  0.69960  0.24520  0.18670  1.0000 0.1110284382
H   H47       1.0  0.69960  0.25480  0.68670  1.0000 0.1110284382
H   H48       1.0  0.30040  0.75480  0.81330  1.0000 0.1110284382
H   H49       1.0  0.02140  0.69030  0.42520  1.0000 0.1298450424
H   H50       1.0  0.97860  0.19030  0.07480  1.0000 0.1298450424
H   H51       1.0  0.97860  0.30970  0.57480  1.0000 0.1298450424
H   H52       1.0  0.02140  0.80970  0.92520  1.0000 0.1298450424
H   H53       1.0  0.82910  0.66740  0.32710  1.0000 0.1190308048
H   H54       1.0  0.17090  0.16740  0.17290  1.0000 0.1190308048
H   H55       1.0  0.17090  0.33260  0.67290  1.0000 0.1190308048
H   H56       1.0  0.82910  0.83260  0.82710  1.0000 0.1190308048
H   H57       1.0  0.09540  0.77270  0.20070  1.0000 0.104267537
H   H58       1.0  0.90460  0.27270  0.29930  1.0000 0.104267537
H   H59       1.0  0.90460  0.22730  0.79930  1.0000 0.104267537
H   H60       1.0  0.09540  0.72730  0.70070  1.0000 0.104267537
H   H61       1.0  0.43960  0.91670  0.39760  1.0000 0.1110284382
H   H62       1.0  0.56040  0.41670  0.10240  1.0000 0.1110284382
H   H63       1.0  0.56040  0.08330  0.60240  1.0000 0.1110284382
H   H64       1.0  0.43960  0.58330  0.89760  1.0000 0.1110284382
H   H65       1.0  0.44730  0.85920  0.32050  1.0000 0.1110284382
H   H66       1.0  0.55270  0.35920  0.17950  1.0000 0.1110284382
H   H67       1.0  0.55270  0.14080  0.67950  1.0000 0.1110284382
H   H68       1.0  0.44730  0.64080  0.82050  1.0000 0.1110284382
H   H69       1.0  0.54650  0.71710  0.35000  1.0000 0.1190308048
H   H70       1.0  0.45350  0.21710  0.15000  1.0000 0.1190308048
H   H71       1.0  0.45350  0.28290  0.65000  1.0000 0.1190308048
H   H72       1.0  0.54650  0.78290  0.85000  1.0000 0.1190308048
H   H73       1.0  0.69510  0.66910  0.46660  1.0000 0.1298450424
H   H74       1.0  0.30490  0.16910  0.03340  1.0000 0.1298450424
H   H75       1.0  0.30490  0.33090  0.53340  1.0000 0.1298450424
H   H76       1.0  0.69510  0.83090  0.96660  1.0000 0.1298450424
H   H77       1.0  0.52870  0.86260  0.54420  1.0000 0.1110284382
H   H78       1.0  0.47130  0.36260  0.95580  1.0000 0.1110284382
H   H79       1.0  0.47130  0.13740  0.45580  1.0000 0.1110284382
H   H80       1.0  0.52870  0.63740  0.04420  1.0000 0.1110284382
H   H81       1.0  0.87600  0.48300  0.61000  1.0000 0.1190308048
H   H82       1.0  0.12400  0.98300  0.89000  1.0000 0.1190308048
H   H83       1.0  0.12400  0.51700  0.39000  1.0000 0.1190308048
H   H84       1.0  0.87600  0.01700  0.11000  1.0000 0.1190308048
H   H85       1.0  0.01560  0.51430  0.64280  1.0000 0.1110284382
H   H86       1.0  0.98440  0.01430  0.85720  1.0000 0.1110284382
H   H87       1.0  0.98440  0.48570  0.35720  1.0000 0.1110284382
H   H88       1.0  0.01560  0.98570  0.14280  1.0000 0.1110284382
H   H89       1.0  0.89420  0.55390  0.48400  1.0000 0.091025694
H   H90       1.0  0.10580  0.05390  0.01600  1.0000 0.091025694
H   H91       1.0  0.10580  0.44610  0.51600  1.0000 0.091025694
H   H92       1.0  0.89420  0.94610  0.98400  1.0000 0.091025694
H   H93       1.0  0.03730  0.57980  0.51690  1.0000 0.091025694
H   H94       1.0  0.96270  0.07980  0.98310  1.0000 0.091025694
H   H95       1.0  0.96270  0.42020  0.48310  1.0000 0.091025694
H   H96       1.0  0.03730  0.92020  0.01690  1.0000 0.091025694
H   H97       1.0  0.59550  0.70100  0.69340  1.0000 0.2731735601
H   H98       1.0  0.40450  0.20100  0.80660  1.0000 0.2731735601
H   H99       1.0  0.40450  0.29900  0.30660  1.0000 0.2731735601
H   H100      1.0  0.59550  0.79900  0.19340  1.0000 0.2731735601
H   H101      1.0  0.71500  0.68010  0.72810  1.0000 0.3070654466
H   H102      1.0  0.28500  0.18010  0.77190  1.0000 0.3070654466
H   H103      1.0  0.28500  0.31990  0.27190  1.0000 0.3070654466
H   H104      1.0  0.71500  0.81990  0.22810  1.0000 0.3070654466
C   C1        1.0  0.36430  0.01412  0.26396  1.0000 -0.1494009507
C   C2        1.0  0.63570  0.51412  0.23604  1.0000 -0.1494009507
C   C3        1.0  0.63570  0.98588  0.73604  1.0000 -0.1494009507
C   C4        1.0  0.36430  0.48588  0.76396  1.0000 -0.1494009507
C   C5        1.0  0.37230  0.09230  0.28482  1.0000 -0.0578970353
C   C6        1.0  0.62770  0.59230  0.21518  1.0000 -0.0578970353
C   C7        1.0  0.62770  0.90770  0.71518  1.0000 -0.0578970353
C   C8        1.0  0.37230  0.40770  0.78482  1.0000 -0.0578970353
C   C9        1.0  0.20260  0.04677  0.34068  1.0000 0.0697455115
C   C10       1.0  0.79740  0.54677  0.15932  1.0000 0.0697455115
C   C11       1.0  0.79740  0.95323  0.65932  1.0000 0.0697455115
C   C12       1.0  0.20260  0.45323  0.84068  1.0000 0.0697455115
C   C13       1.0  0.21060  0.90184  0.29844  1.0000 -0.221884426
C   C14       1.0  0.78940  0.40184  0.20156  1.0000 -0.221884426
C   C15       1.0  0.78940  0.09816  0.70156  1.0000 -0.221884426
C   C16       1.0  0.21060  0.59816  0.79844  1.0000 -0.221884426
C   C17       1.0  0.26760  0.85126  0.37434  1.0000 0.1110284382
C   C18       1.0  0.73240  0.35126  0.12566  1.0000 0.1110284382
C   C19       1.0  0.73240  0.14874  0.62566  1.0000 0.1110284382
C   C20       1.0  0.26760  0.64874  0.87434  1.0000 0.1110284382
C   C21       1.0  0.22190  0.87775  0.45953  1.0000 -0.221884426
C   C22       1.0  0.77810  0.37775  0.04047  1.0000 -0.221884426
C   C23       1.0  0.77810  0.12225  0.54047  1.0000 -0.221884426
C   C24       1.0  0.22190  0.62225  0.95953  1.0000 -0.221884426
C   C25       1.0  0.97140  0.90149  0.43790  1.0000 -0.1382210718
C   C26       1.0  0.02860  0.40149  0.06210  1.0000 -0.1382210718
C   C27       1.0  0.02860  0.09851  0.56210  1.0000 -0.1382210718
C   C28       1.0  0.97140  0.59851  0.93790  1.0000 -0.1382210718
C   C29       1.0  0.86900  0.87470  0.47908  1.0000 -0.0578970353
C   C30       1.0  0.13100  0.37470  0.02092  1.0000 -0.0578970353
C   C31       1.0  0.13100  0.12530  0.52092  1.0000 -0.0578970353
C   C32       1.0  0.86900  0.62530  0.97908  1.0000 -0.0578970353
C   C33       1.0  0.04080  0.81866  0.53748  1.0000 0.050026315
C   C34       1.0  0.95920  0.31866  0.96252  1.0000 0.050026315
C   C35       1.0  0.95920  0.18134  0.46252  1.0000 0.050026315
C   C36       1.0  0.04080  0.68134  0.03748  1.0000 0.050026315
C   C37       1.0  0.24120  0.76239  0.35514  1.0000 -0.221884426
C   C38       1.0  0.75880  0.26239  0.14486  1.0000 -0.221884426
C   C39       1.0  0.75880  0.23761  0.64486  1.0000 -0.221884426
C   C40       1.0  0.24120  0.73761  0.85514  1.0000 -0.221884426
C   C41       1.0  0.01280  0.70454  0.36838  1.0000 -0.1082444613
C   C42       1.0  0.98720  0.20454  0.13162  1.0000 -0.1082444613
C   C43       1.0  0.98720  0.29546  0.63162  1.0000 -0.1082444613
C   C44       1.0  0.01280  0.79546  0.86838  1.0000 -0.1082444613
C   C45       1.0  0.90710  0.69205  0.31373  1.0000 -0.0337077354
C   C46       1.0  0.09290  0.19205  0.18627  1.0000 -0.0337077354
C   C47       1.0  0.09290  0.30795  0.68627  1.0000 -0.0337077354
C   C48       1.0  0.90710  0.80795  0.81373  1.0000 -0.0337077354
C   C49       1.0  0.05200  0.74980  0.24437  1.0000 0.0570580333
C   C50       1.0  0.94800  0.24980  0.25563  1.0000 0.0570580333
C   C51       1.0  0.94800  0.25020  0.75563  1.0000 0.0570580333
C   C52       1.0  0.05200  0.75020  0.74437  1.0000 0.0570580333
C   C53       1.0  0.41980  0.86303  0.37776  1.0000 -0.221884426
C   C54       1.0  0.58020  0.36303  0.12224  1.0000 -0.221884426
C   C55       1.0  0.58020  0.13697  0.62224  1.0000 -0.221884426
C   C56       1.0  0.41980  0.63697  0.87776  1.0000 -0.221884426
C   C57       1.0  0.56020  0.74040  0.40310  1.0000 -0.1342583404
C   C58       1.0  0.43980  0.24040  0.09690  1.0000 -0.1342583404
C   C59       1.0  0.43980  0.25960  0.59690  1.0000 -0.1342583404
C   C60       1.0  0.56020  0.75960  0.90310  1.0000 -0.1382210718
C   C61       1.0  0.64290  0.71466  0.46762  1.0000 -0.0337077354
C   C62       1.0  0.35710  0.21466  0.03238  1.0000 -0.0337077354
C   C63       1.0  0.35710  0.28534  0.53238  1.0000 -0.0337077354
C   C64       1.0  0.64290  0.78534  0.96762  1.0000 -0.0337077354
C   C65       1.0  0.55200  0.82011  0.51058  1.0000 0.050026315
C   C66       1.0  0.44800  0.32011  0.98942  1.0000 0.050026315
C   C67       1.0  0.44800  0.17989  0.48942  1.0000 0.050026315
C   C68       1.0  0.55200  0.67989  0.01058  1.0000 0.050026315
C   C69       1.0  0.87250  0.59935  0.64678  1.0000 0.6021781309
C   C70       1.0  0.12750  0.09935  0.85322  1.0000 0.6021781309
C   C71       1.0  0.12750  0.40065  0.35322  1.0000 0.6021781309
C   C72       1.0  0.87250  0.90065  0.14678  1.0000 0.6021781309
C   C73       1.0  0.93610  0.52780  0.60796  1.0000 -0.3399803818
C   C74       1.0  0.06390  0.02780  0.89204  1.0000 -0.3399803818
C   C75       1.0  0.06390  0.47220  0.39204  1.0000 -0.3399803818
C   C76       1.0  0.93610  0.97220  0.10796  1.0000 -0.3399803818
C   C77       1.0  0.97230  0.53751  0.51877  1.0000 -0.1494009507
C   C78       1.0  0.02770  0.03751  0.98123  1.0000 -0.1494009507
C   C79       1.0  0.02770  0.46249  0.48123  1.0000 -0.1494009507
C   C80       1.0  0.97230  0.96249  0.01877  1.0000 -0.1494009507
N   N1        1.0  0.25498  0.98512  0.30017  1.0000 0.0332772755
N   N2        1.0  0.74502  0.48512  0.19983  1.0000 0.0332772755
N   N3        1.0  0.74502  0.01488  0.69983  1.0000 0.0332772755
N   N4        1.0  0.25498  0.51488  0.80017  1.0000 0.0332772755
N   N5        1.0  0.27031  0.11295  0.33324  1.0000 -0.2904339761
N   N6        1.0  0.72969  0.61295  0.16676  1.0000 -0.2904339761
N   N7        1.0  0.72969  0.88705  0.66676  1.0000 -0.2904339761
N   N8        1.0  0.27031  0.38705  0.83324  1.0000 -0.2904339761
N   N9        1.0  0.08203  0.86433  0.47473  1.0000 0.0387105472
N   N10       1.0  0.91797  0.36433  0.02527  1.0000 0.0387105472
N   N11       1.0  0.91797  0.13567  0.52527  1.0000 0.0387105472
N   N12       1.0  0.08203  0.63567  0.97473  1.0000 0.0387105472
N   N13       1.0  0.91161  0.82328  0.54284  1.0000 -0.2904339761
N   N14       1.0  0.08839  0.32328  0.95716  1.0000 -0.2904339761
N   N15       1.0  0.08839  0.17672  0.45716  1.0000 -0.2904339761
N   N16       1.0  0.91161  0.67672  0.04284  1.0000 -0.2904339761
N   N17       1.0  0.10503  0.74213  0.32413  1.0000 0.0387105472
N   N18       1.0  0.89497  0.24213  0.17587  1.0000 0.0387105472
N   N19       1.0  0.89497  0.25787  0.67587  1.0000 0.0387105472
N   N20       1.0  0.10503  0.75787  0.82413  1.0000 0.0387105472
N   N21       1.0  0.93120  0.72096  0.23555  1.0000 -0.2732468427
N   N22       1.0  0.06880  0.22096  0.26445  1.0000 -0.2732468427
N   N23       1.0  0.06880  0.27904  0.76445  1.0000 -0.2732468427
N   N24       1.0  0.93120  0.77904  0.73555  1.0000 -0.2732468427
N   N25       1.0  0.50037  0.80751  0.43090  1.0000 0.0332772755
N   N26       1.0  0.49963  0.30751  0.06910  1.0000 0.0332772755
N   N27       1.0  0.49963  0.19249  0.56910  1.0000 0.0332772755
N   N28       1.0  0.50037  0.69249  0.93090  1.0000 0.0387105472
N   N29       1.0  0.63894  0.76531  0.53500  1.0000 -0.2732468427
N   N30       1.0  0.36106  0.26531  0.96500  1.0000 -0.2732468427
N   N31       1.0  0.36106  0.23469  0.46500  1.0000 -0.2732468427
N   N32       1.0  0.63894  0.73469  0.03500  1.0000 -0.2732468427
O   O1        1.0  0.86078  0.66184  0.60217  1.0000 -0.5767298297
O   O2        1.0  0.13922  0.16184  0.89783  1.0000 -0.5767298297
O   O3        1.0  0.13922  0.33816  0.39783  1.0000 -0.5767298297
O   O4        1.0  0.86078  0.83816  0.10217  1.0000 -0.5767298297
O   O5        1.0  0.83536  0.59185  0.71990  1.0000 -0.6017153517
O   O6        1.0  0.16464  0.09185  0.78010  1.0000 -0.6017153517
O   O7        1.0  0.16464  0.40815  0.28010  1.0000 -0.6017153517
O   O8        1.0  0.83536  0.90815  0.21990  1.0000 -0.6017153517
O   O9        1.0  0.66568  0.71835  0.71727  1.0000 -0.6296241985
O   O10       1.0  0.33432  0.21835  0.78273  1.0000 -0.6296241985
O   O11       1.0  0.33432  0.28165  0.28273  1.0000 -0.6296241985
O   O12       1.0  0.66568  0.78165  0.21727  1.0000 -0.6296241985
