# DDEC6 charges by PACMAN v1.1 (https://github.com/mtap-research/PACMAN-charge/)
data_2011[GdCu][stp]3[FSR]1
_chemical_formula_sum              "Gd4 Cu6 H60 C48 N12 O48"
_cell_length_a       13.4147
_cell_length_b       13.4147
_cell_length_c       14.4622
_cell_angle_alpha    90
_cell_angle_beta     90
_cell_angle_gamma    120

_symmetry_space_group_name_H-M    "P 1"
_symmetry_Int_Tables_number       1

loop_
  _symmetry_equiv_pos_as_xyz
  'x, y, z'

loop_
  _atom_site_type_symbol
  _atom_site_label
  _atom_site_symmetry_multiplicity
  _atom_site_fract_x
  _atom_site_fract_y
  _atom_site_fract_z
  _atom_site_occupancy
  _atom_site_charge
Gd  Gd1       1.0  0.66667  0.33333  0.33270  1.0000 2.016772014
Gd  Gd2       1.0  0.33333  0.66667  0.16730  1.0000 2.016772014
Gd  Gd3       1.0  0.33333  0.66667  0.66730  1.0000 2.016772014
Gd  Gd4       1.0  0.66667  0.33333  0.83270  1.0000 2.016772014
Cu  Cu1       1.0  0.50000  0.50000  0.50000  1.0000 0.7543936592
Cu  Cu2       1.0  0.50000  0.00000  0.50000  1.0000 0.7543936592
Cu  Cu3       1.0  0.00000  0.50000  0.50000  1.0000 0.7543936592
Cu  Cu4       1.0  0.00000  0.50000  0.00000  1.0000 0.7543936592
Cu  Cu5       1.0  0.50000  0.00000  0.00000  1.0000 0.7543936592
Cu  Cu6       1.0  0.50000  0.50000  0.00000  1.0000 0.7543936592
H   H1        1.0  0.29550  0.25510  0.44900  1.0000 0.1407995047
H   H2        1.0  0.74490  0.04040  0.44900  1.0000 0.1407995047
H   H3        1.0  0.95960  0.70450  0.44900  1.0000 0.1407995047
H   H4        1.0  0.04040  0.74490  0.05100  1.0000 0.1407995047
H   H5        1.0  0.70450  0.95960  0.05100  1.0000 0.1407995047
H   H6        1.0  0.25510  0.29550  0.05100  1.0000 0.1407995047
H   H7        1.0  0.70450  0.74490  0.55100  1.0000 0.1407995047
H   H8        1.0  0.25510  0.95960  0.55100  1.0000 0.1407995047
H   H9        1.0  0.04040  0.29550  0.55100  1.0000 0.1407995047
H   H10       1.0  0.95960  0.25510  0.94900  1.0000 0.1407995047
H   H11       1.0  0.29550  0.04040  0.94900  1.0000 0.1407995047
H   H12       1.0  0.74490  0.70450  0.94900  1.0000 0.1407995047
H   H13       1.0  0.31830  0.18060  0.52040  1.0000 0.1303448798
H   H14       1.0  0.81940  0.13770  0.52040  1.0000 0.1303448798
H   H15       1.0  0.86230  0.68170  0.52040  1.0000 0.1303448798
H   H16       1.0  0.13770  0.81940  0.97960  1.0000 0.1303448798
H   H17       1.0  0.68170  0.86230  0.97960  1.0000 0.1303448798
H   H18       1.0  0.18060  0.31830  0.97960  1.0000 0.1303448798
H   H19       1.0  0.68170  0.81940  0.47960  1.0000 0.1303448798
H   H20       1.0  0.18060  0.86230  0.47960  1.0000 0.1303448798
H   H21       1.0  0.13770  0.31830  0.47960  1.0000 0.1303448798
H   H22       1.0  0.86230  0.18060  0.02040  1.0000 0.1303448798
H   H23       1.0  0.31830  0.13770  0.02040  1.0000 0.1303448798
H   H24       1.0  0.81940  0.68170  0.02040  1.0000 0.1303448798
H   H25       1.0  0.46000  0.26730  0.62840  1.0000 0.1564688803
H   H26       1.0  0.73270  0.19270  0.62840  1.0000 0.1564688803
H   H27       1.0  0.80730  0.54000  0.62840  1.0000 0.1564688803
H   H28       1.0  0.19270  0.73270  0.87160  1.0000 0.1564688803
H   H29       1.0  0.54000  0.80730  0.87160  1.0000 0.1564688803
H   H30       1.0  0.26730  0.46000  0.87160  1.0000 0.1564688803
H   H31       1.0  0.54000  0.73270  0.37160  1.0000 0.1564688803
H   H32       1.0  0.26730  0.80730  0.37160  1.0000 0.1564688803
H   H33       1.0  0.19270  0.46000  0.37160  1.0000 0.1564688803
H   H34       1.0  0.80730  0.26730  0.12840  1.0000 0.1564688803
H   H35       1.0  0.46000  0.19270  0.12840  1.0000 0.1564688803
H   H36       1.0  0.73270  0.54000  0.12840  1.0000 0.1564688803
H   H37       1.0  0.39840  0.31330  0.69340  1.0000 0.1516064526
H   H38       1.0  0.68670  0.08510  0.69340  1.0000 0.1516064526
H   H39       1.0  0.91490  0.60160  0.69340  1.0000 0.1516064526
H   H40       1.0  0.08510  0.68670  0.80660  1.0000 0.1516064526
H   H41       1.0  0.60160  0.91490  0.80660  1.0000 0.1516064526
H   H42       1.0  0.31330  0.39840  0.80660  1.0000 0.1516064526
H   H43       1.0  0.60160  0.68670  0.30660  1.0000 0.1516064526
H   H44       1.0  0.31330  0.91490  0.30660  1.0000 0.1516064526
H   H45       1.0  0.08510  0.39840  0.30660  1.0000 0.1516064526
H   H46       1.0  0.91490  0.31330  0.19340  1.0000 0.1516064526
H   H47       1.0  0.39840  0.08510  0.19340  1.0000 0.1516064526
H   H48       1.0  0.68670  0.60160  0.19340  1.0000 0.1516064526
H   H49       1.0  0.32730  0.35040  0.57880  1.0000 0.2621092594
H   H50       1.0  0.64960  0.97690  0.57880  1.0000 0.2621092594
H   H51       1.0  0.02310  0.67270  0.57880  1.0000 0.2621092594
H   H52       1.0  0.97690  0.64960  0.92120  1.0000 0.2621092594
H   H53       1.0  0.67270  0.02310  0.92120  1.0000 0.2621092594
H   H54       1.0  0.35040  0.32730  0.92120  1.0000 0.2621092594
H   H55       1.0  0.67270  0.64960  0.42120  1.0000 0.2621092594
H   H56       1.0  0.35040  0.02310  0.42120  1.0000 0.2621092594
H   H57       1.0  0.97690  0.32730  0.42120  1.0000 0.2621092594
H   H58       1.0  0.02310  0.35040  0.07880  1.0000 0.2621092594
H   H59       1.0  0.32730  0.97690  0.07880  1.0000 0.2621092594
H   H60       1.0  0.64960  0.67270  0.07880  1.0000 0.2621092594
C   C1        1.0  0.45440  0.27010  0.43200  1.0000 0.6200073184
C   C2        1.0  0.72990  0.18430  0.43200  1.0000 0.6200073184
C   C3        1.0  0.81570  0.54560  0.43200  1.0000 0.6200073184
C   C4        1.0  0.18430  0.72990  0.06800  1.0000 0.6200073184
C   C5        1.0  0.54560  0.81570  0.06800  1.0000 0.6200073184
C   C6        1.0  0.27010  0.45440  0.06800  1.0000 0.6200073184
C   C7        1.0  0.54560  0.72990  0.56800  1.0000 0.6200073184
C   C8        1.0  0.27010  0.81570  0.56800  1.0000 0.6200073184
C   C9        1.0  0.18430  0.45440  0.56800  1.0000 0.6200073184
C   C10       1.0  0.81570  0.27010  0.93200  1.0000 0.6200073184
C   C11       1.0  0.45440  0.18430  0.93200  1.0000 0.6200073184
C   C12       1.0  0.72990  0.54560  0.93200  1.0000 0.6200073184
C   C13       1.0  0.35300  0.25450  0.48920  1.0000 -0.2418037408
C   C14       1.0  0.74550  0.09850  0.48920  1.0000 -0.2418037408
C   C15       1.0  0.90150  0.64700  0.48920  1.0000 -0.2418037408
C   C16       1.0  0.09850  0.74550  0.01080  1.0000 -0.2418037408
C   C17       1.0  0.64700  0.90150  0.01080  1.0000 -0.2418037408
C   C18       1.0  0.25450  0.35300  0.01080  1.0000 -0.2418037408
C   C19       1.0  0.64700  0.74550  0.51080  1.0000 -0.2418037408
C   C20       1.0  0.25450  0.90150  0.51080  1.0000 -0.2418037408
C   C21       1.0  0.09850  0.35300  0.51080  1.0000 -0.2418037408
C   C22       1.0  0.90150  0.25450  0.98920  1.0000 -0.2418037408
C   C23       1.0  0.35300  0.09850  0.98920  1.0000 -0.2418037408
C   C24       1.0  0.74550  0.64700  0.98920  1.0000 -0.2418037408
C   C25       1.0  0.44800  0.33180  0.63980  1.0000 -0.2591996222
C   C26       1.0  0.66820  0.11620  0.63980  1.0000 -0.2591996222
C   C27       1.0  0.88380  0.55200  0.63980  1.0000 -0.2591996222
C   C28       1.0  0.11620  0.66820  0.86020  1.0000 -0.2591996222
C   C29       1.0  0.55200  0.88380  0.86020  1.0000 -0.2591996222
C   C30       1.0  0.33180  0.44800  0.86020  1.0000 -0.2591996222
C   C31       1.0  0.55200  0.66820  0.36020  1.0000 -0.2591996222
C   C32       1.0  0.33180  0.88380  0.36020  1.0000 -0.2591996222
C   C33       1.0  0.11620  0.44800  0.36020  1.0000 -0.2591996222
C   C34       1.0  0.88380  0.33180  0.13980  1.0000 -0.2591996222
C   C35       1.0  0.44800  0.11620  0.13980  1.0000 -0.2591996222
C   C36       1.0  0.66820  0.55200  0.13980  1.0000 -0.2591996222
C   C37       1.0  0.56220  0.43750  0.66030  1.0000 0.6556757511
C   C38       1.0  0.56250  0.12470  0.66030  1.0000 0.6556757511
C   C39       1.0  0.87530  0.43780  0.66030  1.0000 0.6556757511
C   C40       1.0  0.12470  0.56250  0.83970  1.0000 0.6556757511
C   C41       1.0  0.43780  0.87530  0.83970  1.0000 0.6556757511
C   C42       1.0  0.43750  0.56220  0.83970  1.0000 0.6556757511
C   C43       1.0  0.43780  0.56250  0.33970  1.0000 0.6556757511
C   C44       1.0  0.43750  0.87530  0.33970  1.0000 0.6556757511
C   C45       1.0  0.12470  0.56220  0.33970  1.0000 0.6556757511
C   C46       1.0  0.87530  0.43750  0.16030  1.0000 0.6556757511
C   C47       1.0  0.56220  0.12470  0.16030  1.0000 0.6556757511
C   C48       1.0  0.56250  0.43780  0.16030  1.0000 0.6556757511
N   N1        1.0  0.39030  0.34790  0.55890  1.0000 -0.2591996222
N   N2        1.0  0.65210  0.04240  0.55890  1.0000 -0.2591996222
N   N3        1.0  0.95760  0.60970  0.55890  1.0000 -0.2591996222
N   N4        1.0  0.04240  0.65210  0.94110  1.0000 -0.2591996222
N   N5        1.0  0.60970  0.95760  0.94110  1.0000 -0.2591996222
N   N6        1.0  0.34790  0.39030  0.94110  1.0000 -0.2591996222
N   N7        1.0  0.60970  0.65210  0.44110  1.0000 -0.2591996222
N   N8        1.0  0.34790  0.95760  0.44110  1.0000 -0.2591996222
N   N9        1.0  0.04240  0.39030  0.44110  1.0000 -0.2591996222
N   N10       1.0  0.95760  0.34790  0.05890  1.0000 -0.2591996222
N   N11       1.0  0.39030  0.04240  0.05890  1.0000 -0.2591996222
N   N12       1.0  0.65210  0.60970  0.05890  1.0000 -0.2591996222
O   O1        1.0  0.54980  0.36190  0.44260  1.0000 -0.6460256754
O   O2        1.0  0.63810  0.18790  0.44260  1.0000 -0.6460256754
O   O3        1.0  0.81210  0.45020  0.44260  1.0000 -0.6460256754
O   O4        1.0  0.18790  0.63810  0.05740  1.0000 -0.6460256754
O   O5        1.0  0.45020  0.81210  0.05740  1.0000 -0.6460256754
O   O6        1.0  0.36190  0.54980  0.05740  1.0000 -0.6460256754
O   O7        1.0  0.45020  0.63810  0.55740  1.0000 -0.6460256754
O   O8        1.0  0.36190  0.81210  0.55740  1.0000 -0.6460256754
O   O9        1.0  0.18790  0.54980  0.55740  1.0000 -0.6460256754
O   O10       1.0  0.81210  0.36190  0.94260  1.0000 -0.6460256754
O   O11       1.0  0.54980  0.18790  0.94260  1.0000 -0.6460256754
O   O12       1.0  0.63810  0.45020  0.94260  1.0000 -0.6460256754
O   O13       1.0  0.44210  0.19610  0.37350  1.0000 -0.6012041945
O   O14       1.0  0.80390  0.24600  0.37350  1.0000 -0.6012041945
O   O15       1.0  0.75400  0.55790  0.37350  1.0000 -0.6012041945
O   O16       1.0  0.24600  0.80390  0.12650  1.0000 -0.6012041945
O   O17       1.0  0.55790  0.75400  0.12650  1.0000 -0.6012041945
O   O18       1.0  0.19610  0.44210  0.12650  1.0000 -0.6012041945
O   O19       1.0  0.55790  0.80390  0.62650  1.0000 -0.6012041945
O   O20       1.0  0.19610  0.75400  0.62650  1.0000 -0.6012041945
O   O21       1.0  0.24600  0.44210  0.62650  1.0000 -0.6012041945
O   O22       1.0  0.75400  0.19610  0.87350  1.0000 -0.6012041945
O   O23       1.0  0.44210  0.24600  0.87350  1.0000 -0.6012041945
O   O24       1.0  0.80390  0.55790  0.87350  1.0000 -0.6012041945
O   O25       1.0  0.59760  0.52440  0.60800  1.0000 -0.514403957
O   O26       1.0  0.47560  0.07320  0.60800  1.0000 -0.514403957
O   O27       1.0  0.92680  0.40240  0.60800  1.0000 -0.514403957
O   O28       1.0  0.07320  0.47560  0.89200  1.0000 -0.514403957
O   O29       1.0  0.40240  0.92680  0.89200  1.0000 -0.514403957
O   O30       1.0  0.52440  0.59760  0.89200  1.0000 -0.514403957
O   O31       1.0  0.40240  0.47560  0.39200  1.0000 -0.514403957
O   O32       1.0  0.52440  0.92680  0.39200  1.0000 -0.514403957
O   O33       1.0  0.07320  0.59760  0.39200  1.0000 -0.514403957
O   O34       1.0  0.92680  0.52440  0.10800  1.0000 -0.514403957
O   O35       1.0  0.59760  0.07320  0.10800  1.0000 -0.514403957
O   O36       1.0  0.47560  0.40240  0.10800  1.0000 -0.514403957
O   O37       1.0  0.61820  0.43500  0.72830  1.0000 -0.6445024679
O   O38       1.0  0.56500  0.18320  0.72830  1.0000 -0.6445024679
O   O39       1.0  0.81680  0.38180  0.72830  1.0000 -0.6445024679
O   O40       1.0  0.18320  0.56500  0.77170  1.0000 -0.6460256754
O   O41       1.0  0.38180  0.81680  0.77170  1.0000 -0.6445024679
O   O42       1.0  0.43500  0.61820  0.77170  1.0000 -0.6445024679
O   O43       1.0  0.38180  0.56500  0.27170  1.0000 -0.6445024679
O   O44       1.0  0.43500  0.81680  0.27170  1.0000 -0.6445024679
O   O45       1.0  0.18320  0.61820  0.27170  1.0000 -0.6445024679
O   O46       1.0  0.81680  0.43500  0.22830  1.0000 -0.6445024679
O   O47       1.0  0.61820  0.18320  0.22830  1.0000 -0.6445024679
O   O48       1.0  0.56500  0.38180  0.22830  1.0000 -0.6445024679
