# DDEC6 charges by PACMAN v1.1 (https://github.com/mtap-research/PACMAN-charge/)
data_2011[Zn][nan]3[FSR]20
_chemical_formula_sum              "Zn4 H64 C80 N8 O16"
_cell_length_a       11.3658
_cell_length_b       11.3658
_cell_length_c       22.1265
_cell_angle_alpha    77.5663
_cell_angle_beta     102.434
_cell_angle_gamma    130.709

_symmetry_space_group_name_H-M    "P 1"
_symmetry_Int_Tables_number       1

loop_
  _symmetry_equiv_pos_as_xyz
  'x, y, z'

loop_
  _atom_site_type_symbol
  _atom_site_label
  _atom_site_symmetry_multiplicity
  _atom_site_fract_x
  _atom_site_fract_y
  _atom_site_fract_z
  _atom_site_occupancy
  _atom_site_charge
Zn  Zn1       1.0  0.58756  0.92106  0.62010  1.0000 0.7230709403
Zn  Zn2       1.0  0.92106  0.58756  0.87989  1.0000 0.7230709403
Zn  Zn3       1.0  0.41244  0.07894  0.37989  1.0000 0.7230709403
Zn  Zn4       1.0  0.07894  0.41244  0.12011  1.0000 0.7230709403
H   H1        1.0  0.43160  0.03660  0.54590  1.0000 0.112510091
H   H2        1.0  0.03660  0.43160  0.95410  1.0000 0.112510091
H   H3        1.0  0.56840  0.96340  0.45410  1.0000 0.112510091
H   H4        1.0  0.96340  0.56840  0.04590  1.0000 0.112510091
H   H5        1.0  0.19730  0.98250  0.52420  1.0000 0.1458154659
H   H6        1.0  0.98250  0.19730  0.97579  1.0000 0.1458154659
H   H7        1.0  0.80270  0.01750  0.47579  1.0000 0.1458154659
H   H8        1.0  0.01750  0.80270  0.02421  1.0000 0.1458154659
H   H9        1.0  0.02410  0.61250  0.64801  1.0000 0.1428866358
H   H10       1.0  0.61250  0.02410  0.85199  1.0000 0.1428866358
H   H11       1.0  0.97590  0.38750  0.35200  1.0000 0.1428866358
H   H12       1.0  0.38750  0.97590  0.14800  1.0000 0.1428866358
H   H13       1.0  0.26300  0.67500  0.66651  1.0000 0.112510091
H   H14       1.0  0.67500  0.26300  0.83349  1.0000 0.112510091
H   H15       1.0  0.73700  0.32500  0.33349  1.0000 0.112510091
H   H16       1.0  0.32500  0.73700  0.16650  1.0000 0.112510091
H   H17       1.0  0.91020  0.78500  0.52790  1.0000 0.1187481151
H   H18       1.0  0.78500  0.91020  0.97210  1.0000 0.1187481151
H   H19       1.0  0.08980  0.21500  0.47209  1.0000 0.1187481151
H   H20       1.0  0.21500  0.08980  0.02790  1.0000 0.1187481151
H   H21       1.0  0.84450  0.64650  0.58081  1.0000 0.1187481151
H   H22       1.0  0.64650  0.84450  0.91919  1.0000 0.1187481151
H   H23       1.0  0.15550  0.35350  0.41919  1.0000 0.1187481151
H   H24       1.0  0.35350  0.15550  0.08080  1.0000 0.1187481151
H   H25       1.0  0.82270  0.83350  0.59460  1.0000 0.1187481151
H   H26       1.0  0.83350  0.82270  0.90539  1.0000 0.1187481151
H   H27       1.0  0.17730  0.16650  0.40539  1.0000 0.1187481151
H   H28       1.0  0.16650  0.17730  0.09460  1.0000 0.1187481151
H   H29       1.0  0.00560  0.95520  0.60481  1.0000 0.1263104066
H   H30       1.0  0.95520  0.00560  0.89519  1.0000 0.1263104066
H   H31       1.0  0.99440  0.04480  0.39519  1.0000 0.1263104066
H   H32       1.0  0.04480  0.99440  0.10480  1.0000 0.1263104066
H   H33       1.0  0.12550  0.85950  0.80070  1.0000 0.1187481151
H   H34       1.0  0.85950  0.12550  0.69929  1.0000 0.1187481151
H   H35       1.0  0.87450  0.14050  0.19929  1.0000 0.1187481151
H   H36       1.0  0.14050  0.87450  0.30071  1.0000 0.1187481151
H   H37       1.0  0.13180  0.96080  0.70140  1.0000 0.1428866358
H   H38       1.0  0.96080  0.13180  0.79860  1.0000 0.1428866358
H   H39       1.0  0.86820  0.03920  0.29859  1.0000 0.1428866358
H   H40       1.0  0.03920  0.86820  0.20141  1.0000 0.1428866358
H   H41       1.0  0.68900  0.59160  0.67051  1.0000 0.1428866358
H   H42       1.0  0.59160  0.68900  0.82949  1.0000 0.1428866358
H   H43       1.0  0.31100  0.40840  0.32949  1.0000 0.1428866358
H   H44       1.0  0.40840  0.31100  0.17050  1.0000 0.1428866358
H   H45       1.0  0.69220  0.49960  0.77050  1.0000 0.112510091
H   H46       1.0  0.49960  0.69220  0.72949  1.0000 0.112510091
H   H47       1.0  0.30780  0.50040  0.22950  1.0000 0.112510091
H   H48       1.0  0.50040  0.30780  0.27050  1.0000 0.112510091
H   H49       1.0  0.13670  0.41290  0.54470  1.0000 0.1187481151
H   H50       1.0  0.41290  0.13670  0.95530  1.0000 0.1187481151
H   H51       1.0  0.86330  0.58710  0.45530  1.0000 0.1187481151
H   H52       1.0  0.58710  0.86330  0.04471  1.0000 0.1187481151
H   H53       1.0  0.74240  0.35440  0.51670  1.0000 0.1187481151
H   H54       1.0  0.35440  0.74240  0.98330  1.0000 0.1187481151
H   H55       1.0  0.25760  0.64560  0.48329  1.0000 0.1187481151
H   H56       1.0  0.64560  0.25760  0.01671  1.0000 0.1187481151
H   H57       1.0  0.43600  0.39740  0.59820  1.0000 0.1263104066
H   H58       1.0  0.39740  0.43600  0.90179  1.0000 0.1263104066
H   H59       1.0  0.56400  0.60260  0.40179  1.0000 0.1263104066
H   H60       1.0  0.60260  0.56400  0.09821  1.0000 0.1263104066
H   H61       1.0  0.56080  0.73780  0.46341  1.0000 0.1187481151
H   H62       1.0  0.73780  0.56080  0.03660  1.0000 0.1187481151
H   H63       1.0  0.43920  0.26220  0.53660  1.0000 0.1187481151
H   H64       1.0  0.26220  0.43920  0.96340  1.0000 0.1187481151
C   C1        1.0  0.34881  0.94979  0.56739  1.0000 0.0788009375
C   C2        1.0  0.94979  0.34881  0.93261  1.0000 0.0788009375
C   C3        1.0  0.65119  0.05021  0.43262  1.0000 0.0788009375
C   C4        1.0  0.05021  0.65119  0.06739  1.0000 0.0788009375
C   C5        1.0  0.20769  0.91771  0.55422  1.0000 -0.1904948841
C   C6        1.0  0.91771  0.20769  0.94578  1.0000 -0.1904948841
C   C7        1.0  0.79231  0.08229  0.44578  1.0000 -0.1904948841
C   C8        1.0  0.08229  0.79231  0.05421  1.0000 -0.1904948841
C   C9        1.0  0.08159  0.79201  0.58437  1.0000 0.1599416643
C   C10       1.0  0.79201  0.08159  0.91562  1.0000 0.1599416643
C   C11       1.0  0.91841  0.20799  0.41563  1.0000 0.1599416643
C   C12       1.0  0.20799  0.91841  0.08438  1.0000 0.1599416643
C   C13       1.0  0.10581  0.70099  0.62653  1.0000 -0.1904948841
C   C14       1.0  0.70099  0.10581  0.87347  1.0000 -0.1904948841
C   C15       1.0  0.89419  0.29901  0.37346  1.0000 -0.1904948841
C   C16       1.0  0.29901  0.89419  0.12654  1.0000 -0.1904948841
C   C17       1.0  0.25042  0.73958  0.63748  1.0000 0.0700299128
C   C18       1.0  0.73958  0.25042  0.86252  1.0000 0.0700299128
C   C19       1.0  0.74958  0.26042  0.36252  1.0000 0.0700299128
C   C20       1.0  0.26042  0.74958  0.13748  1.0000 0.0700299128
C   C21       1.0  0.92692  0.75768  0.57171  1.0000 -0.2302776758
C   C22       1.0  0.75768  0.92692  0.92829  1.0000 -0.2302776758
C   C23       1.0  0.07308  0.24232  0.42829  1.0000 -0.2302776758
C   C24       1.0  0.24232  0.07308  0.07171  1.0000 -0.2302776758
C   C25       1.0  0.91612  0.84508  0.60959  1.0000 -0.2216830195
C   C26       1.0  0.84508  0.91612  0.89041  1.0000 -0.2216830195
C   C27       1.0  0.08388  0.15492  0.39042  1.0000 -0.2216830195
C   C28       1.0  0.15492  0.08388  0.10959  1.0000 -0.2216830195
C   C29       1.0  0.03572  0.80488  0.77324  1.0000 0.0589940681
C   C30       1.0  0.80488  0.03572  0.72676  1.0000 0.0589940681
C   C31       1.0  0.96428  0.19512  0.22676  1.0000 0.0589940681
C   C32       1.0  0.19512  0.96428  0.27325  1.0000 0.0589940681
C   C33       1.0  0.04066  0.86534  0.71464  1.0000 -0.1904948841
C   C34       1.0  0.86534  0.04066  0.78536  1.0000 -0.1904948841
C   C35       1.0  0.95934  0.13466  0.28536  1.0000 -0.1904948841
C   C36       1.0  0.13466  0.95934  0.21463  1.0000 -0.1904948841
C   C37       1.0  0.91173  0.78627  0.67457  1.0000 0.1458154659
C   C38       1.0  0.78627  0.91173  0.82542  1.0000 0.1458154659
C   C39       1.0  0.08827  0.21373  0.32543  1.0000 0.1458154659
C   C40       1.0  0.21373  0.08827  0.17458  1.0000 0.1458154659
C   C41       1.0  0.78054  0.64806  0.69700  1.0000 -0.2216830195
C   C42       1.0  0.64806  0.78054  0.80300  1.0000 -0.2216830195
C   C43       1.0  0.21946  0.35194  0.30301  1.0000 -0.2216830195
C   C44       1.0  0.35194  0.21946  0.19700  1.0000 -0.2216830195
C   C45       1.0  0.78260  0.59400  0.75604  1.0000 0.0700299128
C   C46       1.0  0.59400  0.78260  0.74396  1.0000 0.0700299128
C   C47       1.0  0.21740  0.40600  0.24395  1.0000 0.0700299128
C   C48       1.0  0.40600  0.21740  0.25605  1.0000 0.0700299128
C   C49       1.0  0.08176  0.44844  0.52656  1.0000 -0.1115433497
C   C50       1.0  0.44844  0.08176  0.97344  1.0000 -0.1115433497
C   C51       1.0  0.91824  0.55156  0.47343  1.0000 -0.1115433497
C   C52       1.0  0.55156  0.91824  0.02656  1.0000 -0.1115433497
C   C53       1.0  0.92732  0.36028  0.53692  1.0000 -0.032846308
C   C54       1.0  0.36028  0.92732  0.96307  1.0000 -0.032846308
C   C55       1.0  0.07268  0.63972  0.46308  1.0000 -0.032846308
C   C56       1.0  0.63972  0.07268  0.03692  1.0000 -0.032846308
C   C57       1.0  0.84616  0.41304  0.50999  1.0000 -0.1176735439
C   C58       1.0  0.41304  0.84616  0.99001  1.0000 -0.1176735439
C   C59       1.0  0.15384  0.58696  0.49001  1.0000 -0.1176735439
C   C60       1.0  0.58696  0.15384  0.00999  1.0000 -0.1176735439
C   C61       1.0  0.84954  0.20826  0.57596  1.0000 0.537485665
C   C62       1.0  0.20826  0.84954  0.92403  1.0000 0.537485665
C   C63       1.0  0.15046  0.79174  0.42403  1.0000 0.537485665
C   C64       1.0  0.79174  0.15046  0.07597  1.0000 0.537485665
C   C65       1.0  0.46248  0.43932  0.55771  1.0000 -0.1176735439
C   C66       1.0  0.43932  0.46248  0.94229  1.0000 -0.1176735439
C   C67       1.0  0.53752  0.56068  0.44229  1.0000 -0.1176735439
C   C68       1.0  0.56068  0.53752  0.05770  1.0000 -0.1176735439
C   C69       1.0  0.49917  0.58183  0.53647  1.0000 -0.032846308
C   C70       1.0  0.58183  0.49917  0.96352  1.0000 -0.032846308
C   C71       1.0  0.50083  0.41817  0.46352  1.0000 -0.032846308
C   C72       1.0  0.41817  0.50083  0.03648  1.0000 -0.032846308
C   C73       1.0  0.53618  0.64182  0.47869  1.0000 -0.1045487055
C   C74       1.0  0.64182  0.53618  0.02131  1.0000 -0.1045487055
C   C75       1.0  0.46382  0.35818  0.52131  1.0000 -0.1045487055
C   C76       1.0  0.35818  0.46382  0.97869  1.0000 -0.1045487055
C   C77       1.0  0.50418  0.67342  0.57637  1.0000 0.5266184568
C   C78       1.0  0.67342  0.50418  0.92363  1.0000 0.5266184568
C   C79       1.0  0.49582  0.32658  0.42362  1.0000 0.5266184568
C   C80       1.0  0.32658  0.49582  0.07637  1.0000 0.5266184568
N   N1        1.0  0.37327  0.86361  0.60906  1.0000 -0.2302776758
N   N2        1.0  0.86361  0.37327  0.89094  1.0000 -0.2302776758
N   N3        1.0  0.62673  0.13639  0.39094  1.0000 -0.2302776758
N   N4        1.0  0.13639  0.62673  0.10905  1.0000 -0.2302776758
N   N5        1.0  0.90871  0.67023  0.79438  1.0000 -0.2461595923
N   N6        1.0  0.67023  0.90871  0.70561  1.0000 -0.2461595923
N   N7        1.0  0.09129  0.32977  0.20561  1.0000 -0.2461595923
N   N8        1.0  0.32977  0.09129  0.29439  1.0000 -0.2461595923
O   O1        1.0  0.71043  0.14045  0.58651  1.0000 -0.5562150121
O   O2        1.0  0.14045  0.71043  0.91349  1.0000 -0.5562150121
O   O3        1.0  0.28957  0.85955  0.41349  1.0000 -0.5562150121
O   O4        1.0  0.85955  0.28957  0.08650  1.0000 -0.5562150121
O   O5        1.0  0.91799  0.15579  0.59542  1.0000 -0.5387989522
O   O6        1.0  0.15579  0.91799  0.90458  1.0000 -0.5387989522
O   O7        1.0  0.08201  0.84421  0.40458  1.0000 -0.5387989522
O   O8        1.0  0.84421  0.08201  0.09541  1.0000 -0.5387989522
O   O9        1.0  0.57929  0.81763  0.56003  1.0000 -0.520871529
O   O10       1.0  0.81763  0.57929  0.93996  1.0000 -0.520871529
O   O11       1.0  0.42071  0.18237  0.43996  1.0000 -0.520871529
O   O12       1.0  0.18237  0.42071  0.06003  1.0000 -0.520871529
O   O13       1.0  0.44100  0.60936  0.62329  1.0000 -0.5120674015
O   O14       1.0  0.60936  0.44100  0.87670  1.0000 -0.5120674015
O   O15       1.0  0.55900  0.39064  0.37670  1.0000 -0.5120674015
O   O16       1.0  0.39064  0.55900  0.12330  1.0000 -0.5120674015
