# DDEC6 charges by PACMAN v1.1 (https://github.com/mtap-research/PACMAN-charge/)
data_2011[Cd][nuc]3[FSR]4
_chemical_formula_sum              "Cd4 H144 C192 N48"
_cell_length_a       15.8545
_cell_length_b       15.8545
_cell_length_c       21.596
_cell_angle_alpha    90
_cell_angle_beta     90
_cell_angle_gamma    90

_symmetry_space_group_name_H-M    "P 1"
_symmetry_Int_Tables_number       1

loop_
  _symmetry_equiv_pos_as_xyz
  'x, y, z'

loop_
  _atom_site_type_symbol
  _atom_site_label
  _atom_site_symmetry_multiplicity
  _atom_site_fract_x
  _atom_site_fract_y
  _atom_site_fract_z
  _atom_site_occupancy
  _atom_site_charge
Cd  Cd1       1.0  0.94102  0.05898  0.75000  1.0000 0.6397175462
Cd  Cd2       1.0  0.05898  0.94102  0.25000  1.0000 0.6397175462
Cd  Cd3       1.0  0.44102  0.44102  0.50000  1.0000 0.6397175462
Cd  Cd4       1.0  0.55898  0.55898  0.00000  1.0000 0.6397175462
H   H1        1.0  0.88960  0.03700  0.90230  1.0000 0.0986834351
H   H2        1.0  0.11040  0.96300  0.40230  1.0000 0.0986834351
H   H3        1.0  0.46300  0.38960  0.65230  1.0000 0.0986834351
H   H4        1.0  0.53700  0.61040  0.15230  1.0000 0.0986834351
H   H5        1.0  0.61040  0.53700  0.84770  1.0000 0.0986834351
H   H6        1.0  0.38960  0.46300  0.34770  1.0000 0.0986834351
H   H7        1.0  0.03700  0.88960  0.09770  1.0000 0.0986834351
H   H8        1.0  0.96300  0.11040  0.59770  1.0000 0.0986834351
H   H9        1.0  0.78590  0.08610  0.96790  1.0000 0.1271863285
H   H10       1.0  0.21410  0.91390  0.46790  1.0000 0.1271863285
H   H11       1.0  0.41390  0.28590  0.71790  1.0000 0.1271863285
H   H12       1.0  0.58610  0.71410  0.21790  1.0000 0.1271863285
H   H13       1.0  0.71410  0.58610  0.78210  1.0000 0.1271863285
H   H14       1.0  0.28590  0.41390  0.28210  1.0000 0.1271863285
H   H15       1.0  0.08610  0.78590  0.03210  1.0000 0.1271863285
H   H16       1.0  0.91390  0.21410  0.53210  1.0000 0.1271863285
H   H17       1.0  0.75970  0.28780  0.85490  1.0000 0.1271863285
H   H18       1.0  0.24030  0.71220  0.35490  1.0000 0.1271863285
H   H19       1.0  0.21220  0.25970  0.60490  1.0000 0.1271863285
H   H20       1.0  0.78780  0.74030  0.10490  1.0000 0.1271863285
H   H21       1.0  0.74030  0.78780  0.89510  1.0000 0.1271863285
H   H22       1.0  0.25970  0.21220  0.39510  1.0000 0.1271863285
H   H23       1.0  0.28780  0.75970  0.14510  1.0000 0.1271863285
H   H24       1.0  0.71220  0.24030  0.64510  1.0000 0.1271863285
H   H25       1.0  0.85920  0.23020  0.79080  1.0000 0.0986834351
H   H26       1.0  0.14080  0.76980  0.29080  1.0000 0.0986834351
H   H27       1.0  0.26980  0.35920  0.54080  1.0000 0.0986834351
H   H28       1.0  0.73020  0.64080  0.04080  1.0000 0.0986834351
H   H29       1.0  0.64080  0.73020  0.95920  1.0000 0.0986834351
H   H30       1.0  0.35920  0.26980  0.45920  1.0000 0.0986834351
H   H31       1.0  0.23020  0.85920  0.20920  1.0000 0.0986834351
H   H32       1.0  0.76980  0.14080  0.70920  1.0000 0.0986834351
H   H33       1.0  0.69980  0.14850  0.03130  1.0000 0.0986834351
H   H34       1.0  0.30020  0.85150  0.53130  1.0000 0.0986834351
H   H35       1.0  0.35150  0.19980  0.78130  1.0000 0.0986834351
H   H36       1.0  0.64850  0.80020  0.28130  1.0000 0.0986834351
H   H37       1.0  0.80020  0.64850  0.71870  1.0000 0.0986834351
H   H38       1.0  0.19980  0.35150  0.21870  1.0000 0.0986834351
H   H39       1.0  0.14850  0.69980  0.96870  1.0000 0.0986834351
H   H40       1.0  0.85150  0.30020  0.46870  1.0000 0.0986834351
H   H41       1.0  0.58610  0.19880  0.08610  1.0000 0.1091556692
H   H42       1.0  0.41390  0.80120  0.58610  1.0000 0.1091556692
H   H43       1.0  0.30120  0.08610  0.83610  1.0000 0.1091556692
H   H44       1.0  0.69880  0.91390  0.33610  1.0000 0.1091556692
H   H45       1.0  0.91390  0.69880  0.66390  1.0000 0.1091556692
H   H46       1.0  0.08610  0.30120  0.16390  1.0000 0.1091556692
H   H47       1.0  0.19880  0.58610  0.91390  1.0000 0.1091556692
H   H48       1.0  0.80120  0.41390  0.41390  1.0000 0.1091556692
H   H49       1.0  0.49280  0.29620  0.04200  1.0000 0.1091556692
H   H50       1.0  0.50720  0.70380  0.54200  1.0000 0.1091556692
H   H51       1.0  0.20380  0.99280  0.79200  1.0000 0.1091556692
H   H52       1.0  0.79620  0.00720  0.29200  1.0000 0.1091556692
H   H53       1.0  0.00720  0.79620  0.70800  1.0000 0.1091556692
H   H54       1.0  0.99280  0.20380  0.20800  1.0000 0.1091556692
H   H55       1.0  0.29620  0.49280  0.95800  1.0000 0.1091556692
H   H56       1.0  0.70380  0.50720  0.45800  1.0000 0.1091556692
H   H57       1.0  0.64020  0.30300  0.88830  1.0000 0.1091556692
H   H58       1.0  0.35980  0.69700  0.38830  1.0000 0.1091556692
H   H59       1.0  0.19700  0.14020  0.63830  1.0000 0.1091556692
H   H60       1.0  0.80300  0.85980  0.13830  1.0000 0.1091556692
H   H61       1.0  0.85980  0.80300  0.86170  1.0000 0.1091556692
H   H62       1.0  0.14020  0.19700  0.36170  1.0000 0.1091556692
H   H63       1.0  0.30300  0.64020  0.11170  1.0000 0.1091556692
H   H64       1.0  0.69700  0.35980  0.61170  1.0000 0.1091556692
H   H65       1.0  0.38090  0.54520  0.79000  1.0000 0.1091556692
H   H66       1.0  0.61910  0.45480  0.29000  1.0000 0.1091556692
H   H67       1.0  0.95480  0.88090  0.54000  1.0000 0.1091556692
H   H68       1.0  0.04520  0.11910  0.04000  1.0000 0.1091556692
H   H69       1.0  0.11910  0.04520  0.96000  1.0000 0.1091556692
H   H70       1.0  0.88090  0.95480  0.46000  1.0000 0.1091556692
H   H71       1.0  0.54520  0.38090  0.21000  1.0000 0.1091556692
H   H72       1.0  0.45480  0.61910  0.71000  1.0000 0.1091556692
H   H73       1.0  0.26820  0.56520  0.72070  1.0000 0.1091556692
H   H74       1.0  0.73180  0.43480  0.22070  1.0000 0.1091556692
H   H75       1.0  0.93480  0.76820  0.47070  1.0000 0.1091556692
H   H76       1.0  0.06520  0.23180  0.97070  1.0000 0.1091556692
H   H77       1.0  0.23180  0.06520  0.02930  1.0000 0.1091556692
H   H78       1.0  0.76820  0.93480  0.52930  1.0000 0.1091556692
H   H79       1.0  0.56520  0.26820  0.27930  1.0000 0.1091556692
H   H80       1.0  0.43480  0.73180  0.77930  1.0000 0.1091556692
H   H81       1.0  0.16410  0.46270  0.71200  1.0000 0.1091556692
H   H82       1.0  0.83590  0.53730  0.21200  1.0000 0.1091556692
H   H83       1.0  0.03730  0.66410  0.46200  1.0000 0.1091556692
H   H84       1.0  0.96270  0.33590  0.96200  1.0000 0.1091556692
H   H85       1.0  0.33590  0.96270  0.03800  1.0000 0.1091556692
H   H86       1.0  0.66410  0.03730  0.53800  1.0000 0.1091556692
H   H87       1.0  0.46270  0.16410  0.28800  1.0000 0.1091556692
H   H88       1.0  0.53730  0.83590  0.78800  1.0000 0.1091556692
H   H89       1.0  0.27680  0.32510  0.84530  1.0000 0.1091556692
H   H90       1.0  0.72320  0.67490  0.34530  1.0000 0.1091556692
H   H91       1.0  0.17490  0.77680  0.59530  1.0000 0.1091556692
H   H92       1.0  0.82510  0.22320  0.09530  1.0000 0.1091556692
H   H93       1.0  0.22320  0.82510  0.90470  1.0000 0.1091556692
H   H94       1.0  0.77680  0.17490  0.40470  1.0000 0.1091556692
H   H95       1.0  0.32510  0.27680  0.15470  1.0000 0.1091556692
H   H96       1.0  0.67490  0.72320  0.65470  1.0000 0.1091556692
H   H97       1.0  0.10100  0.34760  0.68530  1.0000 0.1186601908
H   H98       1.0  0.89900  0.65240  0.18530  1.0000 0.1271863285
H   H99       1.0  0.15240  0.60100  0.43530  1.0000 0.1186601908
H   H100      1.0  0.84760  0.39900  0.93530  1.0000 0.1186601908
H   H101      1.0  0.39900  0.84760  0.06470  1.0000 0.1271863285
H   H102      1.0  0.60100  0.15240  0.56470  1.0000 0.1271863285
H   H103      1.0  0.34760  0.10100  0.31470  1.0000 0.1186601908
H   H104      1.0  0.65240  0.89900  0.81470  1.0000 0.1271863285
H   H105      1.0  0.00680  0.23780  0.67580  1.0000 0.0948701621
H   H106      1.0  0.99320  0.76220  0.17580  1.0000 0.0986834351
H   H107      1.0  0.26220  0.50680  0.42580  1.0000 0.0986834351
H   H108      1.0  0.73780  0.49320  0.92580  1.0000 0.0986834351
H   H109      1.0  0.49320  0.73780  0.07420  1.0000 0.0986834351
H   H110      1.0  0.50680  0.26220  0.57420  1.0000 0.0986834351
H   H111      1.0  0.23780  0.00680  0.32420  1.0000 0.0948701621
H   H112      1.0  0.76220  0.99320  0.82420  1.0000 0.0986834351
H   H113      1.0  0.05950  0.15740  0.84310  1.0000 0.0986834351
H   H114      1.0  0.94050  0.84260  0.34310  1.0000 0.0986834351
H   H115      1.0  0.34260  0.55950  0.59310  1.0000 0.0986834351
H   H116      1.0  0.65740  0.44050  0.09310  1.0000 0.0986834351
H   H117      1.0  0.44050  0.65740  0.90690  1.0000 0.0986834351
H   H118      1.0  0.55950  0.34260  0.40690  1.0000 0.0986834351
H   H119      1.0  0.15740  0.05950  0.15690  1.0000 0.0986834351
H   H120      1.0  0.84260  0.94050  0.65690  1.0000 0.0986834351
H   H121      1.0  0.15570  0.26500  0.85790  1.0000 0.1271863285
H   H122      1.0  0.84430  0.73500  0.35790  1.0000 0.1271863285
H   H123      1.0  0.23500  0.65570  0.60790  1.0000 0.1271863285
H   H124      1.0  0.76500  0.34430  0.10790  1.0000 0.1271863285
H   H125      1.0  0.34430  0.76500  0.89210  1.0000 0.1271863285
H   H126      1.0  0.65570  0.23500  0.39210  1.0000 0.1271863285
H   H127      1.0  0.26500  0.15570  0.14210  1.0000 0.1271863285
H   H128      1.0  0.73500  0.84430  0.64210  1.0000 0.1271863285
H   H129      1.0  0.47120  0.24020  0.85680  1.0000 0.2005696473
H   H130      1.0  0.52880  0.75980  0.35680  1.0000 0.2005696473
H   H131      1.0  0.25980  0.97120  0.60680  1.0000 0.2005696473
H   H132      1.0  0.74020  0.02880  0.10680  1.0000 0.2005696473
H   H133      1.0  0.02880  0.74020  0.89320  1.0000 0.2005696473
H   H134      1.0  0.97120  0.25980  0.39320  1.0000 0.2005696473
H   H135      1.0  0.24020  0.47120  0.14320  1.0000 0.2005696473
H   H136      1.0  0.75980  0.52880  0.64320  1.0000 0.2005696473
H   H137      1.0  0.41410  0.24050  0.90250  1.0000 0.2005696473
H   H138      1.0  0.58590  0.75950  0.40250  1.0000 0.2005696473
H   H139      1.0  0.25950  0.91410  0.65250  1.0000 0.2005696473
H   H140      1.0  0.74050  0.08590  0.15250  1.0000 0.2005696473
H   H141      1.0  0.08590  0.74050  0.84750  1.0000 0.2005696473
H   H142      1.0  0.91410  0.25950  0.34750  1.0000 0.2005696473
H   H143      1.0  0.24050  0.41410  0.09750  1.0000 0.2005696473
H   H144      1.0  0.75950  0.58590  0.59750  1.0000 0.2005696473
C   C1        1.0  0.86020  0.08700  0.89130  1.0000 0.0499878635
C   C2        1.0  0.13980  0.91300  0.39130  1.0000 0.0499878635
C   C3        1.0  0.41300  0.36020  0.64130  1.0000 0.0499878635
C   C4        1.0  0.58700  0.63980  0.14130  1.0000 0.0499878635
C   C5        1.0  0.63980  0.58700  0.85870  1.0000 0.0499878635
C   C6        1.0  0.36020  0.41300  0.35870  1.0000 0.0499878635
C   C7        1.0  0.08700  0.86020  0.10870  1.0000 0.0499878635
C   C8        1.0  0.91300  0.13980  0.60870  1.0000 0.0499878635
C   C9        1.0  0.79860  0.11620  0.93100  1.0000 -0.2008644861
C   C10       1.0  0.20140  0.88380  0.43100  1.0000 -0.2008644861
C   C11       1.0  0.38380  0.29860  0.68100  1.0000 -0.2008644861
C   C12       1.0  0.61620  0.70140  0.18100  1.0000 -0.2008644861
C   C13       1.0  0.70140  0.61620  0.81900  1.0000 -0.2008644861
C   C14       1.0  0.29860  0.38380  0.31900  1.0000 -0.2103937464
C   C15       1.0  0.11620  0.79860  0.06900  1.0000 -0.2008644861
C   C16       1.0  0.88380  0.20140  0.56900  1.0000 -0.2008644861
C   C17       1.0  0.75530  0.18990  0.91670  1.0000 0.1186601908
C   C18       1.0  0.24470  0.81010  0.41670  1.0000 0.1186601908
C   C19       1.0  0.31010  0.25530  0.66667  1.0000 0.1186601908
C   C20       1.0  0.68990  0.74470  0.16670  1.0000 0.1186601908
C   C21       1.0  0.74470  0.68990  0.83330  1.0000 0.1186601908
C   C22       1.0  0.25530  0.31010  0.33333  1.0000 0.1186601908
C   C23       1.0  0.18990  0.75530  0.08330  1.0000 0.1186601908
C   C24       1.0  0.81010  0.24470  0.58330  1.0000 0.1186601908
C   C25       1.0  0.78290  0.23400  0.86430  1.0000 -0.2103937464
C   C26       1.0  0.21710  0.76600  0.36430  1.0000 -0.2103937464
C   C27       1.0  0.26600  0.28290  0.61430  1.0000 -0.2103937464
C   C28       1.0  0.73400  0.71710  0.11430  1.0000 -0.2103937464
C   C29       1.0  0.71710  0.73400  0.88570  1.0000 -0.2103937464
C   C30       1.0  0.28290  0.26600  0.38570  1.0000 -0.2103937464
C   C31       1.0  0.23400  0.78290  0.13570  1.0000 -0.2103937464
C   C32       1.0  0.76600  0.21710  0.63570  1.0000 -0.2103937464
C   C33       1.0  0.84320  0.19960  0.82670  1.0000 0.041358645
C   C34       1.0  0.15680  0.80040  0.32670  1.0000 0.041358645
C   C35       1.0  0.30040  0.34320  0.57670  1.0000 0.041358645
C   C36       1.0  0.69960  0.65680  0.07670  1.0000 0.041358645
C   C37       1.0  0.65680  0.69960  0.92330  1.0000 0.041358645
C   C38       1.0  0.34320  0.30040  0.42330  1.0000 0.041358645
C   C39       1.0  0.19960  0.84320  0.17330  1.0000 0.041358645
C   C40       1.0  0.80040  0.15680  0.67330  1.0000 0.041358645
C   C41       1.0  0.68270  0.22110  0.95390  1.0000 0.0708295078
C   C42       1.0  0.31730  0.77890  0.45390  1.0000 0.0708295078
C   C43       1.0  0.27890  0.18270  0.70390  1.0000 0.0708295078
C   C44       1.0  0.72110  0.81730  0.20390  1.0000 0.0708295078
C   C45       1.0  0.81730  0.72110  0.79610  1.0000 0.0708295078
C   C46       1.0  0.18270  0.27890  0.29610  1.0000 0.0708295078
C   C47       1.0  0.22110  0.68270  0.04610  1.0000 0.0708295078
C   C48       1.0  0.77890  0.31730  0.54610  1.0000 0.0708295078
C   C49       1.0  0.66440  0.19020  0.01330  1.0000 -0.16954258
C   C50       1.0  0.33560  0.80980  0.51330  1.0000 -0.16954258
C   C51       1.0  0.30980  0.16440  0.76330  1.0000 -0.16954258
C   C52       1.0  0.69020  0.83560  0.26330  1.0000 -0.16954258
C   C53       1.0  0.83560  0.69020  0.73670  1.0000 -0.16954258
C   C54       1.0  0.16440  0.30980  0.23670  1.0000 -0.16954258
C   C55       1.0  0.19020  0.66440  0.98670  1.0000 -0.16954258
C   C56       1.0  0.80980  0.33560  0.48670  1.0000 -0.16954258
C   C57       1.0  0.59630  0.21930  0.04540  1.0000 -0.0992199434
C   C58       1.0  0.40370  0.78070  0.54540  1.0000 -0.0992199434
C   C59       1.0  0.28070  0.09630  0.79540  1.0000 -0.0992199434
C   C60       1.0  0.71930  0.90370  0.29540  1.0000 -0.0992199434
C   C61       1.0  0.90370  0.71930  0.70460  1.0000 -0.0992199434
C   C62       1.0  0.09630  0.28070  0.20460  1.0000 -0.0992199434
C   C63       1.0  0.21930  0.59630  0.95460  1.0000 -0.0992199434
C   C64       1.0  0.78070  0.40370  0.45460  1.0000 -0.0992199434
C   C65       1.0  0.54160  0.27830  0.02010  1.0000 -0.16954258
C   C66       1.0  0.45840  0.72170  0.52010  1.0000 -0.16954258
C   C67       1.0  0.22170  0.04160  0.77010  1.0000 -0.16954258
C   C68       1.0  0.77830  0.95840  0.27010  1.0000 -0.16954258
C   C69       1.0  0.95840  0.77830  0.72990  1.0000 -0.16954258
C   C70       1.0  0.04160  0.22170  0.22990  1.0000 -0.16954258
C   C71       1.0  0.27830  0.54160  0.97990  1.0000 -0.16954258
C   C72       1.0  0.72170  0.45840  0.47990  1.0000 -0.16954258
C   C73       1.0  0.55990  0.31050  0.96160  1.0000 0.0289087565
C   C74       1.0  0.44010  0.68950  0.46160  1.0000 0.0289087565
C   C75       1.0  0.18950  0.05990  0.71160  1.0000 0.0289087565
C   C76       1.0  0.81050  0.94010  0.21160  1.0000 0.0289087565
C   C77       1.0  0.94010  0.81050  0.78840  1.0000 0.0289087565
C   C78       1.0  0.05990  0.18950  0.28840  1.0000 0.0289087565
C   C79       1.0  0.31050  0.55990  0.03840  1.0000 0.0289087565
C   C80       1.0  0.68950  0.44010  0.53840  1.0000 0.0289087565
C   C81       1.0  0.62920  0.28150  0.92850  1.0000 -0.2103937464
C   C82       1.0  0.37080  0.71850  0.42850  1.0000 -0.2103937464
C   C83       1.0  0.21850  0.12920  0.67850  1.0000 -0.2103937464
C   C84       1.0  0.78150  0.87080  0.17850  1.0000 -0.2103937464
C   C85       1.0  0.87080  0.78150  0.82150  1.0000 -0.2103937464
C   C86       1.0  0.12920  0.21850  0.32150  1.0000 -0.2103937464
C   C87       1.0  0.28150  0.62920  0.07150  1.0000 -0.2103937464
C   C88       1.0  0.71850  0.37080  0.57150  1.0000 -0.2103937464
C   C89       1.0  0.50400  0.37280  0.93080  1.0000 0.1626964444
C   C90       1.0  0.49600  0.62720  0.43080  1.0000 0.1626964444
C   C91       1.0  0.12720  0.00400  0.68080  1.0000 0.1626964444
C   C92       1.0  0.87280  0.99600  0.18080  1.0000 0.1626964444
C   C93       1.0  0.99600  0.87280  0.81920  1.0000 0.1626964444
C   C94       1.0  0.00400  0.12720  0.31920  1.0000 0.1626964444
C   C95       1.0  0.37280  0.50400  0.06920  1.0000 0.1626964444
C   C96       1.0  0.62720  0.49600  0.56920  1.0000 0.1626964444
C   C97       1.0  0.40930  0.42360  0.86800  1.0000 0.177561407
C   C98       1.0  0.59070  0.57640  0.36800  1.0000 0.177561407
C   C99       1.0  0.07640  0.90930  0.61800  1.0000 0.177561407
C   C100      1.0  0.92360  0.09070  0.11800  1.0000 0.177561407
C   C101      1.0  0.09070  0.92360  0.88200  1.0000 0.177561407
C   C102      1.0  0.90930  0.07640  0.38200  1.0000 0.177561407
C   C103      1.0  0.42360  0.40930  0.13200  1.0000 0.177561407
C   C104      1.0  0.57640  0.59070  0.63200  1.0000 0.177561407
C   C105      1.0  0.33890  0.43260  0.82360  1.0000 0.041358645
C   C106      1.0  0.66110  0.56740  0.32360  1.0000 0.041358645
C   C107      1.0  0.06740  0.83890  0.57360  1.0000 0.041358645
C   C108      1.0  0.93260  0.16110  0.07360  1.0000 0.041358645
C   C109      1.0  0.16110  0.93260  0.92640  1.0000 0.041358645
C   C110      1.0  0.83890  0.06740  0.42640  1.0000 0.041358645
C   C111      1.0  0.43260  0.33890  0.17640  1.0000 0.041358645
C   C112      1.0  0.56740  0.66110  0.67640  1.0000 0.041358645
C   C113      1.0  0.33730  0.50430  0.78700  1.0000 -0.1592955786
C   C114      1.0  0.66270  0.49570  0.28700  1.0000 -0.1592955786
C   C115      1.0  0.99570  0.83730  0.53700  1.0000 -0.1592955786
C   C116      1.0  0.00430  0.16270  0.03700  1.0000 -0.1592955786
C   C117      1.0  0.16270  0.00430  0.96300  1.0000 -0.1592955786
C   C118      1.0  0.83730  0.99570  0.46300  1.0000 -0.1592955786
C   C119      1.0  0.50430  0.33730  0.21300  1.0000 -0.1592955786
C   C120      1.0  0.49570  0.66270  0.71300  1.0000 -0.1592955786
C   C121      1.0  0.27080  0.51580  0.74560  1.0000 -0.1105182349
C   C122      1.0  0.72920  0.48420  0.24560  1.0000 -0.1105182349
C   C123      1.0  0.98420  0.77080  0.49560  1.0000 -0.1105182349
C   C124      1.0  0.01580  0.22920  0.99560  1.0000 -0.1105182349
C   C125      1.0  0.22920  0.01580  0.00440  1.0000 -0.1105182349
C   C126      1.0  0.77080  0.98420  0.50440  1.0000 -0.1105182349
C   C127      1.0  0.51580  0.27080  0.25440  1.0000 -0.1105182349
C   C128      1.0  0.48420  0.72920  0.75440  1.0000 -0.1105182349
C   C129      1.0  0.20850  0.45500  0.74100  1.0000 -0.1592955786
C   C130      1.0  0.79150  0.54500  0.24100  1.0000 -0.1592955786
C   C131      1.0  0.04500  0.70850  0.49100  1.0000 -0.1592955786
C   C132      1.0  0.95500  0.29150  0.99100  1.0000 -0.1592955786
C   C133      1.0  0.29150  0.95500  0.00900  1.0000 -0.1592955786
C   C134      1.0  0.70850  0.04500  0.50900  1.0000 -0.1592955786
C   C135      1.0  0.45500  0.20850  0.25900  1.0000 -0.1592955786
C   C136      1.0  0.54500  0.79150  0.75900  1.0000 -0.1592955786
C   C137      1.0  0.20930  0.38330  0.77750  1.0000 0.0708295078
C   C138      1.0  0.79070  0.61670  0.27750  1.0000 0.0708295078
C   C139      1.0  0.11670  0.70930  0.52750  1.0000 0.0708295078
C   C140      1.0  0.88330  0.29070  0.02750  1.0000 0.0708295078
C   C141      1.0  0.29070  0.88330  0.97250  1.0000 0.0708295078
C   C142      1.0  0.70930  0.11670  0.47250  1.0000 0.0708295078
C   C143      1.0  0.38330  0.20930  0.22250  1.0000 0.0708295078
C   C144      1.0  0.61670  0.79070  0.72250  1.0000 0.0708295078
C   C145      1.0  0.27540  0.37340  0.81930  1.0000 -0.2008644861
C   C146      1.0  0.72460  0.62660  0.31930  1.0000 -0.2008644861
C   C147      1.0  0.12660  0.77540  0.56930  1.0000 -0.2008644861
C   C148      1.0  0.87340  0.22460  0.06930  1.0000 -0.2008644861
C   C149      1.0  0.22460  0.87340  0.93070  1.0000 -0.2008644861
C   C150      1.0  0.77540  0.12660  0.43070  1.0000 -0.2008644861
C   C151      1.0  0.37340  0.27540  0.18070  1.0000 -0.2008644861
C   C152      1.0  0.62660  0.72460  0.68070  1.0000 -0.2008644861
C   C153      1.0  0.14250  0.31790  0.77190  1.0000 0.1186601908
C   C154      1.0  0.85750  0.68210  0.27190  1.0000 0.1186601908
C   C155      1.0  0.18210  0.64250  0.52190  1.0000 0.1186601908
C   C156      1.0  0.81790  0.35750  0.02190  1.0000 0.1186601908
C   C157      1.0  0.35750  0.81790  0.97810  1.0000 0.1186601908
C   C158      1.0  0.64250  0.18210  0.47810  1.0000 0.1186601908
C   C159      1.0  0.31790  0.14250  0.22810  1.0000 0.1186601908
C   C160      1.0  0.68210  0.85750  0.72810  1.0000 0.1186601908
C   C161      1.0  0.09470  0.30860  0.71840  1.0000 -0.2008644861
C   C162      1.0  0.90530  0.69140  0.21840  1.0000 -0.2008644861
C   C163      1.0  0.19140  0.59470  0.46840  1.0000 -0.2008644861
C   C164      1.0  0.80860  0.40530  0.96840  1.0000 -0.2008644861
C   C165      1.0  0.40530  0.80860  0.03160  1.0000 -0.2008644861
C   C166      1.0  0.59470  0.19140  0.53160  1.0000 -0.2008644861
C   C167      1.0  0.30860  0.09470  0.28160  1.0000 -0.2008644861
C   C168      1.0  0.69140  0.90530  0.78160  1.0000 -0.2008644861
C   C169      1.0  0.03820  0.24300  0.71310  1.0000 0.0499878635
C   C170      1.0  0.96180  0.75700  0.21310  1.0000 0.0499878635
C   C171      1.0  0.25700  0.53820  0.46310  1.0000 0.0550278844
C   C172      1.0  0.74300  0.46180  0.96310  1.0000 0.0550278844
C   C173      1.0  0.46180  0.74300  0.03690  1.0000 0.0499878635
C   C174      1.0  0.53820  0.25700  0.53690  1.0000 0.0499878635
C   C175      1.0  0.24300  0.03820  0.28690  1.0000 0.0550278844
C   C176      1.0  0.75700  0.96180  0.78690  1.0000 0.0499878635
C   C177      1.0  0.06890  0.19630  0.81040  1.0000 0.0708295078
C   C178      1.0  0.93110  0.80370  0.31040  1.0000 0.0708295078
C   C179      1.0  0.30370  0.56890  0.56040  1.0000 0.0708295078
C   C180      1.0  0.69630  0.43110  0.06040  1.0000 0.0708295078
C   C181      1.0  0.43110  0.69630  0.93960  1.0000 0.0708295078
C   C182      1.0  0.56890  0.30370  0.43960  1.0000 0.0708295078
C   C183      1.0  0.19630  0.06890  0.18960  1.0000 0.0708295078
C   C184      1.0  0.80370  0.93110  0.68960  1.0000 0.0708295078
C   C185      1.0  0.12680  0.26020  0.81950  1.0000 -0.2008644861
C   C186      1.0  0.87320  0.73980  0.31950  1.0000 -0.2008644861
C   C187      1.0  0.23980  0.62680  0.56950  1.0000 -0.2008644861
C   C188      1.0  0.76020  0.37320  0.06950  1.0000 -0.2008644861
C   C189      1.0  0.37320  0.76020  0.93050  1.0000 -0.2008644861
C   C190      1.0  0.62680  0.23980  0.43050  1.0000 -0.2008644861
C   C191      1.0  0.26020  0.12680  0.18050  1.0000 -0.2008644861
C   C192      1.0  0.73980  0.87320  0.68050  1.0000 -0.2008644861
N   N1        1.0  0.88120  0.12560  0.83750  1.0000 -0.2394376724
N   N2        1.0  0.11880  0.87440  0.33750  1.0000 -0.2394376724
N   N3        1.0  0.37440  0.38120  0.58750  1.0000 -0.2394376724
N   N4        1.0  0.62560  0.61880  0.08750  1.0000 -0.2394376724
N   N5        1.0  0.61880  0.62560  0.91250  1.0000 -0.2394376724
N   N6        1.0  0.38120  0.37440  0.41250  1.0000 -0.2394376724
N   N7        1.0  0.12560  0.88120  0.16250  1.0000 -0.2394376724
N   N8        1.0  0.87440  0.11880  0.66250  1.0000 -0.2394376724
N   N9        1.0  0.50630  0.45590  0.93450  1.0000 -0.2300860631
N   N10       1.0  0.49370  0.54410  0.43450  1.0000 -0.2300860631
N   N11       1.0  0.04410  0.00630  0.68450  1.0000 -0.2300860631
N   N12       1.0  0.95590  0.99370  0.18450  1.0000 -0.2300860631
N   N13       1.0  0.99370  0.95590  0.81550  1.0000 -0.2300860631
N   N14       1.0  0.00630  0.04410  0.31550  1.0000 -0.2300860631
N   N15       1.0  0.45590  0.50630  0.06550  1.0000 -0.2300860631
N   N16       1.0  0.54410  0.49370  0.56550  1.0000 -0.2300860631
N   N17       1.0  0.44610  0.48820  0.89540  1.0000 -0.2727990626
N   N18       1.0  0.55390  0.51180  0.39540  1.0000 -0.2727990626
N   N19       1.0  0.01180  0.94610  0.64540  1.0000 -0.2727990626
N   N20       1.0  0.98820  0.05390  0.14540  1.0000 -0.2727990626
N   N21       1.0  0.05390  0.98820  0.85460  1.0000 -0.2727990626
N   N22       1.0  0.94610  0.01180  0.35460  1.0000 -0.2727990626
N   N23       1.0  0.48820  0.44610  0.10460  1.0000 -0.2727990626
N   N24       1.0  0.51180  0.55390  0.60460  1.0000 -0.2727990626
N   N25       1.0  0.44400  0.35080  0.88880  1.0000 0.0708295078
N   N26       1.0  0.55600  0.64920  0.38880  1.0000 0.0708295078
N   N27       1.0  0.14920  0.94400  0.63880  1.0000 0.0708295078
N   N28       1.0  0.85080  0.05600  0.13880  1.0000 0.0708295078
N   N29       1.0  0.05600  0.85080  0.86120  1.0000 0.0708295078
N   N30       1.0  0.94400  0.14920  0.36120  1.0000 0.0708295078
N   N31       1.0  0.35080  0.44400  0.11120  1.0000 0.0708295078
N   N32       1.0  0.64920  0.55600  0.61120  1.0000 0.0708295078
N   N33       1.0  0.42600  0.26890  0.86820  1.0000 -0.4911619491
N   N34       1.0  0.57400  0.73110  0.36820  1.0000 -0.4911619491
N   N35       1.0  0.23110  0.92600  0.61820  1.0000 -0.4911619491
N   N36       1.0  0.76890  0.07400  0.11820  1.0000 -0.4911619491
N   N37       1.0  0.07400  0.76890  0.88180  1.0000 -0.4911619491
N   N38       1.0  0.92600  0.23110  0.38180  1.0000 -0.4911619491
N   N39       1.0  0.26890  0.42600  0.13180  1.0000 -0.4911619491
N   N40       1.0  0.73110  0.57400  0.63180  1.0000 -0.4911619491
N   N41       1.0  0.02550  0.18640  0.75800  1.0000 -0.2300860631
N   N42       1.0  0.97450  0.81360  0.25800  1.0000 -0.2300860631
N   N43       1.0  0.31360  0.52550  0.50800  1.0000 -0.2300860631
N   N44       1.0  0.68640  0.47450  0.00800  1.0000 -0.2300860631
N   N45       1.0  0.47450  0.68640  0.99200  1.0000 -0.2300860631
N   N46       1.0  0.52550  0.31360  0.49200  1.0000 -0.2300860631
N   N47       1.0  0.18640  0.02550  0.24200  1.0000 -0.2300860631
N   N48       1.0  0.81360  0.97450  0.74200  1.0000 -0.2300860631
