# DDEC6 charges by PACMAN v1.1 (https://github.com/mtap-research/PACMAN-charge/)
data_2011[Gd][cds]3[FSR]1
_chemical_formula_sum              "Gd4 H88 C96 N8 O32"
_cell_length_a       10.04
_cell_length_b       17.788
_cell_length_c       19.786
_cell_angle_alpha    90
_cell_angle_beta     90
_cell_angle_gamma    90

_symmetry_space_group_name_H-M    "P 1"
_symmetry_Int_Tables_number       1

loop_
  _symmetry_equiv_pos_as_xyz
  'x, y, z'

loop_
  _atom_site_type_symbol
  _atom_site_label
  _atom_site_symmetry_multiplicity
  _atom_site_fract_x
  _atom_site_fract_y
  _atom_site_fract_z
  _atom_site_occupancy
  _atom_site_charge
Gd  Gd1       1.0  0.53047  0.75000  0.75000  1.0000 2.0441075545
Gd  Gd2       1.0  0.96953  0.25000  0.25000  1.0000 2.0441075545
Gd  Gd3       1.0  0.46953  0.25000  0.25000  1.0000 2.0441075545
Gd  Gd4       1.0  0.03047  0.75000  0.75000  1.0000 2.0441075545
H   H1        1.0  0.66980  0.88510  0.42830  1.0000 0.111000287
H   H2        1.0  0.83020  0.11490  0.92830  1.0000 0.111000287
H   H3        1.0  0.66980  0.61490  0.07170  1.0000 0.111000287
H   H4        1.0  0.83020  0.38510  0.57170  1.0000 0.111000287
H   H5        1.0  0.33020  0.11490  0.57170  1.0000 0.111000287
H   H6        1.0  0.16980  0.88510  0.07170  1.0000 0.111000287
H   H7        1.0  0.33020  0.38510  0.92830  1.0000 0.111000287
H   H8        1.0  0.16980  0.61490  0.42830  1.0000 0.111000287
H   H9        1.0  0.76140  0.87100  0.91850  1.0000 0.1232972173
H   H10       1.0  0.73860  0.12900  0.41850  1.0000 0.1232972173
H   H11       1.0  0.76140  0.62900  0.58150  1.0000 0.1232972173
H   H12       1.0  0.73860  0.37100  0.08150  1.0000 0.1232972173
H   H13       1.0  0.23860  0.12900  0.08150  1.0000 0.1232972173
H   H14       1.0  0.26140  0.87100  0.58150  1.0000 0.1232972173
H   H15       1.0  0.23860  0.37100  0.41850  1.0000 0.1232972173
H   H16       1.0  0.26140  0.62900  0.91850  1.0000 0.1232972173
H   H17       1.0  0.69450  0.93820  0.00880  1.0000 0.1318460907
H   H18       1.0  0.80550  0.06180  0.50880  1.0000 0.1318460907
H   H19       1.0  0.69450  0.56180  0.49120  1.0000 0.1318460907
H   H20       1.0  0.80550  0.43820  0.99120  1.0000 0.1318460907
H   H21       1.0  0.30550  0.06180  0.99120  1.0000 0.1318460907
H   H22       1.0  0.19450  0.93820  0.49120  1.0000 0.1318460907
H   H23       1.0  0.30550  0.43820  0.50880  1.0000 0.1318460907
H   H24       1.0  0.19450  0.56180  0.00880  1.0000 0.1318460907
H   H25       1.0  0.62390  0.86340  0.54110  1.0000 0.111000287
H   H26       1.0  0.87610  0.13660  0.04110  1.0000 0.111000287
H   H27       1.0  0.62390  0.63660  0.95890  1.0000 0.111000287
H   H28       1.0  0.87610  0.36340  0.45890  1.0000 0.111000287
H   H29       1.0  0.37610  0.13660  0.45890  1.0000 0.111000287
H   H30       1.0  0.12390  0.86340  0.95890  1.0000 0.111000287
H   H31       1.0  0.37610  0.36340  0.04110  1.0000 0.111000287
H   H32       1.0  0.12390  0.63660  0.54110  1.0000 0.111000287
H   H33       1.0  0.01290  0.77490  0.44510  1.0000 0.111000287
H   H34       1.0  0.48710  0.22510  0.94510  1.0000 0.111000287
H   H35       1.0  0.01290  0.72510  0.05490  1.0000 0.111000287
H   H36       1.0  0.48710  0.27490  0.55490  1.0000 0.111000287
H   H37       1.0  0.98710  0.22510  0.55490  1.0000 0.111000287
H   H38       1.0  0.51290  0.77490  0.05490  1.0000 0.111000287
H   H39       1.0  0.98710  0.27490  0.94510  1.0000 0.111000287
H   H40       1.0  0.51290  0.72510  0.44510  1.0000 0.111000287
H   H41       1.0  0.97210  0.75520  0.55940  1.0000 0.111000287
H   H42       1.0  0.52790  0.24480  0.05940  1.0000 0.111000287
H   H43       1.0  0.97210  0.74480  0.94060  1.0000 0.111000287
H   H44       1.0  0.52790  0.25520  0.44060  1.0000 0.111000287
H   H45       1.0  0.02790  0.24480  0.44060  1.0000 0.111000287
H   H46       1.0  0.47210  0.75520  0.94060  1.0000 0.111000287
H   H47       1.0  0.02790  0.25520  0.05940  1.0000 0.111000287
H   H48       1.0  0.47210  0.74480  0.55940  1.0000 0.111000287
H   H49       1.0  0.86130  0.83930  0.38020  1.0000 0.111000287
H   H50       1.0  0.63870  0.16070  0.88020  1.0000 0.111000287
H   H51       1.0  0.86130  0.66070  0.11980  1.0000 0.111000287
H   H52       1.0  0.63870  0.33930  0.61980  1.0000 0.111000287
H   H53       1.0  0.13870  0.16070  0.61980  1.0000 0.111000287
H   H54       1.0  0.36130  0.83930  0.11980  1.0000 0.111000287
H   H55       1.0  0.13870  0.33930  0.88020  1.0000 0.111000287
H   H56       1.0  0.36130  0.66070  0.38020  1.0000 0.111000287
H   H57       1.0  0.37680  0.00660  0.90640  1.0000 0.1318460907
H   H58       1.0  0.12320  0.99340  0.40640  1.0000 0.1318460907
H   H59       1.0  0.37680  0.49340  0.59360  1.0000 0.1318460907
H   H60       1.0  0.12320  0.50660  0.09360  1.0000 0.1318460907
H   H61       1.0  0.62320  0.99340  0.09360  1.0000 0.1318460907
H   H62       1.0  0.87680  0.00660  0.59360  1.0000 0.1318460907
H   H63       1.0  0.62320  0.50660  0.40640  1.0000 0.1318460907
H   H64       1.0  0.87680  0.49340  0.90640  1.0000 0.1318460907
H   H65       1.0  0.44830  0.93810  0.81510  1.0000 0.1232972173
H   H66       1.0  0.05170  0.06190  0.31510  1.0000 0.1232972173
H   H67       1.0  0.44830  0.56190  0.68490  1.0000 0.1232972173
H   H68       1.0  0.05170  0.43810  0.18490  1.0000 0.1232972173
H   H69       1.0  0.55170  0.06190  0.18490  1.0000 0.1232972173
H   H70       1.0  0.94830  0.93810  0.68490  1.0000 0.1232972173
H   H71       1.0  0.55170  0.43810  0.31510  1.0000 0.1232972173
H   H72       1.0  0.94830  0.56190  0.81510  1.0000 0.1232972173
H   H73       1.0  0.32500  0.86800  0.70800  1.0000 0.2984405886
H   H74       1.0  0.17500  0.13200  0.20800  1.0000 0.2984405886
H   H75       1.0  0.32500  0.63200  0.79200  1.0000 0.2984405886
H   H76       1.0  0.17500  0.36800  0.29200  1.0000 0.2984405886
H   H77       1.0  0.67500  0.13200  0.29200  1.0000 0.2984405886
H   H78       1.0  0.82500  0.86800  0.79200  1.0000 0.2984405886
H   H79       1.0  0.67500  0.36800  0.20800  1.0000 0.2984405886
H   H80       1.0  0.82500  0.63200  0.70800  1.0000 0.2984405886
H   H81       1.0  0.44000  0.88600  0.69000  1.0000 0.271075828
H   H82       1.0  0.06000  0.11400  0.19000  1.0000 0.271075828
H   H83       1.0  0.44000  0.61400  0.81000  1.0000 0.271075828
H   H84       1.0  0.06000  0.38600  0.31000  1.0000 0.271075828
H   H85       1.0  0.56000  0.11400  0.31000  1.0000 0.271075828
H   H86       1.0  0.94000  0.88600  0.81000  1.0000 0.271075828
H   H87       1.0  0.56000  0.38600  0.19000  1.0000 0.271075828
H   H88       1.0  0.94000  0.61400  0.69000  1.0000 0.271075828
C   C1        1.0  0.77010  0.79560  0.63690  1.0000 0.6253059786
C   C2        1.0  0.72990  0.20440  0.13690  1.0000 0.6253059786
C   C3        1.0  0.77010  0.70440  0.86310  1.0000 0.6253059786
C   C4        1.0  0.72990  0.29560  0.36310  1.0000 0.6253059786
C   C5        1.0  0.22990  0.20440  0.36310  1.0000 0.6253059786
C   C6        1.0  0.27010  0.79560  0.86310  1.0000 0.6253059786
C   C7        1.0  0.22990  0.29560  0.13690  1.0000 0.6253059786
C   C8        1.0  0.27010  0.70440  0.63690  1.0000 0.6253059786
C   C9        1.0  0.52350  0.97860  0.96920  1.0000 0.0966853779
C   C10       1.0  0.97650  0.02140  0.46920  1.0000 0.0966853779
C   C11       1.0  0.52350  0.52140  0.53080  1.0000 0.0966853779
C   C12       1.0  0.97650  0.47860  0.03080  1.0000 0.0966853779
C   C13       1.0  0.47650  0.02140  0.03080  1.0000 0.0966853779
C   C14       1.0  0.02350  0.97860  0.53080  1.0000 0.0966853779
C   C15       1.0  0.47650  0.47860  0.46920  1.0000 0.0966853779
C   C16       1.0  0.02350  0.52140  0.96920  1.0000 0.0966853779
C   C17       1.0  0.79390  0.80700  0.56180  1.0000 -0.0348350976
C   C18       1.0  0.70610  0.19300  0.06180  1.0000 -0.0348350976
C   C19       1.0  0.79390  0.69300  0.93820  1.0000 -0.0348350976
C   C20       1.0  0.70610  0.30700  0.43820  1.0000 -0.0348350976
C   C21       1.0  0.20610  0.19300  0.43820  1.0000 -0.0348350976
C   C22       1.0  0.29390  0.80700  0.93820  1.0000 -0.0348350976
C   C23       1.0  0.20610  0.30700  0.06180  1.0000 -0.0348350976
C   C24       1.0  0.29390  0.69300  0.56180  1.0000 -0.0348350976
C   C25       1.0  0.73000  0.85830  0.45460  1.0000 -0.1251207907
C   C26       1.0  0.77000  0.14170  0.95460  1.0000 -0.1251207907
C   C27       1.0  0.73000  0.64170  0.04540  1.0000 -0.119740775
C   C28       1.0  0.77000  0.35830  0.54540  1.0000 -0.119740775
C   C29       1.0  0.27000  0.14170  0.54540  1.0000 -0.119740775
C   C30       1.0  0.23000  0.85830  0.04540  1.0000 -0.1251207907
C   C31       1.0  0.27000  0.35830  0.95460  1.0000 -0.119740775
C   C32       1.0  0.23000  0.64170  0.45460  1.0000 -0.119740775
C   C33       1.0  0.68230  0.89820  0.91650  1.0000 -0.0855711196
C   C34       1.0  0.81770  0.10180  0.41650  1.0000 -0.0855711196
C   C35       1.0  0.68230  0.60180  0.58350  1.0000 -0.0855711196
C   C36       1.0  0.81770  0.39820  0.08350  1.0000 -0.0855711196
C   C37       1.0  0.31770  0.10180  0.08350  1.0000 -0.0855711196
C   C38       1.0  0.18230  0.89820  0.58350  1.0000 -0.0855711196
C   C39       1.0  0.31770  0.39820  0.41650  1.0000 -0.0855711196
C   C40       1.0  0.18230  0.60180  0.91650  1.0000 -0.0855711196
C   C41       1.0  0.64210  0.93780  0.97000  1.0000 -0.1728609912
C   C42       1.0  0.85790  0.06220  0.47000  1.0000 -0.1728609912
C   C43       1.0  0.64210  0.56220  0.53000  1.0000 -0.1728609912
C   C44       1.0  0.85790  0.43780  0.03000  1.0000 -0.1728609912
C   C45       1.0  0.35790  0.06220  0.03000  1.0000 -0.1728609912
C   C46       1.0  0.14210  0.93780  0.53000  1.0000 -0.1728609912
C   C47       1.0  0.35790  0.43780  0.47000  1.0000 -0.1728609912
C   C48       1.0  0.14210  0.56220  0.97000  1.0000 -0.1728609912
C   C49       1.0  0.70280  0.84580  0.52230  1.0000 -0.119740775
C   C50       1.0  0.79720  0.15420  0.02230  1.0000 -0.119740775
C   C51       1.0  0.70280  0.65420  0.97770  1.0000 -0.119740775
C   C52       1.0  0.79720  0.34580  0.47770  1.0000 -0.119740775
C   C53       1.0  0.29720  0.15420  0.47770  1.0000 -0.119740775
C   C54       1.0  0.20280  0.84580  0.97770  1.0000 -0.119740775
C   C55       1.0  0.29720  0.34580  0.02230  1.0000 -0.119740775
C   C56       1.0  0.20280  0.65420  0.52230  1.0000 -0.119740775
C   C57       1.0  0.93490  0.79300  0.46460  1.0000 -0.1050306875
C   C58       1.0  0.56510  0.20700  0.96460  1.0000 -0.1050306875
C   C59       1.0  0.93490  0.70700  0.03540  1.0000 -0.1030340741
C   C60       1.0  0.56510  0.29300  0.53540  1.0000 -0.1030340741
C   C61       1.0  0.06510  0.20700  0.53540  1.0000 -0.1050306875
C   C62       1.0  0.43490  0.79300  0.03540  1.0000 -0.1050306875
C   C63       1.0  0.06510  0.29300  0.96460  1.0000 -0.1030340741
C   C64       1.0  0.43490  0.70700  0.46460  1.0000 -0.1030340741
C   C65       1.0  0.91020  0.78090  0.53310  1.0000 -0.119740775
C   C66       1.0  0.58980  0.21910  0.03310  1.0000 -0.119740775
C   C67       1.0  0.91020  0.71910  0.96690  1.0000 -0.119740775
C   C68       1.0  0.58980  0.28090  0.46690  1.0000 -0.119740775
C   C69       1.0  0.08980  0.21910  0.46690  1.0000 -0.119740775
C   C70       1.0  0.41020  0.78090  0.96690  1.0000 -0.119740775
C   C71       1.0  0.08980  0.28090  0.03310  1.0000 -0.119740775
C   C72       1.0  0.41020  0.71910  0.53310  1.0000 -0.119740775
C   C73       1.0  0.84470  0.83140  0.42590  1.0000 -0.1030340741
C   C74       1.0  0.65530  0.16860  0.92590  1.0000 -0.1030340741
C   C75       1.0  0.84470  0.66860  0.07410  1.0000 -0.1030340741
C   C76       1.0  0.65530  0.33140  0.57410  1.0000 -0.1030340741
C   C77       1.0  0.15530  0.16860  0.57410  1.0000 -0.1030340741
C   C78       1.0  0.34470  0.83140  0.07410  1.0000 -0.1030340741
C   C79       1.0  0.15530  0.33140  0.92590  1.0000 -0.1030340741
C   C80       1.0  0.34470  0.66860  0.42590  1.0000 -0.1030340741
C   C81       1.0  0.45460  0.97840  0.90990  1.0000 -0.1945231427
C   C82       1.0  0.04540  0.02160  0.40990  1.0000 -0.1945231427
C   C83       1.0  0.45460  0.52160  0.59010  1.0000 -0.1945231427
C   C84       1.0  0.04540  0.47840  0.09010  1.0000 -0.1945231427
C   C85       1.0  0.54540  0.02160  0.09010  1.0000 -0.1945231427
C   C86       1.0  0.95460  0.97840  0.59010  1.0000 -0.1945231427
C   C87       1.0  0.54540  0.47840  0.40990  1.0000 -0.1945231427
C   C88       1.0  0.95460  0.52160  0.90990  1.0000 -0.1945231427
C   C89       1.0  0.49740  0.93740  0.85500  1.0000 -0.0225435074
C   C90       1.0  0.00260  0.06260  0.35500  1.0000 -0.0225435074
C   C91       1.0  0.49740  0.56260  0.64500  1.0000 -0.0225435074
C   C92       1.0  0.00260  0.43740  0.14500  1.0000 -0.0225435074
C   C93       1.0  0.50260  0.06260  0.14500  1.0000 -0.0225435074
C   C94       1.0  0.99740  0.93740  0.64500  1.0000 -0.0225435074
C   C95       1.0  0.50260  0.43740  0.35500  1.0000 -0.0225435074
C   C96       1.0  0.99740  0.56260  0.85500  1.0000 -0.0225435074
N   N1        1.0  0.60700  0.89740  0.85850  1.0000 0.2896491271
N   N2        1.0  0.89300  0.10260  0.35850  1.0000 0.2896491271
N   N3        1.0  0.60700  0.60260  0.64150  1.0000 0.2896491271
N   N4        1.0  0.89300  0.39740  0.14150  1.0000 0.2896491271
N   N5        1.0  0.39300  0.10260  0.14150  1.0000 0.2896491271
N   N6        1.0  0.10700  0.89740  0.64150  1.0000 0.2896491271
N   N7        1.0  0.39300  0.39740  0.35850  1.0000 0.2896491271
N   N8        1.0  0.10700  0.60260  0.85850  1.0000 0.2896491271
O   O1        1.0  0.64750  0.85510  0.80575  1.0000 -0.6073159296
O   O2        1.0  0.85250  0.14490  0.30575  1.0000 -0.6073159296
O   O3        1.0  0.64750  0.64490  0.69425  1.0000 -0.6073159296
O   O4        1.0  0.85250  0.35510  0.19425  1.0000 -0.6073159296
O   O5        1.0  0.35250  0.14490  0.19425  1.0000 -0.6073159296
O   O6        1.0  0.14750  0.85510  0.69425  1.0000 -0.6073159296
O   O7        1.0  0.35250  0.35510  0.30575  1.0000 -0.6073159296
O   O8        1.0  0.14750  0.64490  0.80575  1.0000 -0.6073159296
O   O9        1.0  0.65500  0.80180  0.65915  1.0000 -0.6502793487
O   O10       1.0  0.84500  0.19820  0.15915  1.0000 -0.6502793487
O   O11       1.0  0.65500  0.69820  0.84085  1.0000 -0.6502793487
O   O12       1.0  0.84500  0.30180  0.34085  1.0000 -0.6502793487
O   O13       1.0  0.34500  0.19820  0.34085  1.0000 -0.6502793487
O   O14       1.0  0.15500  0.80180  0.84085  1.0000 -0.6502793487
O   O15       1.0  0.34500  0.30180  0.15915  1.0000 -0.6502793487
O   O16       1.0  0.15500  0.69820  0.65915  1.0000 -0.6502793487
O   O17       1.0  0.87030  0.78020  0.67189  1.0000 -0.681983957
O   O18       1.0  0.62970  0.21980  0.17189  1.0000 -0.681983957
O   O19       1.0  0.87030  0.71980  0.82811  1.0000 -0.681983957
O   O20       1.0  0.62970  0.28020  0.32811  1.0000 -0.681983957
O   O21       1.0  0.12970  0.21980  0.32811  1.0000 -0.681983957
O   O22       1.0  0.37030  0.78020  0.82811  1.0000 -0.681983957
O   O23       1.0  0.12970  0.28020  0.17189  1.0000 -0.681983957
O   O24       1.0  0.37030  0.71980  0.67189  1.0000 -0.681983957
O   O25       1.0  0.41890  0.86640  0.71560  1.0000 -0.6502793487
O   O26       1.0  0.08110  0.13360  0.21560  1.0000 -0.6502793487
O   O27       1.0  0.41890  0.63360  0.78440  1.0000 -0.6502793487
O   O28       1.0  0.08110  0.36640  0.28440  1.0000 -0.6502793487
O   O29       1.0  0.58110  0.13360  0.28440  1.0000 -0.6502793487
O   O30       1.0  0.91890  0.86640  0.78440  1.0000 -0.6502793487
O   O31       1.0  0.58110  0.36640  0.21560  1.0000 -0.6502793487
O   O32       1.0  0.91890  0.63360  0.71560  1.0000 -0.6502793487
