# DDEC6 charges by PACMAN v1.1 (https://github.com/mtap-research/PACMAN-charge/)
data_2011[Pr][nan]3[FSR]4
_chemical_formula_sum              "Pr12 H144 C252 N12 O84"
_cell_length_a       14.5746
_cell_length_b       23.3584
_cell_length_c       24.9936
_cell_angle_alpha    90
_cell_angle_beta     102.564
_cell_angle_gamma    90

_symmetry_space_group_name_H-M    "P 1"
_symmetry_Int_Tables_number       1

loop_
  _symmetry_equiv_pos_as_xyz
  'x, y, z'

loop_
  _atom_site_type_symbol
  _atom_site_label
  _atom_site_symmetry_multiplicity
  _atom_site_fract_x
  _atom_site_fract_y
  _atom_site_fract_z
  _atom_site_occupancy
  _atom_site_charge
Pr  Pr1       1.0  0.23667  0.74490  0.72947  1.0000 2.0724084235
Pr  Pr2       1.0  0.25682  0.73654  0.56965  1.0000 2.0977280593
Pr  Pr3       1.0  0.23127  0.72130  0.89318  1.0000 2.0617906905
Pr  Pr4       1.0  0.76333  0.24490  0.77053  1.0000 2.0724084235
Pr  Pr5       1.0  0.74318  0.23654  0.93035  1.0000 2.0977280593
Pr  Pr6       1.0  0.76873  0.22130  0.60682  1.0000 2.0617906905
Pr  Pr7       1.0  0.76333  0.25510  0.27053  1.0000 2.0724084235
Pr  Pr8       1.0  0.74318  0.26346  0.43035  1.0000 2.0977280593
Pr  Pr9       1.0  0.76873  0.27870  0.10682  1.0000 2.0617906905
Pr  Pr10      1.0  0.23667  0.75510  0.22947  1.0000 2.0724084235
Pr  Pr11      1.0  0.25682  0.76346  0.06965  1.0000 2.0977280593
Pr  Pr12      1.0  0.23127  0.77870  0.39318  1.0000 2.0617906905
H   H1        1.0  0.92450  0.72740  0.99970  1.0000 0.1210591263
H   H2        1.0  0.32790  0.17660  0.83810  1.0000 0.1291635742
H   H3        1.0  0.15480  0.99780  0.75760  1.0000 0.1291635742
H   H4        1.0  0.44530  0.64870  0.53160  1.0000 0.1291635742
H   H5        1.0  0.58120  0.74180  0.81670  1.0000 0.1291635742
H   H6        1.0  0.56650  0.07130  0.78440  1.0000 0.1291635742
H   H7        1.0  0.43290  0.61660  0.87050  1.0000 0.1455860741
H   H8        1.0  0.71990  0.69390  0.85420  1.0000 0.1291635742
H   H9        1.0  0.05340  0.60950  0.92430  1.0000 0.1376989215
H   H10       1.0  0.90850  0.56500  0.88990  1.0000 0.1291635742
H   H11       1.0  0.42370  0.02810  0.78680  1.0000 0.1291635742
H   H12       1.0  0.67360  0.54190  0.81000  1.0000 0.1210591263
H   H13       1.0  0.77960  0.68470  0.96460  1.0000 0.1291635742
H   H14       1.0  0.05080  0.65010  0.55880  1.0000 0.1376989215
H   H15       1.0  0.09400  0.17900  0.68090  1.0000 0.1210591263
H   H16       1.0  0.57210  0.56850  0.90610  1.0000 0.1291635742
H   H17       1.0  0.75890  0.70360  0.58860  1.0000 0.1291635742
H   H18       1.0  0.84880  0.53650  0.56760  1.0000 0.1210591263
H   H19       1.0  0.69830  0.71440  0.46330  1.0000 0.1291635742
H   H20       1.0  0.36950  0.90960  0.89980  1.0000 0.1291635742
H   H21       1.0  0.11260  0.07460  0.84060  1.0000 0.1291635742
H   H22       1.0  0.89430  0.74780  0.63670  1.0000 0.1291635742
H   H23       1.0  0.56020  0.76750  0.44830  1.0000 0.1210591263
H   H24       1.0  0.67840  0.44540  0.78750  1.0000 0.1210591263
H   H25       1.0  0.23730  0.13980  0.72480  1.0000 0.1291635742
H   H26       1.0  0.37310  0.00870  0.88840  1.0000 0.1291635742
H   H27       1.0  0.47370  0.21940  0.83840  1.0000 0.1376989215
H   H28       1.0  0.80130  0.50630  0.96560  1.0000 0.1291635742
H   H29       1.0  0.91670  0.60670  0.50950  1.0000 0.1291635742
H   H30       1.0  0.63290  0.56440  0.43840  1.0000 0.1291635742
H   H31       1.0  0.80730  0.41050  0.94410  1.0000 0.1376989215
H   H32       1.0  0.63220  0.46710  0.41560  1.0000 0.1291635742
H   H33       1.0  0.84910  0.44080  0.54380  1.0000 0.1291635742
H   H34       1.0  0.97290  0.11770  0.79920  1.0000 0.1291635742
H   H35       1.0  0.58320  0.59620  0.54600  1.0000 0.1291635742
H   H36       1.0  0.15180  0.89980  0.76860  1.0000 0.1376989215
H   H37       1.0  0.07550  0.22740  0.50030  1.0000 0.1210591263
H   H38       1.0  0.67210  0.67660  0.66190  1.0000 0.1291635742
H   H39       1.0  0.84520  0.49780  0.74240  1.0000 0.1291635742
H   H40       1.0  0.55470  0.14870  0.96840  1.0000 0.1291635742
H   H41       1.0  0.41880  0.24180  0.68330  1.0000 0.1291635742
H   H42       1.0  0.43350  0.57130  0.71560  1.0000 0.1291635742
H   H43       1.0  0.56710  0.11660  0.62950  1.0000 0.1455860741
H   H44       1.0  0.28010  0.19390  0.64580  1.0000 0.1291635742
H   H45       1.0  0.94660  0.10950  0.57570  1.0000 0.1376989215
H   H46       1.0  0.09150  0.06500  0.61010  1.0000 0.1291635742
H   H47       1.0  0.57630  0.52810  0.71320  1.0000 0.1291635742
H   H48       1.0  0.32640  0.04190  0.69000  1.0000 0.1210591263
H   H49       1.0  0.22040  0.18470  0.53540  1.0000 0.1291635742
H   H50       1.0  0.94920  0.15010  0.94120  1.0000 0.1376989215
H   H51       1.0  0.90600  0.67900  0.81910  1.0000 0.1210591263
H   H52       1.0  0.42790  0.06850  0.59390  1.0000 0.1291635742
H   H53       1.0  0.24110  0.20360  0.91140  1.0000 0.1291635742
H   H54       1.0  0.15120  0.03650  0.93240  1.0000 0.1210591263
H   H55       1.0  0.30170  0.21440  0.03670  1.0000 0.1291635742
H   H56       1.0  0.63050  0.40960  0.60020  1.0000 0.1291635742
H   H57       1.0  0.88740  0.57460  0.65940  1.0000 0.1291635742
H   H58       1.0  0.10570  0.24780  0.86330  1.0000 0.1291635742
H   H59       1.0  0.43980  0.26750  0.05170  1.0000 0.1210591263
H   H60       1.0  0.32160  0.94540  0.71250  1.0000 0.1210591263
H   H61       1.0  0.76270  0.63980  0.77520  1.0000 0.1291635742
H   H62       1.0  0.62690  0.50870  0.61160  1.0000 0.1291635742
H   H63       1.0  0.52630  0.71940  0.66160  1.0000 0.1376989215
H   H64       1.0  0.19870  0.00630  0.53440  1.0000 0.1291635742
H   H65       1.0  0.08330  0.10670  0.99050  1.0000 0.1291635742
H   H66       1.0  0.36710  0.06440  0.06160  1.0000 0.1291635742
H   H67       1.0  0.19270  0.91050  0.55590  1.0000 0.1376989215
H   H68       1.0  0.36780  0.96710  0.08440  1.0000 0.1291635742
H   H69       1.0  0.15090  0.94080  0.95620  1.0000 0.1291635742
H   H70       1.0  0.02710  0.61770  0.70080  1.0000 0.1291635742
H   H71       1.0  0.41680  0.09620  0.95400  1.0000 0.1291635742
H   H72       1.0  0.84820  0.39980  0.73140  1.0000 0.1376989215
H   H73       1.0  0.07550  0.27260  0.00030  1.0000 0.1210591263
H   H74       1.0  0.67210  0.82340  0.16190  1.0000 0.1291635742
H   H75       1.0  0.84520  0.00220  0.24240  1.0000 0.1291635742
H   H76       1.0  0.55470  0.35130  0.46840  1.0000 0.1291635742
H   H77       1.0  0.41880  0.25820  0.18330  1.0000 0.1291635742
H   H78       1.0  0.43350  0.92870  0.21560  1.0000 0.1291635742
H   H79       1.0  0.56710  0.38340  0.12950  1.0000 0.1455860741
H   H80       1.0  0.28010  0.30610  0.14580  1.0000 0.1291635742
H   H81       1.0  0.94660  0.39050  0.07570  1.0000 0.1376989215
H   H82       1.0  0.09150  0.43500  0.11010  1.0000 0.1291635742
H   H83       1.0  0.57630  0.97190  0.21320  1.0000 0.1291635742
H   H84       1.0  0.32640  0.45810  0.19000  1.0000 0.1210591263
H   H85       1.0  0.22040  0.31530  0.03540  1.0000 0.1291635742
H   H86       1.0  0.94920  0.34990  0.44120  1.0000 0.1376989215
H   H87       1.0  0.90600  0.82100  0.31910  1.0000 0.1210591263
H   H88       1.0  0.42790  0.43150  0.09390  1.0000 0.1291635742
H   H89       1.0  0.24110  0.29640  0.41140  1.0000 0.1291635742
H   H90       1.0  0.15120  0.46350  0.43240  1.0000 0.1210591263
H   H91       1.0  0.30170  0.28560  0.53670  1.0000 0.1291635742
H   H92       1.0  0.63050  0.09040  0.10020  1.0000 0.1291635742
H   H93       1.0  0.88740  0.92540  0.15940  1.0000 0.1291635742
H   H94       1.0  0.10570  0.25220  0.36330  1.0000 0.1291635742
H   H95       1.0  0.43980  0.23250  0.55170  1.0000 0.1210591263
H   H96       1.0  0.32160  0.55460  0.21250  1.0000 0.1210591263
H   H97       1.0  0.76270  0.86020  0.27520  1.0000 0.1291635742
H   H98       1.0  0.62690  0.99130  0.11160  1.0000 0.1291635742
H   H99       1.0  0.52630  0.78060  0.16160  1.0000 0.1376989215
H   H100      1.0  0.19870  0.49370  0.03440  1.0000 0.1291635742
H   H101      1.0  0.08330  0.39330  0.49050  1.0000 0.1291635742
H   H102      1.0  0.36710  0.43560  0.56160  1.0000 0.1291635742
H   H103      1.0  0.19270  0.58950  0.05590  1.0000 0.1376989215
H   H104      1.0  0.36780  0.53290  0.58440  1.0000 0.1291635742
H   H105      1.0  0.15090  0.55920  0.45620  1.0000 0.1291635742
H   H106      1.0  0.02710  0.88230  0.20080  1.0000 0.1291635742
H   H107      1.0  0.41680  0.40380  0.45400  1.0000 0.1291635742
H   H108      1.0  0.84820  0.10020  0.23140  1.0000 0.1376989215
H   H109      1.0  0.92450  0.77260  0.49970  1.0000 0.1210591263
H   H110      1.0  0.32790  0.32340  0.33810  1.0000 0.1291635742
H   H111      1.0  0.15480  0.50220  0.25760  1.0000 0.1291635742
H   H112      1.0  0.44530  0.85130  0.03160  1.0000 0.1291635742
H   H113      1.0  0.58120  0.75820  0.31670  1.0000 0.1291635742
H   H114      1.0  0.56650  0.42870  0.28440  1.0000 0.1291635742
H   H115      1.0  0.43290  0.88340  0.37050  1.0000 0.1455860741
H   H116      1.0  0.71990  0.80610  0.35420  1.0000 0.1291635742
H   H117      1.0  0.05340  0.89050  0.42430  1.0000 0.1376989215
H   H118      1.0  0.90850  0.93500  0.38990  1.0000 0.1291635742
H   H119      1.0  0.42370  0.47190  0.28680  1.0000 0.1291635742
H   H120      1.0  0.67360  0.95810  0.31000  1.0000 0.1210591263
H   H121      1.0  0.77960  0.81530  0.46460  1.0000 0.1291635742
H   H122      1.0  0.05080  0.84990  0.05880  1.0000 0.1376989215
H   H123      1.0  0.09400  0.32100  0.18090  1.0000 0.1210591263
H   H124      1.0  0.57210  0.93150  0.40610  1.0000 0.1291635742
H   H125      1.0  0.75890  0.79640  0.08860  1.0000 0.1291635742
H   H126      1.0  0.84880  0.96350  0.06760  1.0000 0.1210591263
H   H127      1.0  0.69830  0.78560  0.96330  1.0000 0.1291635742
H   H128      1.0  0.36950  0.59040  0.39980  1.0000 0.1291635742
H   H129      1.0  0.11260  0.42540  0.34060  1.0000 0.1291635742
H   H130      1.0  0.89430  0.75220  0.13670  1.0000 0.1291635742
H   H131      1.0  0.56020  0.73250  0.94830  1.0000 0.1210591263
H   H132      1.0  0.67840  0.05460  0.28750  1.0000 0.1210591263
H   H133      1.0  0.23730  0.36020  0.22480  1.0000 0.1291635742
H   H134      1.0  0.37310  0.49130  0.38840  1.0000 0.1291635742
H   H135      1.0  0.47370  0.28060  0.33840  1.0000 0.1376989215
H   H136      1.0  0.80130  0.99370  0.46560  1.0000 0.1291635742
H   H137      1.0  0.91670  0.89330  0.00950  1.0000 0.1291635742
H   H138      1.0  0.63290  0.93560  0.93840  1.0000 0.1291635742
H   H139      1.0  0.80730  0.08950  0.44410  1.0000 0.1376989215
H   H140      1.0  0.63220  0.03290  0.91560  1.0000 0.1291635742
H   H141      1.0  0.84910  0.05920  0.04380  1.0000 0.1291635742
H   H142      1.0  0.97290  0.38230  0.29920  1.0000 0.1291635742
H   H143      1.0  0.58320  0.90380  0.04600  1.0000 0.1291635742
H   H144      1.0  0.15180  0.60020  0.26860  1.0000 0.1376989215
C   C1        1.0  0.75040  0.35550  0.84760  1.0000 0.6233840591
C   C2        1.0  0.40380  0.71600  0.81530  1.0000 0.6000104881
C   C3        1.0  0.48850  0.71280  0.48760  1.0000 -0.0196342718
C   C4        1.0  0.07330  0.72640  0.63930  1.0000 0.6000104881
C   C5        1.0  0.49280  0.68450  0.83960  1.0000 -0.0196342718
C   C6        1.0  0.92120  0.69460  0.97690  1.0000 -0.0710132208
C   C7        1.0  0.37650  0.15510  0.82760  1.0000 -0.1905229729
C   C8        1.0  0.26210  0.89380  0.83410  1.0000 -0.0381137341
C   C9        1.0  0.26720  0.01240  0.82040  1.0000 0.1818995736
C   C10       1.0  0.19970  0.97980  0.78590  1.0000 -0.1905229729
C   C11       1.0  0.39880  0.74550  0.47500  1.0000 0.6000104881
C   C12       1.0  0.49680  0.66210  0.51740  1.0000 -0.0710132208
C   C13       1.0  0.57880  0.70640  0.83500  1.0000 -0.0864454724
C   C14       1.0  0.51890  0.09260  0.79610  1.0000 -0.0710132208
C   C15       1.0  0.00250  0.67290  0.96480  1.0000 -0.0381137341
C   C16       1.0  0.36180  0.09800  0.81190  1.0000 0.1818995736
C   C17       1.0  0.49110  0.63240  0.86660  1.0000 -0.0592263018
C   C18       1.0  0.74650  0.38330  0.45940  1.0000 0.555590973
C   C19       1.0  0.66120  0.67760  0.85670  1.0000 -0.1994750744
C   C20       1.0  0.65510  0.65040  0.50720  1.0000 0.1818995736
C   C21       1.0  0.99770  0.62480  0.93260  1.0000 -0.0710132208
C   C22       1.0  0.91110  0.59830  0.91190  1.0000 -0.1905229729
C   C23       1.0  0.62540  0.17740  0.81070  1.0000 0.6000104881
C   C24       1.0  0.82970  0.62020  0.92330  1.0000 0.1884374178
C   C25       1.0  0.43340  0.06720  0.79680  1.0000 -0.1994750744
C   C26       1.0  0.26290  0.83160  0.84170  1.0000 0.5725988604
C   C27       1.0  0.74030  0.53290  0.88920  1.0000 0.1693498499
C   C28       1.0  0.74440  0.41720  0.86300  1.0000 -0.031050868
C   C29       1.0  0.70190  0.51500  0.83710  1.0000 -0.1813011032
C   C30       1.0  0.83510  0.66910  0.95630  1.0000 -0.1994750744
C   C31       1.0  0.02070  0.15340  0.73650  1.0000 -0.031050868
C   C32       1.0  0.74220  0.44470  0.47650  1.0000 -0.0196342718
C   C33       1.0  0.92940  0.18070  0.70870  1.0000 0.6233840591
C   C34       1.0  0.99130  0.66060  0.56560  1.0000 -0.0592263018
C   C35       1.0  0.09850  0.15850  0.71420  1.0000 -0.0808908858
C   C36       1.0  0.53520  0.14970  0.81270  1.0000 -0.0196342718
C   C37       1.0  0.98650  0.70190  0.60470  1.0000 -0.0381137341
C   C38       1.0  0.09530  0.70070  0.98810  1.0000 0.6000104881
C   C39       1.0  0.18860  0.10180  0.78680  1.0000 0.1818995736
C   C40       1.0  0.57390  0.60380  0.88750  1.0000 -0.1813011032
C   C41       1.0  0.65870  0.62550  0.88200  1.0000 0.1693498499
C   C42       1.0  0.82410  0.64830  0.54600  1.0000 0.1818995736
C   C43       1.0  0.81850  0.69180  0.58300  1.0000 -0.1994750744
C   C44       1.0  0.80490  0.52290  0.53640  1.0000 -0.1905229729
C   C45       1.0  0.64670  0.70110  0.47740  1.0000 -0.1905229729
C   C46       1.0  0.32670  0.92720  0.87030  1.0000 -0.0710132208
C   C47       1.0  0.10940  0.09640  0.80820  1.0000 -0.1813011032
C   C48       1.0  0.89920  0.71800  0.61160  1.0000 -0.0808908858
C   C49       1.0  0.56450  0.73250  0.46810  1.0000 -0.0710132208
C   C50       1.0  0.74160  0.56020  0.50570  1.0000 0.1884374178
C   C51       1.0  0.70440  0.45750  0.82390  1.0000 -0.0808908858
C   C52       1.0  0.18310  0.13430  0.73950  1.0000 -0.1905229729
C   C53       1.0  0.32900  0.98620  0.86340  1.0000 -0.1905229729
C   C54       1.0  0.46360  0.18040  0.82780  1.0000 -0.0710132208
C   C55       1.0  0.77750  0.49380  0.92900  1.0000 -0.1715902555
C   C56       1.0  0.91180  0.63450  0.53650  1.0000 -0.1905229729
C   C57       1.0  0.67700  0.53910  0.46000  1.0000 -0.1905229729
C   C58       1.0  0.78040  0.43700  0.91620  1.0000 -0.0710132208
C   C59       1.0  0.67710  0.48130  0.44610  1.0000 -0.0808908858
C   C60       1.0  0.80500  0.46600  0.52200  1.0000 -0.0710132208
C   C61       1.0  0.02660  0.12180  0.78370  1.0000 -0.0710132208
C   C62       1.0  0.57890  0.63130  0.52630  1.0000 -0.1905229729
C   C63       1.0  0.19800  0.92170  0.79270  1.0000 -0.0592263018
C   C64       1.0  0.24960  0.85550  0.65240  1.0000 0.6233840591
C   C65       1.0  0.59620  0.21600  0.68470  1.0000 0.6000104881
C   C66       1.0  0.51150  0.21280  0.01240  1.0000 -0.0196342718
C   C67       1.0  0.92670  0.22640  0.86070  1.0000 0.6000104881
C   C68       1.0  0.50720  0.18450  0.66040  1.0000 -0.0196342718
C   C69       1.0  0.07880  0.19460  0.52310  1.0000 -0.0710132208
C   C70       1.0  0.62350  0.65510  0.67240  1.0000 -0.1905229729
C   C71       1.0  0.73790  0.39380  0.66590  1.0000 -0.0381137341
C   C72       1.0  0.73280  0.51240  0.67960  1.0000 0.1818995736
C   C73       1.0  0.80030  0.47980  0.71410  1.0000 -0.1905229729
C   C74       1.0  0.60120  0.24550  0.02500  1.0000 0.6000104881
C   C75       1.0  0.50320  0.16210  0.98260  1.0000 -0.0710132208
C   C76       1.0  0.42120  0.20640  0.66500  1.0000 -0.0864454724
C   C77       1.0  0.48110  0.59260  0.70390  1.0000 -0.0710132208
C   C78       1.0  0.99750  0.17290  0.53520  1.0000 -0.031050868
C   C79       1.0  0.63820  0.59800  0.68810  1.0000 0.1818995736
C   C80       1.0  0.50890  0.13240  0.63340  1.0000 -0.0592263018
C   C81       1.0  0.25350  0.88330  0.04060  1.0000 0.555590973
C   C82       1.0  0.33880  0.17760  0.64330  1.0000 -0.1994750744
C   C83       1.0  0.34490  0.15040  0.99280  1.0000 0.1818995736
C   C84       1.0  0.00230  0.12480  0.56740  1.0000 -0.0710132208
C   C85       1.0  0.08890  0.09830  0.58810  1.0000 -0.1905229729
C   C86       1.0  0.37460  0.67740  0.68930  1.0000 0.6000104881
C   C87       1.0  0.17030  0.12020  0.57670  1.0000 0.1884374178
C   C88       1.0  0.56660  0.56720  0.70320  1.0000 -0.1994750744
C   C89       1.0  0.73710  0.33160  0.65830  1.0000 0.5725988604
C   C90       1.0  0.25970  0.03290  0.61080  1.0000 0.1693498499
C   C91       1.0  0.25560  0.91720  0.63700  1.0000 -0.031050868
C   C92       1.0  0.29810  0.01500  0.66290  1.0000 -0.1813011032
C   C93       1.0  0.16490  0.16910  0.54370  1.0000 -0.1994750744
C   C94       1.0  0.97930  0.65340  0.76350  1.0000 -0.031050868
C   C95       1.0  0.25780  0.94470  0.02350  1.0000 -0.0196342718
C   C96       1.0  0.07060  0.68070  0.79130  1.0000 0.6233840591
C   C97       1.0  0.00870  0.16060  0.93440  1.0000 -0.0592263018
C   C98       1.0  0.90150  0.65850  0.78580  1.0000 -0.0808908858
C   C99       1.0  0.46480  0.64970  0.68730  1.0000 -0.0196342718
C   C100      1.0  0.01350  0.20190  0.89530  1.0000 -0.0381137341
C   C101      1.0  0.90470  0.20070  0.51190  1.0000 0.6000104881
C   C102      1.0  0.81140  0.60180  0.71320  1.0000 0.1818995736
C   C103      1.0  0.42610  0.10380  0.61250  1.0000 -0.1813011032
C   C104      1.0  0.34130  0.12550  0.61800  1.0000 0.1693498499
C   C105      1.0  0.17590  0.14830  0.95400  1.0000 0.1818995736
C   C106      1.0  0.18150  0.19180  0.91700  1.0000 -0.1994750744
C   C107      1.0  0.19510  0.02290  0.96360  1.0000 -0.1905229729
C   C108      1.0  0.35330  0.20110  0.02260  1.0000 -0.1905229729
C   C109      1.0  0.67330  0.42720  0.62970  1.0000 -0.0710132208
C   C110      1.0  0.89060  0.59640  0.69180  1.0000 -0.1813011032
C   C111      1.0  0.10080  0.21800  0.88840  1.0000 -0.0808908858
C   C112      1.0  0.43550  0.23250  0.03190  1.0000 -0.0710132208
C   C113      1.0  0.25840  0.06020  0.99430  1.0000 0.1884374178
C   C114      1.0  0.29560  0.95750  0.67610  1.0000 -0.0808908858
C   C115      1.0  0.81690  0.63430  0.76050  1.0000 -0.1905229729
C   C116      1.0  0.67100  0.48620  0.63660  1.0000 -0.1905229729
C   C117      1.0  0.53640  0.68040  0.67220  1.0000 -0.0710132208
C   C118      1.0  0.22250  0.99380  0.57100  1.0000 -0.1715902555
C   C119      1.0  0.08820  0.13450  0.96350  1.0000 -0.1905229729
C   C120      1.0  0.32300  0.03910  0.04000  1.0000 -0.1905229729
C   C121      1.0  0.21960  0.93700  0.58380  1.0000 -0.0710132208
C   C122      1.0  0.32290  0.98130  0.05390  1.0000 -0.0808908858
C   C123      1.0  0.19500  0.96600  0.97800  1.0000 -0.0710132208
C   C124      1.0  0.97340  0.62180  0.71630  1.0000 -0.0710132208
C   C125      1.0  0.42110  0.13130  0.97370  1.0000 -0.1905229729
C   C126      1.0  0.80200  0.42170  0.70730  1.0000 -0.0592263018
C   C127      1.0  0.24960  0.64450  0.15240  1.0000 0.6233840591
C   C128      1.0  0.59620  0.28400  0.18470  1.0000 0.6000104881
C   C129      1.0  0.51150  0.28720  0.51240  1.0000 -0.0196342718
C   C130      1.0  0.92670  0.27360  0.36070  1.0000 0.6000104881
C   C131      1.0  0.50720  0.31550  0.16040  1.0000 -0.0196342718
C   C132      1.0  0.07880  0.30540  0.02310  1.0000 -0.0710132208
C   C133      1.0  0.62350  0.84490  0.17240  1.0000 -0.1905229729
C   C134      1.0  0.73790  0.10620  0.16590  1.0000 -0.0381137341
C   C135      1.0  0.73280  0.98760  0.17960  1.0000 0.1818995736
C   C136      1.0  0.80030  0.02020  0.21410  1.0000 -0.1905229729
C   C137      1.0  0.60120  0.25450  0.52500  1.0000 0.6000104881
C   C138      1.0  0.50320  0.33790  0.48260  1.0000 -0.0710132208
C   C139      1.0  0.42120  0.29360  0.16500  1.0000 -0.0864454724
C   C140      1.0  0.48110  0.90740  0.20390  1.0000 -0.0710132208
C   C141      1.0  0.99750  0.32710  0.03520  1.0000 -0.031050868
C   C142      1.0  0.63820  0.90200  0.18810  1.0000 0.1818995736
C   C143      1.0  0.50890  0.36760  0.13340  1.0000 -0.0592263018
C   C144      1.0  0.25350  0.61670  0.54060  1.0000 0.555590973
C   C145      1.0  0.33880  0.32240  0.14330  1.0000 -0.1994750744
C   C146      1.0  0.34490  0.34960  0.49280  1.0000 0.1818995736
C   C147      1.0  0.00230  0.37520  0.06740  1.0000 -0.0710132208
C   C148      1.0  0.08890  0.40170  0.08810  1.0000 -0.1905229729
C   C149      1.0  0.37460  0.82260  0.18930  1.0000 0.6000104881
C   C150      1.0  0.17030  0.37980  0.07670  1.0000 0.1884374178
C   C151      1.0  0.56660  0.93280  0.20320  1.0000 -0.1994750744
C   C152      1.0  0.73710  0.16840  0.15830  1.0000 0.5725988604
C   C153      1.0  0.25970  0.46710  0.11080  1.0000 0.1693498499
C   C154      1.0  0.25560  0.58280  0.13700  1.0000 -0.031050868
C   C155      1.0  0.29810  0.48500  0.16290  1.0000 -0.1813011032
C   C156      1.0  0.16490  0.33090  0.04370  1.0000 -0.1994750744
C   C157      1.0  0.97930  0.84660  0.26350  1.0000 -0.031050868
C   C158      1.0  0.25780  0.55530  0.52350  1.0000 -0.0196342718
C   C159      1.0  0.07060  0.81930  0.29130  1.0000 0.6233840591
C   C160      1.0  0.00870  0.33940  0.43440  1.0000 -0.0592263018
C   C161      1.0  0.90150  0.84150  0.28580  1.0000 -0.0808908858
C   C162      1.0  0.46480  0.85030  0.18730  1.0000 -0.0196342718
C   C163      1.0  0.01350  0.29810  0.39530  1.0000 -0.0381137341
C   C164      1.0  0.90470  0.29930  0.01190  1.0000 0.6000104881
C   C165      1.0  0.81140  0.89820  0.21320  1.0000 0.1818995736
C   C166      1.0  0.42610  0.39620  0.11250  1.0000 -0.1813011032
C   C167      1.0  0.34130  0.37450  0.11800  1.0000 0.1693498499
C   C168      1.0  0.17590  0.35170  0.45400  1.0000 0.1818995736
C   C169      1.0  0.18150  0.30820  0.41700  1.0000 -0.1994750744
C   C170      1.0  0.19510  0.47710  0.46360  1.0000 -0.1905229729
C   C171      1.0  0.35330  0.29890  0.52260  1.0000 -0.1905229729
C   C172      1.0  0.67330  0.07280  0.12970  1.0000 -0.0710132208
C   C173      1.0  0.89060  0.90360  0.19180  1.0000 -0.1813011032
C   C174      1.0  0.10080  0.28200  0.38840  1.0000 -0.0808908858
C   C175      1.0  0.43550  0.26750  0.53190  1.0000 -0.0710132208
C   C176      1.0  0.25840  0.43980  0.49430  1.0000 0.1884374178
C   C177      1.0  0.29560  0.54250  0.17610  1.0000 -0.0808908858
C   C178      1.0  0.81690  0.86570  0.26050  1.0000 -0.1905229729
C   C179      1.0  0.67100  0.01380  0.13660  1.0000 -0.1905229729
C   C180      1.0  0.53640  0.81960  0.17220  1.0000 -0.0710132208
C   C181      1.0  0.22250  0.50620  0.07100  1.0000 -0.1715902555
C   C182      1.0  0.08820  0.36550  0.46350  1.0000 -0.1905229729
C   C183      1.0  0.32300  0.46090  0.54000  1.0000 -0.1905229729
C   C184      1.0  0.21960  0.56300  0.08380  1.0000 -0.0710132208
C   C185      1.0  0.32290  0.51870  0.55390  1.0000 -0.0808908858
C   C186      1.0  0.19500  0.53400  0.47800  1.0000 -0.0710132208
C   C187      1.0  0.97340  0.87820  0.21630  1.0000 -0.0710132208
C   C188      1.0  0.42110  0.36870  0.47370  1.0000 -0.1905229729
C   C189      1.0  0.80200  0.07830  0.20730  1.0000 -0.0592263018
C   C190      1.0  0.75040  0.14450  0.34760  1.0000 0.6233840591
C   C191      1.0  0.40380  0.78400  0.31530  1.0000 0.6000104881
C   C192      1.0  0.48850  0.78720  0.98760  1.0000 -0.0196342718
C   C193      1.0  0.07330  0.77360  0.13930  1.0000 0.6000104881
C   C194      1.0  0.49280  0.81550  0.33960  1.0000 -0.0196342718
C   C195      1.0  0.92120  0.80540  0.47690  1.0000 -0.0710132208
C   C196      1.0  0.37650  0.34490  0.32760  1.0000 -0.1905229729
C   C197      1.0  0.26210  0.60620  0.33410  1.0000 -0.0381137341
C   C198      1.0  0.26720  0.48760  0.32040  1.0000 0.1818995736
C   C199      1.0  0.19970  0.52020  0.28590  1.0000 -0.1905229729
C   C200      1.0  0.39880  0.75450  0.97500  1.0000 0.6000104881
C   C201      1.0  0.49680  0.83790  0.01740  1.0000 -0.0710132208
C   C202      1.0  0.57880  0.79360  0.33500  1.0000 -0.0864454724
C   C203      1.0  0.51890  0.40740  0.29610  1.0000 -0.0710132208
C   C204      1.0  0.00250  0.82710  0.46480  1.0000 -0.031050868
C   C205      1.0  0.36180  0.40200  0.31190  1.0000 0.1818995736
C   C206      1.0  0.49110  0.86760  0.36660  1.0000 -0.0592263018
C   C207      1.0  0.74650  0.11670  0.95940  1.0000 0.555590973
C   C208      1.0  0.66120  0.82240  0.35670  1.0000 -0.1994750744
C   C209      1.0  0.65510  0.84960  0.00720  1.0000 0.1818995736
C   C210      1.0  0.99770  0.87520  0.43260  1.0000 -0.0710132208
C   C211      1.0  0.91110  0.90170  0.41190  1.0000 -0.1905229729
C   C212      1.0  0.62540  0.32260  0.31070  1.0000 0.6000104881
C   C213      1.0  0.82970  0.87980  0.42330  1.0000 0.1884374178
C   C214      1.0  0.43340  0.43280  0.29680  1.0000 -0.1994750744
C   C215      1.0  0.26290  0.66840  0.34170  1.0000 0.5725988604
C   C216      1.0  0.74030  0.96710  0.38920  1.0000 0.1693498499
C   C217      1.0  0.74440  0.08280  0.36300  1.0000 -0.031050868
C   C218      1.0  0.70190  0.98500  0.33710  1.0000 -0.1813011032
C   C219      1.0  0.83510  0.83090  0.45630  1.0000 -0.1994750744
C   C220      1.0  0.02070  0.34660  0.23650  1.0000 -0.031050868
C   C221      1.0  0.74220  0.05530  0.97650  1.0000 -0.0196342718
C   C222      1.0  0.92940  0.31930  0.20870  1.0000 0.6233840591
C   C223      1.0  0.99130  0.83940  0.06560  1.0000 -0.0592263018
C   C224      1.0  0.09850  0.34150  0.21420  1.0000 -0.0808908858
C   C225      1.0  0.53520  0.35030  0.31270  1.0000 -0.0196342718
C   C226      1.0  0.98650  0.79810  0.10470  1.0000 -0.0381137341
C   C227      1.0  0.09530  0.79930  0.48810  1.0000 0.6000104881
C   C228      1.0  0.18860  0.39820  0.28680  1.0000 0.1818995736
C   C229      1.0  0.57390  0.89620  0.38750  1.0000 -0.1813011032
C   C230      1.0  0.65870  0.87450  0.38200  1.0000 0.1693498499
C   C231      1.0  0.82410  0.85170  0.04600  1.0000 0.1818995736
C   C232      1.0  0.81850  0.80820  0.08300  1.0000 -0.1994750744
C   C233      1.0  0.80490  0.97710  0.03640  1.0000 -0.1905229729
C   C234      1.0  0.64670  0.79890  0.97740  1.0000 -0.1905229729
C   C235      1.0  0.32670  0.57280  0.37030  1.0000 -0.0710132208
C   C236      1.0  0.10940  0.40360  0.30820  1.0000 -0.1813011032
C   C237      1.0  0.89920  0.78200  0.11160  1.0000 -0.0808908858
C   C238      1.0  0.56450  0.76750  0.96810  1.0000 -0.0710132208
C   C239      1.0  0.74160  0.93980  0.00570  1.0000 0.1884374178
C   C240      1.0  0.70440  0.04250  0.32390  1.0000 -0.0808908858
C   C241      1.0  0.18310  0.36570  0.23950  1.0000 -0.1905229729
C   C242      1.0  0.32900  0.51380  0.36340  1.0000 -0.1905229729
C   C243      1.0  0.46360  0.31960  0.32780  1.0000 -0.0710132208
C   C244      1.0  0.77750  0.00620  0.42900  1.0000 -0.1715902555
C   C245      1.0  0.91180  0.86550  0.03650  1.0000 -0.1905229729
C   C246      1.0  0.67700  0.96090  0.96000  1.0000 -0.1905229729
C   C247      1.0  0.78040  0.06300  0.41620  1.0000 -0.0710132208
C   C248      1.0  0.67710  0.01870  0.94610  1.0000 -0.0808908858
C   C249      1.0  0.80500  0.03400  0.02200  1.0000 -0.0710132208
C   C250      1.0  0.02660  0.37820  0.28370  1.0000 -0.0710132208
C   C251      1.0  0.57890  0.86870  0.02630  1.0000 -0.1905229729
C   C252      1.0  0.19800  0.57830  0.29270  1.0000 -0.0592263018
N   N1        1.0  0.74190  0.59310  0.90180  1.0000 -0.1715902555
N   N2        1.0  0.27280  0.07300  0.81190  1.0000 -0.1813011032
N   N3        1.0  0.74060  0.61980  0.51780  1.0000 -0.1715902555
N   N4        1.0  0.25810  0.09310  0.59820  1.0000 -0.1715902555
N   N5        1.0  0.72720  0.57300  0.68810  1.0000 -0.1813011032
N   N6        1.0  0.25940  0.11980  0.98220  1.0000 -0.1715902555
N   N7        1.0  0.25810  0.40690  0.09820  1.0000 -0.1715902555
N   N8        1.0  0.72720  0.92700  0.18810  1.0000 -0.1813011032
N   N9        1.0  0.25940  0.38020  0.48220  1.0000 -0.1715902555
N   N10       1.0  0.74190  0.90690  0.40180  1.0000 -0.1715902555
N   N11       1.0  0.27280  0.42700  0.31190  1.0000 -0.1813011032
N   N12       1.0  0.74060  0.88020  0.01780  1.0000 -0.1715902555
O   O1        1.0  0.20490  0.80070  0.80680  1.0000 -0.6964498006
O   O2        1.0  0.31750  0.81030  0.88190  1.0000 -0.5620034629
O   O3        1.0  0.13020  0.80200  0.91340  1.0000 -0.2519703352
O   O4        1.0  0.15280  0.70700  0.63402  1.0000 -0.7150976353
O   O5        1.0  0.06890  0.76270  0.67550  1.0000 -0.5817783617
O   O6        1.0  0.32590  0.69720  0.82516  1.0000 -0.6854747676
O   O7        1.0  0.73150  0.34160  0.79880  1.0000 -0.6020071052
O   O8        1.0  0.40480  0.75680  0.78290  1.0000 -0.5817783617
O   O9        1.0  0.32720  0.72660  0.49030  1.0000 -0.6603613936
O   O10       1.0  0.24100  0.61490  0.88860  1.0000 -0.5210317516
O   O11       1.0  0.09680  0.73800  0.02410  1.0000 -0.5878067159
O   O12       1.0  0.64750  0.22500  0.83558  1.0000 -0.6964498006
O   O13       1.0  0.39520  0.79090  0.44720  1.0000 -0.5620034629
O   O14       1.0  0.67890  0.15370  0.78400  1.0000 -0.5667278164
O   O15       1.0  0.77730  0.32180  0.88710  1.0000 -0.6421227001
O   O16       1.0  0.81320  0.35180  0.48520  1.0000 -0.5667278164
O   O17       1.0  0.68640  0.36540  0.41980  1.0000 -0.6020071052
O   O18       1.0  0.16720  0.68700  0.97030  1.0000 -0.6421227001
O   O19       1.0  0.92230  0.20140  0.66210  1.0000 -0.5878067159
O   O20       1.0  0.86350  0.18060  0.73500  1.0000 -0.6603613936
O   O21       1.0  0.39780  0.80320  0.57870  1.0000 -0.4296737754
O   O22       1.0  0.79510  0.30070  0.69320  1.0000 -0.6964498006
O   O23       1.0  0.68250  0.31030  0.61810  1.0000 -0.5620034629
O   O24       1.0  0.86980  0.30200  0.58660  1.0000 -0.2519703352
O   O25       1.0  0.84720  0.20700  0.86598  1.0000 -0.7150976353
O   O26       1.0  0.93110  0.26270  0.82450  1.0000 -0.5817783617
O   O27       1.0  0.67410  0.19720  0.67484  1.0000 -0.6854747676
O   O28       1.0  0.26850  0.84160  0.70120  1.0000 -0.6020071052
O   O29       1.0  0.59520  0.25680  0.71710  1.0000 -0.5817783617
O   O30       1.0  0.67280  0.22660  0.00970  1.0000 -0.6603613936
O   O31       1.0  0.75900  0.11490  0.61140  1.0000 -0.5210317516
O   O32       1.0  0.90320  0.23800  0.47590  1.0000 -0.5878067159
O   O33       1.0  0.35250  0.72500  0.66442  1.0000 -0.6964498006
O   O34       1.0  0.60480  0.29090  0.05280  1.0000 -0.5620034629
O   O35       1.0  0.32110  0.65370  0.71600  1.0000 -0.5667278164
O   O36       1.0  0.22270  0.82180  0.61290  1.0000 -0.6421227001
O   O37       1.0  0.18680  0.85180  0.01480  1.0000 -0.5667278164
O   O38       1.0  0.31360  0.86540  0.08020  1.0000 -0.6020071052
O   O39       1.0  0.83280  0.18700  0.52970  1.0000 -0.6421227001
O   O40       1.0  0.07770  0.70140  0.83790  1.0000 -0.5878067159
O   O41       1.0  0.13650  0.68060  0.76500  1.0000 -0.6603613936
O   O42       1.0  0.60220  0.30320  0.92130  1.0000 -0.4296737754
O   O43       1.0  0.79510  0.19930  0.19320  1.0000 -0.6964498006
O   O44       1.0  0.68250  0.18970  0.11810  1.0000 -0.5620034629
O   O45       1.0  0.86980  0.19800  0.08660  1.0000 -0.2519703352
O   O46       1.0  0.84720  0.29300  0.36598  1.0000 -0.7150976353
O   O47       1.0  0.93110  0.23730  0.32450  1.0000 -0.5817783617
O   O48       1.0  0.67410  0.30280  0.17484  1.0000 -0.6854747676
O   O49       1.0  0.26850  0.65840  0.20120  1.0000 -0.6020071052
O   O50       1.0  0.59520  0.24320  0.21710  1.0000 -0.5817783617
O   O51       1.0  0.67280  0.27340  0.50970  1.0000 -0.6603613936
O   O52       1.0  0.75900  0.38510  0.11140  1.0000 -0.5210317516
O   O53       1.0  0.90320  0.26200  0.97590  1.0000 -0.5878067159
O   O54       1.0  0.35250  0.77500  0.16442  1.0000 -0.6964498006
O   O55       1.0  0.60480  0.20910  0.55280  1.0000 -0.5620034629
O   O56       1.0  0.32110  0.84630  0.21600  1.0000 -0.5667278164
O   O57       1.0  0.22270  0.67820  0.11290  1.0000 -0.6421227001
O   O58       1.0  0.18680  0.64820  0.51480  1.0000 -0.5667278164
O   O59       1.0  0.31360  0.63460  0.58020  1.0000 -0.6020071052
O   O60       1.0  0.83280  0.31300  0.02970  1.0000 -0.6421227001
O   O61       1.0  0.07770  0.79860  0.33790  1.0000 -0.5878067159
O   O62       1.0  0.13650  0.81940  0.26500  1.0000 -0.6603613936
O   O63       1.0  0.60220  0.19680  0.42130  1.0000 -0.4296737754
O   O64       1.0  0.20490  0.69930  0.30680  1.0000 -0.6964498006
O   O65       1.0  0.31750  0.68970  0.38190  1.0000 -0.5620034629
O   O66       1.0  0.13020  0.69800  0.41340  1.0000 -0.2519703352
O   O67       1.0  0.15280  0.79300  0.13402  1.0000 -0.7150976353
O   O68       1.0  0.06890  0.73730  0.17550  1.0000 -0.5817783617
O   O69       1.0  0.32590  0.80280  0.32516  1.0000 -0.6854747676
O   O70       1.0  0.73150  0.15840  0.29880  1.0000 -0.6020071052
O   O71       1.0  0.40480  0.74320  0.28290  1.0000 -0.5817783617
O   O72       1.0  0.32720  0.77340  0.99030  1.0000 -0.6603613936
O   O73       1.0  0.24100  0.88510  0.38860  1.0000 -0.5210317516
O   O74       1.0  0.09680  0.76200  0.52410  1.0000 -0.5878067159
O   O75       1.0  0.64750  0.27500  0.33558  1.0000 -0.6964498006
O   O76       1.0  0.39520  0.70910  0.94720  1.0000 -0.5620034629
O   O77       1.0  0.67890  0.34630  0.28400  1.0000 -0.5667278164
O   O78       1.0  0.77730  0.17820  0.38710  1.0000 -0.6421227001
O   O79       1.0  0.81320  0.14820  0.98520  1.0000 -0.5667278164
O   O80       1.0  0.68640  0.13460  0.91980  1.0000 -0.6020071052
O   O81       1.0  0.16720  0.81300  0.47030  1.0000 -0.6421227001
O   O82       1.0  0.92230  0.29860  0.16210  1.0000 -0.5878067159
O   O83       1.0  0.86350  0.31940  0.23500  1.0000 -0.6603613936
O   O84       1.0  0.39780  0.69680  0.07870  1.0000 -0.4296737754
