# DDEC6 charges by PACMAN v1.1 (https://github.com/mtap-research/PACMAN-charge/)
data_2011[Cu][bbf]3[FSR]1
_chemical_formula_sum              "Cu4 H48 C84 N24"
_cell_length_a       17.8729
_cell_length_b       8.7298
_cell_length_c       22.7524
_cell_angle_alpha    90
_cell_angle_beta     96.072
_cell_angle_gamma    90

_symmetry_space_group_name_H-M    "P 1"
_symmetry_Int_Tables_number       1

loop_
  _symmetry_equiv_pos_as_xyz
  'x, y, z'

loop_
  _atom_site_type_symbol
  _atom_site_label
  _atom_site_symmetry_multiplicity
  _atom_site_fract_x
  _atom_site_fract_y
  _atom_site_fract_z
  _atom_site_occupancy
  _atom_site_charge
Cu  Cu1       1.0  0.43255  0.96245  0.24480  1.0000 0.2329205365
Cu  Cu2       1.0  0.56745  0.46245  0.25520  1.0000 0.2329205365
Cu  Cu3       1.0  0.56745  0.03755  0.75520  1.0000 0.2397230408
Cu  Cu4       1.0  0.43255  0.53755  0.74480  1.0000 0.2329205365
H   H1        1.0  0.29710  0.22640  0.49220  1.0000 0.2854177049
H   H2        1.0  0.70290  0.72640  0.00780  1.0000 0.2854177049
H   H3        1.0  0.70290  0.77360  0.50780  1.0000 0.2854177049
H   H4        1.0  0.29710  0.27360  0.99220  1.0000 0.2854177049
H   H5        1.0  0.30660  0.84810  0.31060  1.0000 0.1106567411
H   H6        1.0  0.69340  0.34810  0.18940  1.0000 0.1106567411
H   H7        1.0  0.69340  0.15190  0.68940  1.0000 0.1106567411
H   H8        1.0  0.30660  0.65190  0.81060  1.0000 0.1106567411
H   H9        1.0  0.22070  0.92830  0.37290  1.0000 0.1502684942
H   H10       1.0  0.77930  0.42830  0.12710  1.0000 0.1502684942
H   H11       1.0  0.77930  0.07170  0.62710  1.0000 0.1502684942
H   H12       1.0  0.22070  0.57170  0.87290  1.0000 0.1502684942
H   H13       1.0  0.33110  0.32790  0.38950  1.0000 0.141460239
H   H14       1.0  0.66890  0.82790  0.11050  1.0000 0.141460239
H   H15       1.0  0.66890  0.67210  0.61050  1.0000 0.141460239
H   H16       1.0  0.33110  0.17210  0.88950  1.0000 0.141460239
H   H17       1.0  0.41110  0.23910  0.32420  1.0000 0.1106567411
H   H18       1.0  0.58890  0.73910  0.17580  1.0000 0.1106567411
H   H19       1.0  0.58890  0.76090  0.67580  1.0000 0.1106567411
H   H20       1.0  0.41110  0.26090  0.82420  1.0000 0.1106567411
H   H21       1.0  0.05190  0.33610  0.44340  1.0000 0.1225632728
H   H22       1.0  0.94810  0.83610  0.05660  1.0000 0.1225632728
H   H23       1.0  0.94810  0.66390  0.55660  1.0000 0.1225632728
H   H24       1.0  0.05190  0.16390  0.94340  1.0000 0.1225632728
H   H25       1.0  0.28040  0.37220  0.71730  1.0000 0.0987830047
H   H26       1.0  0.71960  0.87220  0.78270  1.0000 0.0987830047
H   H27       1.0  0.71960  0.62780  0.28270  1.0000 0.0987830047
H   H28       1.0  0.28040  0.12780  0.21730  1.0000 0.0987830047
H   H29       1.0  0.20140  0.28480  0.63810  1.0000 0.1502684942
H   H30       1.0  0.79860  0.78480  0.86190  1.0000 0.1502684942
H   H31       1.0  0.79860  0.71520  0.36190  1.0000 0.1502684942
H   H32       1.0  0.20140  0.21520  0.13810  1.0000 0.1502684942
H   H33       1.0  0.33220  0.50150  0.53110  1.0000 0.141460239
H   H34       1.0  0.66780  0.00150  0.96890  1.0000 0.141460239
H   H35       1.0  0.66780  0.49850  0.46890  1.0000 0.141460239
H   H36       1.0  0.33220  0.99850  0.03110  1.0000 0.141460239
H   H37       1.0  0.40440  0.58990  0.61390  1.0000 0.1106567411
H   H38       1.0  0.59560  0.08990  0.88610  1.0000 0.1106567411
H   H39       1.0  0.59560  0.41010  0.38610  1.0000 0.1106567411
H   H40       1.0  0.40440  0.91010  0.11390  1.0000 0.1106567411
H   H41       1.0  0.12590  0.02700  0.53560  1.0000 0.1106567411
H   H42       1.0  0.87410  0.52700  0.96440  1.0000 0.1106567411
H   H43       1.0  0.87410  0.97300  0.46440  1.0000 0.1106567411
H   H44       1.0  0.12590  0.47300  0.03560  1.0000 0.1106567411
H   H45       1.0  0.05680  0.81890  0.56440  1.0000 0.1225632728
H   H46       1.0  0.94320  0.31890  0.93560  1.0000 0.1225632728
H   H47       1.0  0.94320  0.18110  0.43560  1.0000 0.1225632728
H   H48       1.0  0.05680  0.68110  0.06440  1.0000 0.1225632728
C   C1        1.0  0.31100  0.94650  0.32630  1.0000 0.0734258871
C   C2        1.0  0.68900  0.44650  0.17370  1.0000 0.0734258871
C   C3        1.0  0.68900  0.05350  0.67370  1.0000 0.0734258871
C   C4        1.0  0.31100  0.55350  0.82630  1.0000 0.0734258871
C   C5        1.0  0.25920  0.99320  0.36400  1.0000 -0.1834636172
C   C6        1.0  0.74080  0.49320  0.13600  1.0000 -0.1834636172
C   C7        1.0  0.74080  0.00680  0.63600  1.0000 -0.1834636172
C   C8        1.0  0.25920  0.50680  0.86400  1.0000 -0.1834636172
C   C9        1.0  0.26620  0.13750  0.38790  1.0000 0.0734258871
C   C10       1.0  0.73380  0.63750  0.11210  1.0000 0.0734258871
C   C11       1.0  0.73380  0.86250  0.61210  1.0000 0.0734258871
C   C12       1.0  0.26620  0.36250  0.88790  1.0000 0.0734258871
C   C13       1.0  0.32460  0.23040  0.37340  1.0000 -0.1968333395
C   C14       1.0  0.67540  0.73040  0.12660  1.0000 -0.1968333395
C   C15       1.0  0.67540  0.76960  0.62660  1.0000 -0.1968333395
C   C16       1.0  0.32460  0.26960  0.87340  1.0000 -0.1968333395
C   C17       1.0  0.37290  0.17540  0.33450  1.0000 0.0881231254
C   C18       1.0  0.62710  0.67540  0.16550  1.0000 0.0881231254
C   C19       1.0  0.62710  0.82460  0.66550  1.0000 0.0881231254
C   C20       1.0  0.37290  0.32460  0.83450  1.0000 0.0881231254
C   C21       1.0  0.21450  0.19630  0.43000  1.0000 0.1293598684
C   C22       1.0  0.78550  0.69630  0.07000  1.0000 0.1293598684
C   C23       1.0  0.78550  0.80370  0.57000  1.0000 0.1293598684
C   C24       1.0  0.21450  0.30370  0.93000  1.0000 0.1293598684
C   C25       1.0  0.13980  0.20700  0.41740  1.0000 -0.0707991914
C   C26       1.0  0.86020  0.70700  0.08260  1.0000 -0.0707991914
C   C27       1.0  0.86020  0.79300  0.58260  1.0000 -0.0707991914
C   C28       1.0  0.13980  0.29300  0.91740  1.0000 -0.0707991914
C   C29       1.0  0.08700  0.26030  0.46240  1.0000 -0.0862693404
C   C30       1.0  0.91300  0.76030  0.03760  1.0000 -0.0862693404
C   C31       1.0  0.91300  0.73970  0.53760  1.0000 -0.0862693404
C   C32       1.0  0.08700  0.23970  0.96240  1.0000 -0.0862693404
C   C33       1.0  0.13500  0.33720  0.51330  1.0000 -0.0707991914
C   C34       1.0  0.86500  0.83720  0.98670  1.0000 -0.0707991914
C   C35       1.0  0.86500  0.66280  0.48670  1.0000 -0.0707991914
C   C36       1.0  0.13500  0.16280  0.01330  1.0000 -0.0707991914
C   C37       1.0  0.21030  0.32140  0.52270  1.0000 0.1293598684
C   C38       1.0  0.78970  0.82140  0.97730  1.0000 0.1293598684
C   C39       1.0  0.78970  0.67860  0.47730  1.0000 0.1293598684
C   C40       1.0  0.21030  0.17860  0.02270  1.0000 0.1293598684
C   C41       1.0  0.29090  0.39860  0.67940  1.0000 0.0987830047
C   C42       1.0  0.70910  0.89860  0.82060  1.0000 0.0987830047
C   C43       1.0  0.70910  0.60140  0.32060  1.0000 0.0987830047
C   C44       1.0  0.29090  0.10140  0.17940  1.0000 0.0881231254
C   C45       1.0  0.24280  0.34500  0.63200  1.0000 -0.1898569436
C   C46       1.0  0.75720  0.84500  0.86800  1.0000 -0.1898569436
C   C47       1.0  0.75720  0.65500  0.36800  1.0000 -0.1898569436
C   C48       1.0  0.24280  0.15500  0.13200  1.0000 -0.1898569436
C   C49       1.0  0.25800  0.38320  0.57510  1.0000 0.0734258871
C   C50       1.0  0.74200  0.88320  0.92490  1.0000 0.0734258871
C   C51       1.0  0.74200  0.61680  0.42490  1.0000 0.0788156506
C   C52       1.0  0.25800  0.11680  0.07510  1.0000 0.0734258871
C   C53       1.0  0.32020  0.47470  0.56860  1.0000 -0.1968333395
C   C54       1.0  0.67980  0.97470  0.93140  1.0000 -0.1968333395
C   C55       1.0  0.67980  0.52530  0.43140  1.0000 -0.1968333395
C   C56       1.0  0.32020  0.02530  0.06860  1.0000 -0.1968333395
C   C57       1.0  0.36400  0.52540  0.61850  1.0000 0.0734258871
C   C58       1.0  0.63600  0.02540  0.88150  1.0000 0.0734258871
C   C59       1.0  0.63600  0.47460  0.38150  1.0000 0.0788156506
C   C60       1.0  0.36400  0.97460  0.11850  1.0000 0.0734258871
C   C61       1.0  0.10460  0.17080  0.35980  1.0000 0.2397230408
C   C62       1.0  0.89540  0.67080  0.14020  1.0000 0.2397230408
C   C63       1.0  0.89540  0.82920  0.64020  1.0000 0.2397230408
C   C64       1.0  0.10460  0.32920  0.85980  1.0000 0.2397230408
C   C65       1.0  0.09690  0.42950  0.55270  1.0000 0.2397230408
C   C66       1.0  0.90310  0.92950  0.94730  1.0000 0.2397230408
C   C67       1.0  0.90310  0.57050  0.44730  1.0000 0.2397230408
C   C68       1.0  0.09690  0.07050  0.05270  1.0000 0.2397230408
C   C69       1.0  0.04190  0.12540  0.48290  1.0000 0.0788156506
C   C70       1.0  0.95810  0.62540  0.01710  1.0000 0.0788156506
C   C71       1.0  0.95810  0.87460  0.51710  1.0000 0.0788156506
C   C72       1.0  0.04190  0.37460  0.98290  1.0000 0.0788156506
C   C73       1.0  0.07550  0.01690  0.52120  1.0000 -0.1536289574
C   C74       1.0  0.92450  0.51690  0.97880  1.0000 -0.1536289574
C   C75       1.0  0.92450  0.98310  0.47880  1.0000 -0.1536289574
C   C76       1.0  0.07550  0.48310  0.02120  1.0000 -0.1536289574
C   C77       1.0  0.03380  0.89140  0.53850  1.0000 -0.1434391224
C   C78       1.0  0.96620  0.39140  0.96150  1.0000 -0.1434391224
C   C79       1.0  0.96620  0.10860  0.46150  1.0000 -0.1434391224
C   C80       1.0  0.03380  0.60860  0.03850  1.0000 -0.1434391224
C   C81       1.0  0.47240  0.76310  0.25220  1.0000 -0.1693423362
C   C82       1.0  0.52760  0.26310  0.24780  1.0000 -0.1693423362
C   C83       1.0  0.52760  0.23690  0.74780  1.0000 -0.1693423362
C   C84       1.0  0.47240  0.73690  0.75220  1.0000 -0.1693423362
N   N1        1.0  0.36700  0.03500  0.31120  1.0000 -0.1834636172
N   N2        1.0  0.63300  0.53500  0.18880  1.0000 -0.1834636172
N   N3        1.0  0.63300  0.96500  0.68880  1.0000 -0.1834636172
N   N4        1.0  0.36700  0.46500  0.81120  1.0000 -0.1834636172
N   N5        1.0  0.24990  0.24450  0.48335  1.0000 -0.3132310072
N   N6        1.0  0.75010  0.74450  0.01665  1.0000 -0.3132310072
N   N7        1.0  0.75010  0.75550  0.51665  1.0000 -0.3132310072
N   N8        1.0  0.24990  0.25550  0.98335  1.0000 -0.3132310072
N   N9        1.0  0.35070  0.48510  0.67405  1.0000 -0.1898569436
N   N10       1.0  0.64930  0.98510  0.82595  1.0000 -0.1898569436
N   N11       1.0  0.64930  0.51490  0.32595  1.0000 -0.1898569436
N   N12       1.0  0.35070  0.01490  0.17405  1.0000 -0.1898569436
N   N13       1.0  0.07430  0.14470  0.31420  1.0000 -0.360850186
N   N14       1.0  0.92570  0.64470  0.18580  1.0000 -0.360850186
N   N15       1.0  0.92570  0.85530  0.68580  1.0000 -0.360850186
N   N16       1.0  0.07430  0.35530  0.81420  1.0000 -0.360850186
N   N17       1.0  0.06360  0.50150  0.58340  1.0000 -0.360850186
N   N18       1.0  0.93640  0.00150  0.91660  1.0000 -0.360850186
N   N19       1.0  0.93640  0.49850  0.41660  1.0000 -0.360850186
N   N20       1.0  0.06360  0.99850  0.08340  1.0000 -0.360850186
N   N21       1.0  0.50160  0.64500  0.25770  1.0000 -0.3181365886
N   N22       1.0  0.49840  0.14500  0.24230  1.0000 -0.3181365886
N   N23       1.0  0.49840  0.35500  0.74230  1.0000 -0.3181365886
N   N24       1.0  0.50160  0.85500  0.75770  1.0000 -0.3181365886
