# DDEC6 charges by PACMAN v1.1 (https://github.com/mtap-research/PACMAN-charge/)
data_2011[Co][qzd]3[FSR]1
_chemical_formula_sum              "Co6 H84 C102 S6 N12 O36"
_cell_length_a       11.4284
_cell_length_b       11.4284
_cell_length_c       30.743
_cell_angle_alpha    90
_cell_angle_beta     90
_cell_angle_gamma    120

_symmetry_space_group_name_H-M    "P 1"
_symmetry_Int_Tables_number       1

loop_
  _symmetry_equiv_pos_as_xyz
  'x, y, z'

loop_
  _atom_site_type_symbol
  _atom_site_label
  _atom_site_symmetry_multiplicity
  _atom_site_fract_x
  _atom_site_fract_y
  _atom_site_fract_z
  _atom_site_occupancy
  _atom_site_charge
Co  Co1       1.0  0.00000  0.93788  0.83333  1.0000 0.8547359782
Co  Co2       1.0  0.06212  0.06212  0.50000  1.0000 0.8547359782
Co  Co3       1.0  0.93788  0.00000  0.16667  1.0000 0.8547359782
Co  Co4       1.0  0.08570  0.08570  0.00000  1.0000 0.9189977723
Co  Co5       1.0  0.91430  0.00000  0.66667  1.0000 0.9189977723
Co  Co6       1.0  1.00000  0.91430  0.33333  1.0000 0.9189977723
H   H1        1.0  0.55850  0.13070  0.99760  1.0000 0.12842121
H   H2        1.0  0.86930  0.42780  0.66427  1.0000 0.12842121
H   H3        1.0  0.57220  0.44150  0.33093  1.0000 0.12842121
H   H4        1.0  0.42780  0.86930  0.33573  1.0000 0.12842121
H   H5        1.0  0.44150  0.57220  0.66907  1.0000 0.12842121
H   H6        1.0  0.13070  0.55850  0.00240  1.0000 0.12842121
H   H7        1.0  0.57070  0.77530  0.00070  1.0000 0.1459857502
H   H8        1.0  0.22470  0.79540  0.66737  1.0000 0.1459857502
H   H9        1.0  0.20460  0.42930  0.33403  1.0000 0.1459857502
H   H10       1.0  0.79540  0.22470  0.33263  1.0000 0.1459857502
H   H11       1.0  0.42930  0.20460  0.66597  1.0000 0.1459857502
H   H12       1.0  0.77530  0.57070  0.99930  1.0000 0.1459857502
H   H13       1.0  0.77840  0.97660  0.00290  1.0000 0.1186289744
H   H14       1.0  0.02340  0.80180  0.66957  1.0000 0.1186289744
H   H15       1.0  0.19820  0.22160  0.33623  1.0000 0.1186289744
H   H16       1.0  0.80180  0.02340  0.33043  1.0000 0.1186289744
H   H17       1.0  0.22160  0.19820  0.66377  1.0000 0.1186289744
H   H18       1.0  0.97660  0.77840  0.99710  1.0000 0.1186289744
H   H19       1.0  0.40650  0.24260  0.87200  1.0000 0.1186289744
H   H20       1.0  0.75740  0.16390  0.53867  1.0000 0.1186289744
H   H21       1.0  0.83610  0.59350  0.20533  1.0000 0.1186289744
H   H22       1.0  0.16390  0.75740  0.46133  1.0000 0.1186289744
H   H23       1.0  0.59350  0.83610  0.79467  1.0000 0.1186289744
H   H24       1.0  0.24260  0.40650  0.12800  1.0000 0.1186289744
H   H25       1.0  0.63260  0.36700  0.89150  1.0000 0.1076166327
H   H26       1.0  0.63300  0.26560  0.55817  1.0000 0.1076166327
H   H27       1.0  0.73440  0.36740  0.22483  1.0000 0.1076166327
H   H28       1.0  0.26560  0.63300  0.44183  1.0000 0.1076166327
H   H29       1.0  0.36740  0.73440  0.77517  1.0000 0.1076166327
H   H30       1.0  0.36700  0.63260  0.10850  1.0000 0.1076166327
H   H31       1.0  0.20690  0.00730  0.78580  1.0000 0.3414762892
H   H32       1.0  0.99270  0.19960  0.45247  1.0000 0.3414762892
H   H33       1.0  0.80040  0.79310  0.11913  1.0000 0.3414762892
H   H34       1.0  0.19960  0.99270  0.54753  1.0000 0.3414762892
H   H35       1.0  0.79310  0.80040  0.88087  1.0000 0.3414762892
H   H36       1.0  0.00730  0.20690  0.21420  1.0000 0.3414762892
H   H37       1.0  0.09680  0.95230  0.75790  1.0000 0.3414762892
H   H38       1.0  0.04770  0.14450  0.42457  1.0000 0.3414762892
H   H39       1.0  0.85550  0.90320  0.09123  1.0000 0.3414762892
H   H40       1.0  0.14450  0.04770  0.57543  1.0000 0.3414762892
H   H41       1.0  0.90320  0.85550  0.90877  1.0000 0.3414762892
H   H42       1.0  0.95230  0.09680  0.24210  1.0000 0.3414762892
H   H43       1.0  0.97630  0.33790  0.89850  1.0000 0.1379153955
H   H44       1.0  0.66210  0.63840  0.56517  1.0000 0.1379153955
H   H45       1.0  0.36160  0.02370  0.23183  1.0000 0.1379153955
H   H46       1.0  0.63840  0.66210  0.43483  1.0000 0.1379153955
H   H47       1.0  0.02370  0.36160  0.76817  1.0000 0.1379153955
H   H48       1.0  0.33790  0.97630  0.10150  1.0000 0.1379153955
H   H49       1.0  0.97670  0.13450  0.89690  1.0000 0.1186289744
H   H50       1.0  0.86550  0.84220  0.56357  1.0000 0.1186289744
H   H51       1.0  0.15780  0.02330  0.23023  1.0000 0.1186289744
H   H52       1.0  0.84220  0.86550  0.43643  1.0000 0.1186289744
H   H53       1.0  0.02330  0.15780  0.76977  1.0000 0.1186289744
H   H54       1.0  0.13450  0.97670  0.10310  1.0000 0.1186289744
H   H55       1.0  0.03130  0.54290  0.89820  1.0000 0.1459857502
H   H56       1.0  0.45710  0.48840  0.56487  1.0000 0.1459857502
H   H57       1.0  0.51160  0.96870  0.23153  1.0000 0.1459857502
H   H58       1.0  0.48840  0.45710  0.43513  1.0000 0.1459857502
H   H59       1.0  0.96870  0.51160  0.76847  1.0000 0.1459857502
H   H60       1.0  0.54290  0.03130  0.10180  1.0000 0.1459857502
H   H61       1.0  0.55660  0.43510  0.05280  1.0000 0.1379153955
H   H62       1.0  0.56490  0.12150  0.71947  1.0000 0.1379153955
H   H63       1.0  0.87850  0.44340  0.38613  1.0000 0.1379153955
H   H64       1.0  0.12150  0.56490  0.28053  1.0000 0.1379153955
H   H65       1.0  0.44340  0.87850  0.61387  1.0000 0.1379153955
H   H66       1.0  0.43510  0.55660  0.94720  1.0000 0.1379153955
H   H67       1.0  0.34980  0.23720  0.05210  1.0000 0.1076166327
H   H68       1.0  0.76280  0.11260  0.71877  1.0000 0.1076166327
H   H69       1.0  0.88740  0.65020  0.38543  1.0000 0.1076166327
H   H70       1.0  0.11260  0.76280  0.28123  1.0000 0.1076166327
H   H71       1.0  0.65020  0.88740  0.61457  1.0000 0.1076166327
H   H72       1.0  0.23720  0.34980  0.94790  1.0000 0.1076166327
H   H73       1.0  0.03900  0.74960  0.89560  1.0000 0.1076166327
H   H74       1.0  0.25040  0.28940  0.56227  1.0000 0.1076166327
H   H75       1.0  0.71060  0.96100  0.22893  1.0000 0.1076166327
H   H76       1.0  0.28940  0.25040  0.43773  1.0000 0.1076166327
H   H77       1.0  0.96100  0.71060  0.77107  1.0000 0.1076166327
H   H78       1.0  0.74960  0.03900  0.10440  1.0000 0.1076166327
H   H79       1.0  0.71070  0.31170  0.95440  1.0000 0.12842121
H   H80       1.0  0.68830  0.39900  0.62107  1.0000 0.12842121
H   H81       1.0  0.60100  0.28930  0.28773  1.0000 0.12842121
H   H82       1.0  0.39900  0.68830  0.37893  1.0000 0.12842121
H   H83       1.0  0.28930  0.60100  0.71227  1.0000 0.12842121
H   H84       1.0  0.31170  0.71070  0.04560  1.0000 0.12842121
C   C1        1.0  0.00000  0.50260  0.83333  1.0000 0.1186289744
C   C2        1.0  0.49740  0.49740  0.50000  1.0000 0.1186289744
C   C3        1.0  0.50260  0.00000  0.16667  1.0000 0.1186289744
C   C4        1.0  0.51870  0.51870  0.00000  1.0000 0.1076166327
C   C5        1.0  0.48130  0.00000  0.66667  1.0000 0.1076166327
C   C6        1.0  1.00000  0.48130  0.33333  1.0000 0.1076166327
C   C7        1.0  0.52690  0.15560  0.97264  1.0000 -0.0953430735
C   C8        1.0  0.84440  0.37130  0.63931  1.0000 -0.0953430735
C   C9        1.0  0.62870  0.47310  0.30597  1.0000 -0.0953430735
C   C10       1.0  0.37130  0.84440  0.36069  1.0000 -0.0953430735
C   C11       1.0  0.47310  0.62870  0.69403  1.0000 -0.0953430735
C   C12       1.0  0.15560  0.52690  0.02736  1.0000 -0.0953430735
C   C13       1.0  0.19570  0.05060  0.91034  1.0000 0.5917708553
C   C14       1.0  0.94940  0.14510  0.57701  1.0000 0.5917708553
C   C15       1.0  0.85490  0.80430  0.24367  1.0000 0.5917708553
C   C16       1.0  0.14510  0.94940  0.42299  1.0000 0.5917708553
C   C17       1.0  0.80430  0.85490  0.75633  1.0000 0.5917708553
C   C18       1.0  0.05060  0.19570  0.08966  1.0000 0.5917708553
C   C19       1.0  0.34280  0.11790  0.92503  1.0000 -0.0351495628
C   C20       1.0  0.88210  0.22490  0.59170  1.0000 -0.0344589462
C   C21       1.0  0.77510  0.65720  0.25836  1.0000 -0.0344589462
C   C22       1.0  0.22490  0.88210  0.40830  1.0000 -0.0351495628
C   C23       1.0  0.65720  0.77510  0.74164  1.0000 -0.0351495628
C   C24       1.0  0.11790  0.34280  0.07497  1.0000 -0.0351495628
C   C25       1.0  0.65240  0.77260  0.00069  1.0000 -0.2090842945
C   C26       1.0  0.22740  0.87980  0.66736  1.0000 -0.2090842945
C   C27       1.0  0.12020  0.34760  0.33402  1.0000 -0.2090842945
C   C28       1.0  0.87980  0.22740  0.33264  1.0000 -0.2090842945
C   C29       1.0  0.34760  0.12020  0.66598  1.0000 -0.2090842945
C   C30       1.0  0.77260  0.65240  0.99931  1.0000 -0.2090842945
C   C31       1.0  0.77740  0.89300  0.00138  1.0000 0.0974663871
C   C32       1.0  0.10700  0.88440  0.66805  1.0000 0.0974663871
C   C33       1.0  0.11560  0.22260  0.33471  1.0000 0.0974663871
C   C34       1.0  0.88440  0.10700  0.33195  1.0000 0.0974663871
C   C35       1.0  0.22260  0.11560  0.66529  1.0000 0.0974663871
C   C36       1.0  0.89300  0.77740  0.99862  1.0000 0.0974663871
C   C37       1.0  0.38870  0.08460  0.96240  1.0000 -0.1099275584
C   C38       1.0  0.91540  0.30410  0.62907  1.0000 -0.1099275584
C   C39       1.0  0.69590  0.61130  0.29573  1.0000 -0.1099275584
C   C40       1.0  0.30410  0.91540  0.37093  1.0000 -0.1099275584
C   C41       1.0  0.61130  0.69590  0.70427  1.0000 -0.1099275584
C   C42       1.0  0.08460  0.38870  0.03760  1.0000 -0.1099275584
C   C43       1.0  0.43630  0.22180  0.89825  1.0000 -0.1099275584
C   C44       1.0  0.77820  0.21450  0.56492  1.0000 -0.1099275584
C   C45       1.0  0.78550  0.56370  0.23158  1.0000 -0.1099275584
C   C46       1.0  0.21450  0.77820  0.43508  1.0000 -0.1099275584
C   C47       1.0  0.56370  0.78550  0.76842  1.0000 -0.1099275584
C   C48       1.0  0.22180  0.43630  0.10175  1.0000 -0.1099275584
C   C49       1.0  0.57110  0.29430  0.90943  1.0000 -0.0953430735
C   C50       1.0  0.70570  0.27680  0.57610  1.0000 -0.0953430735
C   C51       1.0  0.72320  0.42890  0.24276  1.0000 -0.0953430735
C   C52       1.0  0.27680  0.70570  0.42390  1.0000 -0.0953430735
C   C53       1.0  0.42890  0.72320  0.75724  1.0000 -0.0953430735
C   C54       1.0  0.29430  0.57110  0.09057  1.0000 -0.0953430735
C   C55       1.0  0.00000  0.37190  0.83333  1.0000 0.0974663871
C   C56       1.0  0.62810  0.62810  0.50000  1.0000 0.0974663871
C   C57       1.0  0.37190  0.00000  0.16667  1.0000 0.0974663871
C   C58       1.0  0.98610  0.30290  0.87157  1.0000 -0.1805561638
C   C59       1.0  0.69710  0.68320  0.53824  1.0000 -0.1805561638
C   C60       1.0  0.31680  0.01390  0.20490  1.0000 -0.1805561638
C   C61       1.0  0.68320  0.69710  0.46176  1.0000 -0.1805561638
C   C62       1.0  0.01390  0.31680  0.79510  1.0000 -0.1805561638
C   C63       1.0  0.30290  0.98610  0.12843  1.0000 -0.1805561638
C   C64       1.0  0.98650  0.18090  0.87033  1.0000 0.1076166327
C   C65       1.0  0.81910  0.80560  0.53700  1.0000 0.1076166327
C   C66       1.0  0.19440  0.01350  0.20366  1.0000 0.1076166327
C   C67       1.0  0.80560  0.81910  0.46300  1.0000 0.1076166327
C   C68       1.0  0.01350  0.19440  0.79634  1.0000 0.1076166327
C   C69       1.0  0.18090  0.98650  0.12967  1.0000 0.1076166327
C   C70       1.0  0.01940  0.57620  0.87122  1.0000 -0.1805561638
C   C71       1.0  0.42380  0.44320  0.53789  1.0000 -0.1805561638
C   C72       1.0  0.55680  0.98060  0.20455  1.0000 -0.1805561638
C   C73       1.0  0.44320  0.42380  0.46211  1.0000 -0.1805561638
C   C74       1.0  0.98060  0.55680  0.79545  1.0000 -0.1805561638
C   C75       1.0  0.57620  0.01940  0.12878  1.0000 -0.1805561638
C   C76       1.0  0.49170  0.42100  0.03112  1.0000 -0.1805561638
C   C77       1.0  0.57900  0.07070  0.69779  1.0000 -0.1805561638
C   C78       1.0  0.92930  0.50830  0.36445  1.0000 -0.1805561638
C   C79       1.0  0.07070  0.57900  0.30221  1.0000 -0.1805561638
C   C80       1.0  0.50830  0.92930  0.63555  1.0000 -0.1805561638
C   C81       1.0  0.42100  0.49170  0.96888  1.0000 -0.1805561638
C   C82       1.0  0.36830  0.30240  0.03005  1.0000 0.0915449538
C   C83       1.0  0.69760  0.06590  0.69672  1.0000 0.0915449538
C   C84       1.0  0.93410  0.63170  0.36338  1.0000 0.0915449538
C   C85       1.0  0.06590  0.69760  0.30328  1.0000 0.0915449538
C   C86       1.0  0.63170  0.93410  0.63662  1.0000 0.0915449538
C   C87       1.0  0.30240  0.36830  0.96995  1.0000 0.0915449538
C   C88       1.0  0.02150  0.69880  0.86958  1.0000 0.0915449538
C   C89       1.0  0.30120  0.32270  0.53625  1.0000 0.0915449538
C   C90       1.0  0.67730  0.97850  0.20291  1.0000 0.0915449538
C   C91       1.0  0.32270  0.30120  0.46375  1.0000 0.0915449538
C   C92       1.0  0.97850  0.67730  0.79709  1.0000 0.0915449538
C   C93       1.0  0.69880  0.02150  0.13042  1.0000 0.0915449538
C   C94       1.0  0.61780  0.26180  0.94675  1.0000 -0.0823567358
C   C95       1.0  0.73820  0.35600  0.61342  1.0000 -0.0823567358
C   C96       1.0  0.64400  0.38220  0.28008  1.0000 -0.0823567358
C   C97       1.0  0.35600  0.73820  0.38658  1.0000 -0.0823567358
C   C98       1.0  0.38220  0.64400  0.71992  1.0000 -0.0823567358
C   C99       1.0  0.26180  0.61780  0.05325  1.0000 -0.0823567358
C   C100      1.0  0.64920  0.64920  0.00000  1.0000 0.1076166327
C   C101      1.0  0.35080  0.00000  0.66667  1.0000 0.1076166327
C   C102      1.0  0.00000  0.35080  0.33333  1.0000 0.1076166327
S   S1        1.0  0.27906  0.94652  0.99704  1.0000 1.1697379428
S   S2        1.0  0.05348  0.33254  0.66371  1.0000 1.1697379428
S   S3        1.0  0.66746  0.72094  0.33037  1.0000 1.1697379428
S   S4        1.0  0.33254  0.05348  0.33629  1.0000 1.1697379428
S   S5        1.0  0.72094  0.66746  0.66963  1.0000 1.1697379428
S   S6        1.0  0.94652  0.27906  0.00296  1.0000 1.1697379428
N   N1        1.0  0.89440  0.89440  0.00000  1.0000 -0.2336761576
N   N2        1.0  0.10560  0.00000  0.66667  1.0000 -0.2336761576
N   N3        1.0  1.00000  0.10560  0.33333  1.0000 -0.2336761576
N   N4        1.0  0.00000  0.12620  0.83333  1.0000 -0.2606508903
N   N5        1.0  0.87380  0.87380  0.50000  1.0000 -0.2606508903
N   N6        1.0  0.12620  0.00000  0.16667  1.0000 -0.2606508903
N   N7        1.0  0.27410  0.27410  0.00000  1.0000 -0.2606508903
N   N8        1.0  0.72590  0.00000  0.66667  1.0000 -0.2606508903
N   N9        1.0  0.00000  0.72590  0.33333  1.0000 -0.2606508903
N   N10       1.0  0.00000  0.74780  0.83333  1.0000 -0.2693118277
N   N11       1.0  0.25220  0.25220  0.50000  1.0000 -0.2693118277
N   N12       1.0  0.74780  0.00000  0.16667  1.0000 -0.2693118277
O   O1        1.0  0.10440  0.03640  0.93672  1.0000 -0.5774905605
O   O2        1.0  0.96360  0.06800  0.60339  1.0000 -0.5774905605
O   O3        1.0  0.93200  0.89560  0.27005  1.0000 -0.5774905605
O   O4        1.0  0.06800  0.96360  0.39661  1.0000 -0.5774905605
O   O5        1.0  0.89560  0.93200  0.72995  1.0000 -0.5774905605
O   O6        1.0  0.03640  0.10440  0.06328  1.0000 -0.5774905605
O   O7        1.0  0.19420  0.98940  0.02097  1.0000 -0.6593209031
O   O8        1.0  0.01060  0.20480  0.68764  1.0000 -0.6593209031
O   O9        1.0  0.79520  0.80580  0.35430  1.0000 -0.6593209031
O   O10       1.0  0.20480  0.01060  0.31236  1.0000 -0.6593209031
O   O11       1.0  0.80580  0.79520  0.64570  1.0000 -0.6593209031
O   O12       1.0  0.98940  0.19420  0.97903  1.0000 -0.6593209031
O   O13       1.0  0.36770  0.92900  0.02686  1.0000 -0.6161867999
O   O14       1.0  0.07100  0.43870  0.69353  1.0000 -0.6161867999
O   O15       1.0  0.56130  0.63230  0.36019  1.0000 -0.6161867999
O   O16       1.0  0.43870  0.07100  0.30647  1.0000 -0.6161867999
O   O17       1.0  0.63230  0.56130  0.63981  1.0000 -0.6161867999
O   O18       1.0  0.92900  0.36770  0.97314  1.0000 -0.6161867999
O   O19       1.0  0.17440  0.01820  0.87134  1.0000 -0.5457248611
O   O20       1.0  0.98180  0.15620  0.53801  1.0000 -0.5457248611
O   O21       1.0  0.84380  0.82560  0.20467  1.0000 -0.5457248611
O   O22       1.0  0.15620  0.98180  0.46199  1.0000 -0.5457248611
O   O23       1.0  0.82560  0.84380  0.79533  1.0000 -0.5457248611
O   O24       1.0  0.01820  0.17440  0.12866  1.0000 -0.5457248611
O   O25       1.0  0.19980  0.83280  0.96852  1.0000 -0.6052336218
O   O26       1.0  0.16720  0.36700  0.63519  1.0000 -0.6040119452
O   O27       1.0  0.63300  0.80020  0.30185  1.0000 -0.6052336218
O   O28       1.0  0.36700  0.16720  0.36481  1.0000 -0.6040119452
O   O29       1.0  0.80020  0.63300  0.69815  1.0000 -0.6052336218
O   O30       1.0  0.83280  0.19980  0.03148  1.0000 -0.6040119452
O   O31       1.0  0.13410  0.00590  0.77910  1.0000 -0.6439633888
O   O32       1.0  0.99410  0.12820  0.44577  1.0000 -0.6450087947
O   O33       1.0  0.87180  0.86590  0.11243  1.0000 -0.6450087947
O   O34       1.0  0.12820  0.99410  0.55423  1.0000 -0.6439633888
O   O35       1.0  0.86590  0.87180  0.88757  1.0000 -0.6439633888
O   O36       1.0  0.00590  0.13410  0.22090  1.0000 -0.6450087947
