# DDEC6 charges by PACMAN v1.1 (https://github.com/mtap-research/PACMAN-charge/)
data_2011[CoNd][stp]3[FSR]1
_chemical_formula_sum              "Nd4 Co6 H72 C48 O72"
_cell_length_a       15.0841
_cell_length_b       15.0841
_cell_length_c       15.4276
_cell_angle_alpha    90
_cell_angle_beta     90
_cell_angle_gamma    120

_symmetry_space_group_name_H-M    "P 1"
_symmetry_Int_Tables_number       1

loop_
  _symmetry_equiv_pos_as_xyz
  'x, y, z'

loop_
  _atom_site_type_symbol
  _atom_site_label
  _atom_site_symmetry_multiplicity
  _atom_site_fract_x
  _atom_site_fract_y
  _atom_site_fract_z
  _atom_site_occupancy
  _atom_site_charge
Nd  Nd1       1.0  0.66667  0.33333  0.25000  1.0000 1.9146070935
Nd  Nd2       1.0  0.33333  0.66667  0.25000  1.0000 1.9156120278
Nd  Nd3       1.0  0.33333  0.66667  0.75000  1.0000 1.9156120278
Nd  Nd4       1.0  0.66667  0.33333  0.75000  1.0000 1.9156120278
Co  Co1       1.0  0.50000  0.00000  0.00000  1.0000 1.0174011646
Co  Co2       1.0  0.00000  0.50000  0.00000  1.0000 1.0174011646
Co  Co3       1.0  0.50000  0.50000  0.00000  1.0000 1.0174011646
Co  Co4       1.0  0.00000  0.50000  0.50000  1.0000 1.0174011646
Co  Co5       1.0  0.50000  0.00000  0.50000  1.0000 1.0174011646
Co  Co6       1.0  0.50000  0.50000  0.50000  1.0000 1.0174011646
H   H1        1.0  0.71480  0.09060  0.23560  1.0000 0.1286141842
H   H2        1.0  0.90940  0.62420  0.23560  1.0000 0.1286141842
H   H3        1.0  0.37580  0.28520  0.23560  1.0000 0.1286141842
H   H4        1.0  0.28520  0.90940  0.23560  1.0000 0.1286141842
H   H5        1.0  0.09060  0.37580  0.23560  1.0000 0.1286141842
H   H6        1.0  0.62420  0.71480  0.23560  1.0000 0.1286141842
H   H7        1.0  0.09060  0.71480  0.26440  1.0000 0.1286141842
H   H8        1.0  0.62420  0.90940  0.26440  1.0000 0.1286141842
H   H9        1.0  0.28520  0.37580  0.26440  1.0000 0.1286141842
H   H10       1.0  0.90940  0.28520  0.26440  1.0000 0.1286141842
H   H11       1.0  0.37580  0.09060  0.26440  1.0000 0.1286141842
H   H12       1.0  0.71480  0.62420  0.26440  1.0000 0.1286141842
H   H13       1.0  0.28520  0.90940  0.76440  1.0000 0.1286141842
H   H14       1.0  0.09060  0.37580  0.76440  1.0000 0.1286141842
H   H15       1.0  0.62420  0.71480  0.76440  1.0000 0.1286141842
H   H16       1.0  0.71480  0.09060  0.76440  1.0000 0.1286141842
H   H17       1.0  0.90940  0.62420  0.76440  1.0000 0.1286141842
H   H18       1.0  0.37580  0.28520  0.76440  1.0000 0.1286141842
H   H19       1.0  0.90940  0.28520  0.73560  1.0000 0.1286141842
H   H20       1.0  0.37580  0.09060  0.73560  1.0000 0.1286141842
H   H21       1.0  0.71480  0.62420  0.73560  1.0000 0.1286141842
H   H22       1.0  0.09060  0.71480  0.73560  1.0000 0.1286141842
H   H23       1.0  0.62420  0.90940  0.73560  1.0000 0.1286141842
H   H24       1.0  0.28520  0.37580  0.73560  1.0000 0.1286141842
H   H25       1.0  0.79230  0.15950  0.16360  1.0000 0.1402540959
H   H26       1.0  0.84050  0.63280  0.16360  1.0000 0.1402540959
H   H27       1.0  0.36720  0.20770  0.16360  1.0000 0.1402540959
H   H28       1.0  0.20770  0.84050  0.16360  1.0000 0.1402540959
H   H29       1.0  0.15950  0.36720  0.16360  1.0000 0.1402540959
H   H30       1.0  0.63280  0.79230  0.16360  1.0000 0.1402540959
H   H31       1.0  0.15950  0.79230  0.33640  1.0000 0.1402540959
H   H32       1.0  0.63280  0.84050  0.33640  1.0000 0.1402540959
H   H33       1.0  0.20770  0.36720  0.33640  1.0000 0.1402540959
H   H34       1.0  0.84050  0.20770  0.33640  1.0000 0.1402540959
H   H35       1.0  0.36720  0.15950  0.33640  1.0000 0.1402540959
H   H36       1.0  0.79230  0.63280  0.33640  1.0000 0.1402540959
H   H37       1.0  0.20770  0.84050  0.83640  1.0000 0.1402540959
H   H38       1.0  0.15950  0.36720  0.83640  1.0000 0.1402540959
H   H39       1.0  0.63280  0.79230  0.83640  1.0000 0.1402540959
H   H40       1.0  0.79230  0.15950  0.83640  1.0000 0.1402540959
H   H41       1.0  0.84050  0.63280  0.83640  1.0000 0.1402540959
H   H42       1.0  0.36720  0.20770  0.83640  1.0000 0.1402540959
H   H43       1.0  0.84050  0.20770  0.66360  1.0000 0.1402540959
H   H44       1.0  0.36720  0.15950  0.66360  1.0000 0.1402540959
H   H45       1.0  0.79230  0.63280  0.66360  1.0000 0.1402540959
H   H46       1.0  0.15950  0.79230  0.66360  1.0000 0.1402540959
H   H47       1.0  0.63280  0.84050  0.66360  1.0000 0.1402540959
H   H48       1.0  0.20770  0.36720  0.66360  1.0000 0.1402540959
H   H49       1.0  0.47480  0.83360  0.95540  1.0000 0.3368413667
H   H50       1.0  0.16640  0.64120  0.95540  1.0000 0.3368413667
H   H51       1.0  0.35880  0.52520  0.95540  1.0000 0.3368413667
H   H52       1.0  0.52520  0.16640  0.95540  1.0000 0.3368413667
H   H53       1.0  0.83360  0.35880  0.95540  1.0000 0.3368413667
H   H54       1.0  0.64120  0.47480  0.95540  1.0000 0.3368413667
H   H55       1.0  0.83360  0.47480  0.54460  1.0000 0.3368413667
H   H56       1.0  0.64120  0.16640  0.54460  1.0000 0.3368413667
H   H57       1.0  0.52520  0.35880  0.54460  1.0000 0.3368413667
H   H58       1.0  0.16640  0.52520  0.54460  1.0000 0.3368413667
H   H59       1.0  0.35880  0.83360  0.54460  1.0000 0.3368413667
H   H60       1.0  0.47480  0.64120  0.54460  1.0000 0.3368413667
H   H61       1.0  0.52520  0.16640  0.04460  1.0000 0.3368413667
H   H62       1.0  0.83360  0.35880  0.04460  1.0000 0.3368413667
H   H63       1.0  0.64120  0.47480  0.04460  1.0000 0.3368413667
H   H64       1.0  0.47480  0.83360  0.04460  1.0000 0.3368413667
H   H65       1.0  0.16640  0.64120  0.04460  1.0000 0.3368413667
H   H66       1.0  0.35880  0.52520  0.04460  1.0000 0.3368413667
H   H67       1.0  0.16640  0.52520  0.45540  1.0000 0.3368413667
H   H68       1.0  0.35880  0.83360  0.45540  1.0000 0.3368413667
H   H69       1.0  0.47480  0.64120  0.45540  1.0000 0.3368413667
H   H70       1.0  0.83360  0.47480  0.45540  1.0000 0.3368413667
H   H71       1.0  0.64120  0.16640  0.45540  1.0000 0.3368413667
H   H72       1.0  0.52520  0.35880  0.45540  1.0000 0.3368413667
C   C1        1.0  0.64700  0.13100  0.14110  1.0000 0.6198147542
C   C2        1.0  0.86900  0.51600  0.14110  1.0000 0.6198147542
C   C3        1.0  0.48400  0.35300  0.14110  1.0000 0.6198147542
C   C4        1.0  0.35300  0.86900  0.14110  1.0000 0.6198147542
C   C5        1.0  0.13100  0.48400  0.14110  1.0000 0.6198147542
C   C6        1.0  0.51600  0.64700  0.14110  1.0000 0.6198147542
C   C7        1.0  0.13100  0.64700  0.35890  1.0000 0.6198147542
C   C8        1.0  0.51600  0.86900  0.35890  1.0000 0.6198147542
C   C9        1.0  0.35300  0.48400  0.35890  1.0000 0.6198147542
C   C10       1.0  0.86900  0.35300  0.35890  1.0000 0.6198147542
C   C11       1.0  0.48400  0.13100  0.35890  1.0000 0.6198147542
C   C12       1.0  0.64700  0.51600  0.35890  1.0000 0.6198147542
C   C13       1.0  0.35300  0.86900  0.85890  1.0000 0.6198147542
C   C14       1.0  0.13100  0.48400  0.85890  1.0000 0.6198147542
C   C15       1.0  0.51600  0.64700  0.85890  1.0000 0.6198147542
C   C16       1.0  0.64700  0.13100  0.85890  1.0000 0.6198147542
C   C17       1.0  0.86900  0.51600  0.85890  1.0000 0.6198147542
C   C18       1.0  0.48400  0.35300  0.85890  1.0000 0.6198147542
C   C19       1.0  0.86900  0.35300  0.64110  1.0000 0.6198147542
C   C20       1.0  0.48400  0.13100  0.64110  1.0000 0.6198147542
C   C21       1.0  0.64700  0.51600  0.64110  1.0000 0.6198147542
C   C22       1.0  0.13100  0.64700  0.64110  1.0000 0.6198147542
C   C23       1.0  0.51600  0.86900  0.64110  1.0000 0.6198147542
C   C24       1.0  0.35300  0.48400  0.64110  1.0000 0.6198147542
C   C25       1.0  0.73480  0.14970  0.19870  1.0000 -0.1759262325
C   C26       1.0  0.85030  0.58510  0.19870  1.0000 -0.1759262325
C   C27       1.0  0.41490  0.26520  0.19870  1.0000 -0.1759262325
C   C28       1.0  0.26520  0.85030  0.19870  1.0000 -0.1759262325
C   C29       1.0  0.14970  0.41490  0.19870  1.0000 -0.1759262325
C   C30       1.0  0.58510  0.73480  0.19870  1.0000 -0.1759262325
C   C31       1.0  0.14970  0.73480  0.30130  1.0000 -0.1759262325
C   C32       1.0  0.58510  0.85030  0.30130  1.0000 -0.1759262325
C   C33       1.0  0.26520  0.41490  0.30130  1.0000 -0.1759262325
C   C34       1.0  0.85030  0.26520  0.30130  1.0000 -0.1759262325
C   C35       1.0  0.41490  0.14970  0.30130  1.0000 -0.1759262325
C   C36       1.0  0.73480  0.58510  0.30130  1.0000 -0.1759262325
C   C37       1.0  0.26520  0.85030  0.80130  1.0000 -0.1759262325
C   C38       1.0  0.14970  0.41490  0.80130  1.0000 -0.1759262325
C   C39       1.0  0.58510  0.73480  0.80130  1.0000 -0.1759262325
C   C40       1.0  0.73480  0.14970  0.80130  1.0000 -0.1759262325
C   C41       1.0  0.85030  0.58510  0.80130  1.0000 -0.1759262325
C   C42       1.0  0.41490  0.26520  0.80130  1.0000 -0.1759262325
C   C43       1.0  0.85030  0.26520  0.69870  1.0000 -0.1759262325
C   C44       1.0  0.41490  0.14970  0.69870  1.0000 -0.1759262325
C   C45       1.0  0.73480  0.58510  0.69870  1.0000 -0.1759262325
C   C46       1.0  0.14970  0.73480  0.69870  1.0000 -0.1759262325
C   C47       1.0  0.58510  0.85030  0.69870  1.0000 -0.1759262325
C   C48       1.0  0.26520  0.41490  0.69870  1.0000 -0.1759262325
O   O1        1.0  0.61640  0.19470  0.14350  1.0000 -0.6319088507
O   O2        1.0  0.80530  0.42170  0.14350  1.0000 -0.6319088507
O   O3        1.0  0.57830  0.38360  0.14350  1.0000 -0.6319088507
O   O4        1.0  0.38360  0.80530  0.14350  1.0000 -0.6319088507
O   O5        1.0  0.19470  0.57830  0.14350  1.0000 -0.6319088507
O   O6        1.0  0.42170  0.61640  0.14350  1.0000 -0.6319088507
O   O7        1.0  0.19470  0.61640  0.35650  1.0000 -0.6319088507
O   O8        1.0  0.42170  0.80530  0.35650  1.0000 -0.6319088507
O   O9        1.0  0.38360  0.57830  0.35650  1.0000 -0.6319088507
O   O10       1.0  0.80530  0.38360  0.35650  1.0000 -0.6319088507
O   O11       1.0  0.57830  0.19470  0.35650  1.0000 -0.6319088507
O   O12       1.0  0.61640  0.42170  0.35650  1.0000 -0.6319088507
O   O13       1.0  0.38360  0.80530  0.85650  1.0000 -0.6319088507
O   O14       1.0  0.19470  0.57830  0.85650  1.0000 -0.6319088507
O   O15       1.0  0.42170  0.61640  0.85650  1.0000 -0.6319088507
O   O16       1.0  0.61640  0.19470  0.85650  1.0000 -0.6319088507
O   O17       1.0  0.80530  0.42170  0.85650  1.0000 -0.6319088507
O   O18       1.0  0.57830  0.38360  0.85650  1.0000 -0.6319088507
O   O19       1.0  0.80530  0.38360  0.64350  1.0000 -0.6319088507
O   O20       1.0  0.57830  0.19470  0.64350  1.0000 -0.6319088507
O   O21       1.0  0.61640  0.42170  0.64350  1.0000 -0.6319088507
O   O22       1.0  0.19470  0.61640  0.64350  1.0000 -0.6319088507
O   O23       1.0  0.42170  0.80530  0.64350  1.0000 -0.6319088507
O   O24       1.0  0.38360  0.57830  0.64350  1.0000 -0.6319088507
O   O25       1.0  0.61180  0.05330  0.09420  1.0000 -0.5544759898
O   O26       1.0  0.94670  0.55850  0.09420  1.0000 -0.5544759898
O   O27       1.0  0.44150  0.38820  0.09420  1.0000 -0.5544759898
O   O28       1.0  0.38820  0.94670  0.09420  1.0000 -0.5553880476
O   O29       1.0  0.05330  0.44150  0.09420  1.0000 -0.5544759898
O   O30       1.0  0.55850  0.61180  0.09420  1.0000 -0.5544759898
O   O31       1.0  0.05330  0.61180  0.40580  1.0000 -0.5544759898
O   O32       1.0  0.55850  0.94670  0.40580  1.0000 -0.5553880476
O   O33       1.0  0.38820  0.44150  0.40580  1.0000 -0.5544759898
O   O34       1.0  0.94670  0.38820  0.40580  1.0000 -0.5544759898
O   O35       1.0  0.44150  0.05330  0.40580  1.0000 -0.5544759898
O   O36       1.0  0.61180  0.55850  0.40580  1.0000 -0.5544759898
O   O37       1.0  0.38820  0.94670  0.90580  1.0000 -0.5553880476
O   O38       1.0  0.05330  0.44150  0.90580  1.0000 -0.5544759898
O   O39       1.0  0.55850  0.61180  0.90580  1.0000 -0.5544759898
O   O40       1.0  0.61180  0.05330  0.90580  1.0000 -0.5544759898
O   O41       1.0  0.94670  0.55850  0.90580  1.0000 -0.5544759898
O   O42       1.0  0.44150  0.38820  0.90580  1.0000 -0.5544759898
O   O43       1.0  0.94670  0.38820  0.59420  1.0000 -0.5544759898
O   O44       1.0  0.44150  0.05330  0.59420  1.0000 -0.5544759898
O   O45       1.0  0.61180  0.55850  0.59420  1.0000 -0.5553880476
O   O46       1.0  0.05330  0.61180  0.59420  1.0000 -0.5544759898
O   O47       1.0  0.55850  0.94670  0.59420  1.0000 -0.5544759898
O   O48       1.0  0.38820  0.44150  0.59420  1.0000 -0.5553880476
O   O49       1.0  0.76395  0.23605  0.25000  1.0000 -0.22402431
O   O50       1.0  0.76395  0.52790  0.25000  1.0000 -0.22402431
O   O51       1.0  0.47210  0.23605  0.25000  1.0000 -0.22402431
O   O52       1.0  0.23605  0.76395  0.25000  1.0000 -0.22402431
O   O53       1.0  0.23605  0.47210  0.25000  1.0000 -0.22402431
O   O54       1.0  0.52790  0.76395  0.25000  1.0000 -0.22402431
O   O55       1.0  0.23605  0.76395  0.75000  1.0000 -0.22402431
O   O56       1.0  0.23605  0.47210  0.75000  1.0000 -0.22402431
O   O57       1.0  0.52790  0.76395  0.75000  1.0000 -0.22402431
O   O58       1.0  0.76395  0.23605  0.75000  1.0000 -0.22402431
O   O59       1.0  0.76395  0.52790  0.75000  1.0000 -0.22402431
O   O60       1.0  0.47210  0.23605  0.75000  1.0000 -0.22402431
O   O61       1.0  0.50840  0.86170  0.00000  1.0000 -0.6491765024
O   O62       1.0  0.13830  0.64670  0.00000  1.0000 -0.6491765024
O   O63       1.0  0.35330  0.49160  0.00000  1.0000 -0.6491765024
O   O64       1.0  0.49160  0.13830  0.00000  1.0000 -0.6491765024
O   O65       1.0  0.86170  0.35330  0.00000  1.0000 -0.6491765024
O   O66       1.0  0.64670  0.50840  0.00000  1.0000 -0.6491765024
O   O67       1.0  0.86170  0.50840  0.50000  1.0000 -0.6491765024
O   O68       1.0  0.64670  0.13830  0.50000  1.0000 -0.6491765024
O   O69       1.0  0.49160  0.35330  0.50000  1.0000 -0.6491765024
O   O70       1.0  0.13830  0.49160  0.50000  1.0000 -0.6491765024
O   O71       1.0  0.35330  0.86170  0.50000  1.0000 -0.6491765024
O   O72       1.0  0.50840  0.64670  0.50000  1.0000 -0.6491765024
