# DDEC6 charges by PACMAN v1.1 (https://github.com/mtap-research/PACMAN-charge/)
data_2011[Co][hex]3[FSR]1
_chemical_formula_sum              "Co6 H136 C152 N28 O36"
_cell_length_a       11.4
_cell_length_b       18.657
_cell_length_c       24.38
_cell_angle_alpha    90
_cell_angle_beta     90
_cell_angle_gamma    90

_symmetry_space_group_name_H-M    "P 1"
_symmetry_Int_Tables_number       1

loop_
  _symmetry_equiv_pos_as_xyz
  'x, y, z'

loop_
  _atom_site_type_symbol
  _atom_site_label
  _atom_site_symmetry_multiplicity
  _atom_site_fract_x
  _atom_site_fract_y
  _atom_site_fract_z
  _atom_site_occupancy
  _atom_site_charge
Co  Co1       1.0  0.45986  0.50000  0.50000  1.0000 0.9181320938
Co  Co2       1.0  0.54014  0.00000  0.00000  1.0000 0.9181320938
Co  Co3       1.0  0.46481  0.69972  0.48131  1.0000 0.7299223217
Co  Co4       1.0  0.46481  0.30028  0.51869  1.0000 0.7299223217
Co  Co5       1.0  0.53519  0.80028  0.98131  1.0000 0.7299223217
Co  Co6       1.0  0.53519  0.19972  0.01869  1.0000 0.7299223217
H   H1        1.0  0.42440  0.52540  0.35500  1.0000 0.0886021175
H   H2        1.0  0.42440  0.47460  0.64500  1.0000 0.0886021175
H   H3        1.0  0.57560  0.97460  0.85500  1.0000 0.0886021175
H   H4        1.0  0.57560  0.02540  0.14500  1.0000 0.0886021175
H   H5        1.0  0.63290  0.59540  0.31910  1.0000 0.1391346323
H   H6        1.0  0.63290  0.40460  0.68090  1.0000 0.1391346323
H   H7        1.0  0.36710  0.90460  0.81910  1.0000 0.1391346323
H   H8        1.0  0.36710  0.09540  0.18090  1.0000 0.1391346323
H   H9        1.0  0.59390  0.51660  0.30320  1.0000 0.1391346323
H   H10       1.0  0.59390  0.48340  0.69680  1.0000 0.1391346323
H   H11       1.0  0.40610  0.98340  0.80320  1.0000 0.1391346323
H   H12       1.0  0.40610  0.01660  0.19680  1.0000 0.1391346323
H   H13       1.0  0.63400  0.53390  0.36390  1.0000 0.1391346323
H   H14       1.0  0.63400  0.46610  0.63610  1.0000 0.1391346323
H   H15       1.0  0.36600  0.96610  0.86390  1.0000 0.1391346323
H   H16       1.0  0.36600  0.03390  0.13610  1.0000 0.1391346323
H   H17       1.0  0.09240  0.61120  0.24360  1.0000 0.122028908
H   H18       1.0  0.09240  0.38880  0.75640  1.0000 0.122028908
H   H19       1.0  0.90760  0.88880  0.74360  1.0000 0.122028908
H   H20       1.0  0.90760  0.11120  0.25640  1.0000 0.122028908
H   H21       1.0  0.12760  0.78420  0.14680  1.0000 0.122028908
H   H22       1.0  0.12760  0.21580  0.85320  1.0000 0.122028908
H   H23       1.0  0.87240  0.71580  0.64680  1.0000 0.122028908
H   H24       1.0  0.87240  0.28420  0.35320  1.0000 0.122028908
H   H25       1.0  0.39190  0.72500  0.24910  1.0000 0.1324135832
H   H26       1.0  0.39190  0.27500  0.75090  1.0000 0.1324135832
H   H27       1.0  0.60810  0.77500  0.74910  1.0000 0.1324135832
H   H28       1.0  0.60810  0.22500  0.25090  1.0000 0.1324135832
H   H29       1.0  0.77450  0.53550  0.22400  1.0000 0.122028908
H   H30       1.0  0.77450  0.46450  0.77600  1.0000 0.122028908
H   H31       1.0  0.22550  0.96450  0.72400  1.0000 0.122028908
H   H32       1.0  0.22550  0.03550  0.27600  1.0000 0.122028908
H   H33       1.0  0.80920  0.52910  0.16130  1.0000 0.122028908
H   H34       1.0  0.80920  0.47090  0.83870  1.0000 0.122028908
H   H35       1.0  0.19080  0.97090  0.66130  1.0000 0.122028908
H   H36       1.0  0.19080  0.02910  0.33870  1.0000 0.122028908
H   H37       1.0  0.67640  0.54090  0.17820  1.0000 0.122028908
H   H38       1.0  0.67640  0.45910  0.82180  1.0000 0.122028908
H   H39       1.0  0.32360  0.95910  0.67820  1.0000 0.122028908
H   H40       1.0  0.32360  0.04090  0.32180  1.0000 0.122028908
H   H41       1.0  0.76360  0.64760  0.14610  1.0000 0.0886021175
H   H42       1.0  0.76360  0.35240  0.85390  1.0000 0.0886021175
H   H43       1.0  0.23640  0.85240  0.64610  1.0000 0.0886021175
H   H44       1.0  0.23640  0.14760  0.35390  1.0000 0.0886021175
H   H45       1.0  0.69120  0.80640  0.15700  1.0000 0.1324135832
H   H46       1.0  0.69120  0.19360  0.84300  1.0000 0.1324135832
H   H47       1.0  0.30880  0.69360  0.65700  1.0000 0.1324135832
H   H48       1.0  0.30880  0.30640  0.34300  1.0000 0.1324135832
H   H49       1.0  0.67010  0.85200  0.21090  1.0000 0.1475047293
H   H50       1.0  0.67010  0.14800  0.78910  1.0000 0.1475047293
H   H51       1.0  0.32990  0.64800  0.71090  1.0000 0.1475047293
H   H52       1.0  0.32990  0.35200  0.28910  1.0000 0.1475047293
H   H53       1.0  0.71890  0.88960  0.15730  1.0000 0.1324135832
H   H54       1.0  0.71890  0.11040  0.84270  1.0000 0.1324135832
H   H55       1.0  0.28110  0.61040  0.65730  1.0000 0.1324135832
H   H56       1.0  0.28110  0.38960  0.34270  1.0000 0.1324135832
H   H57       1.0  0.51500  0.91440  0.16870  1.0000 0.0886021175
H   H58       1.0  0.51500  0.08560  0.83130  1.0000 0.0886021175
H   H59       1.0  0.48500  0.58560  0.66870  1.0000 0.0886021175
H   H60       1.0  0.48500  0.41440  0.33130  1.0000 0.0886021175
H   H61       1.0  0.87250  0.75930  0.55140  1.0000 0.1391346323
H   H62       1.0  0.87250  0.24070  0.44860  1.0000 0.1391346323
H   H63       1.0  0.12750  0.74070  0.05140  1.0000 0.1391346323
H   H64       1.0  0.12750  0.25930  0.94860  1.0000 0.1391346323
H   H65       1.0  0.67180  0.75500  0.54870  1.0000 0.1086750054
H   H66       1.0  0.67180  0.24500  0.45130  1.0000 0.1086750054
H   H67       1.0  0.32820  0.74500  0.04870  1.0000 0.1086750054
H   H68       1.0  0.32820  0.25500  0.95130  1.0000 0.1086750054
H   H69       1.0  0.67860  0.65390  0.40870  1.0000 0.1086750054
H   H70       1.0  0.67860  0.34610  0.59130  1.0000 0.1086750054
H   H71       1.0  0.32140  0.84610  0.90870  1.0000 0.1086750054
H   H72       1.0  0.32140  0.15390  0.09130  1.0000 0.1086750054
H   H73       1.0  0.87850  0.65790  0.40600  1.0000 0.1391346323
H   H74       1.0  0.87850  0.34210  0.59400  1.0000 0.1391346323
H   H75       1.0  0.12150  0.84210  0.90600  1.0000 0.1391346323
H   H76       1.0  0.12150  0.15790  0.09400  1.0000 0.1391346323
H   H77       1.0  0.05610  0.73420  0.40020  1.0000 0.1391346323
H   H78       1.0  0.05610  0.26580  0.59980  1.0000 0.1391346323
H   H79       1.0  0.94390  0.76580  0.90020  1.0000 0.1391346323
H   H80       1.0  0.94390  0.23420  0.09980  1.0000 0.1391346323
H   H81       1.0  0.25890  0.73100  0.40260  1.0000 0.1086750054
H   H82       1.0  0.25890  0.26900  0.59740  1.0000 0.1086750054
H   H83       1.0  0.74110  0.76900  0.90260  1.0000 0.1086750054
H   H84       1.0  0.74110  0.23100  0.09740  1.0000 0.1086750054
H   H85       1.0  0.25190  0.67250  0.55630  1.0000 0.1086750054
H   H86       1.0  0.25190  0.32750  0.44370  1.0000 0.1086750054
H   H87       1.0  0.74810  0.82750  0.05630  1.0000 0.1086750054
H   H88       1.0  0.74810  0.17250  0.94370  1.0000 0.1086750054
H   H89       1.0  0.05270  0.67870  0.55950  1.0000 0.1391346323
H   H90       1.0  0.05270  0.32130  0.44050  1.0000 0.1391346323
H   H91       1.0  0.94730  0.82130  0.05950  1.0000 0.1391346323
H   H92       1.0  0.94730  0.17870  0.94050  1.0000 0.1391346323
H   H93       1.0  0.50120  0.83290  0.41360  1.0000 0.122028908
H   H94       1.0  0.50120  0.16710  0.58640  1.0000 0.122028908
H   H95       1.0  0.49880  0.66710  0.91360  1.0000 0.122028908
H   H96       1.0  0.49880  0.33290  0.08640  1.0000 0.122028908
H   H97       1.0  0.49380  0.95480  0.41760  1.0000 0.1391346323
H   H98       1.0  0.49380  0.04520  0.58240  1.0000 0.1391346323
H   H99       1.0  0.50620  0.54520  0.91760  1.0000 0.1391346323
H   H100      1.0  0.50620  0.45480  0.08240  1.0000 0.1391346323
H   H101      1.0  0.40970  0.93620  0.57630  1.0000 0.1475047293
H   H102      1.0  0.40970  0.06380  0.42370  1.0000 0.1475047293
H   H103      1.0  0.59030  0.56380  0.07630  1.0000 0.1475047293
H   H104      1.0  0.59030  0.43620  0.92370  1.0000 0.1475047293
H   H105      1.0  0.41750  0.81460  0.56620  1.0000 0.122028908
H   H106      1.0  0.41750  0.18540  0.43380  1.0000 0.122028908
H   H107      1.0  0.58250  0.68540  0.06620  1.0000 0.122028908
H   H108      1.0  0.58250  0.31460  0.93380  1.0000 0.122028908
H   H109      1.0  0.25090  0.51800  0.42080  1.0000 0.1086750054
H   H110      1.0  0.25090  0.48200  0.57920  1.0000 0.1086750054
H   H111      1.0  0.74910  0.98200  0.92080  1.0000 0.1086750054
H   H112      1.0  0.74910  0.01800  0.07920  1.0000 0.1086750054
H   H113      1.0  0.05220  0.51680  0.41890  1.0000 0.1391346323
H   H114      1.0  0.05220  0.48320  0.58110  1.0000 0.1391346323
H   H115      1.0  0.94780  0.98320  0.91890  1.0000 0.1391346323
H   H116      1.0  0.94780  0.01680  0.08110  1.0000 0.1391346323
H   H117      1.0  0.87170  0.44150  0.43060  1.0000 0.1391346323
H   H118      1.0  0.87170  0.55850  0.56940  1.0000 0.1391346323
H   H119      1.0  0.12830  0.05850  0.93060  1.0000 0.1391346323
H   H120      1.0  0.12830  0.94150  0.06940  1.0000 0.1391346323
H   H121      1.0  0.67090  0.44330  0.43300  1.0000 0.1086750054
H   H122      1.0  0.67090  0.55670  0.56700  1.0000 0.1086750054
H   H123      1.0  0.32910  0.05670  0.93300  1.0000 0.1086750054
H   H124      1.0  0.32910  0.94330  0.06700  1.0000 0.1086750054
H   H125      1.0  0.45240  0.62320  0.27530  1.0000 0.2801125469
H   H126      1.0  0.45240  0.37680  0.72470  1.0000 0.2801125469
H   H127      1.0  0.54760  0.87680  0.77530  1.0000 0.2801125469
H   H128      1.0  0.54760  0.12320  0.22470  1.0000 0.2801125469
H   H129      1.0  0.91760  0.63900  0.23370  1.0000 0.2713379385
H   H130      1.0  0.91760  0.36100  0.76630  1.0000 0.2713379385
H   H131      1.0  0.08240  0.86100  0.73370  1.0000 0.2713379385
H   H132      1.0  0.08240  0.13900  0.26630  1.0000 0.2713379385
H   H133      1.0  0.49490  0.77210  0.18520  1.0000 0.2801125469
H   H134      1.0  0.49490  0.22790  0.81480  1.0000 0.2801125469
H   H135      1.0  0.50510  0.72790  0.68520  1.0000 0.2801125469
H   H136      1.0  0.50510  0.27210  0.31480  1.0000 0.2801125469
C   C1        1.0  0.46220  0.61750  0.39850  1.0000 0.555848864
C   C2        1.0  0.46220  0.38250  0.60150  1.0000 0.555848864
C   C3        1.0  0.53780  0.88250  0.89850  1.0000 0.555848864
C   C4        1.0  0.53780  0.11750  0.10150  1.0000 0.555848864
C   C5        1.0  0.46660  0.57060  0.34730  1.0000 0.0385779241
C   C6        1.0  0.46660  0.42940  0.65270  1.0000 0.0385779241
C   C7        1.0  0.53340  0.92940  0.84730  1.0000 0.0385779241
C   C8        1.0  0.53340  0.07060  0.15270  1.0000 0.0385779241
C   C9        1.0  0.59350  0.55250  0.33200  1.0000 -0.4310161797
C   C10       1.0  0.59350  0.44750  0.66800  1.0000 -0.4310161797
C   C11       1.0  0.40650  0.94750  0.83200  1.0000 -0.4310161797
C   C12       1.0  0.40650  0.05250  0.16800  1.0000 -0.4310161797
C   C13       1.0  0.29420  0.61460  0.29830  1.0000 0.4594500485
C   C14       1.0  0.29420  0.38540  0.70170  1.0000 0.4594500485
C   C15       1.0  0.70580  0.88540  0.79830  1.0000 0.4594500485
C   C16       1.0  0.70580  0.11460  0.20170  1.0000 0.4594500485
C   C17       1.0  0.24790  0.66120  0.25300  1.0000 0.0014851415
C   C18       1.0  0.24790  0.33880  0.74700  1.0000 0.0014851415
C   C19       1.0  0.75210  0.83880  0.75300  1.0000 0.0014851415
C   C20       1.0  0.75210  0.16120  0.24700  1.0000 0.0014851415
C   C21       1.0  0.13760  0.65020  0.23140  1.0000 -0.1286630658
C   C22       1.0  0.13760  0.34980  0.76860  1.0000 -0.1286630658
C   C23       1.0  0.86240  0.84980  0.73140  1.0000 -0.1286630658
C   C24       1.0  0.86240  0.15020  0.26860  1.0000 -0.1286630658
C   C25       1.0  0.09300  0.69520  0.19240  1.0000 -0.0263849934
C   C26       1.0  0.09300  0.30480  0.80760  1.0000 -0.0263849934
C   C27       1.0  0.90700  0.80480  0.69240  1.0000 -0.0263849934
C   C28       1.0  0.90700  0.19520  0.30760  1.0000 -0.0263849934
C   C29       1.0  0.15950  0.75240  0.17280  1.0000 -0.1236202949
C   C30       1.0  0.15950  0.24760  0.82720  1.0000 -0.1236202949
C   C31       1.0  0.84050  0.74760  0.67280  1.0000 -0.1236202949
C   C32       1.0  0.84050  0.25240  0.32720  1.0000 -0.1236202949
C   C33       1.0  0.27440  0.76220  0.19210  1.0000 -0.0187513707
C   C34       1.0  0.27440  0.23780  0.80790  1.0000 -0.0187513707
C   C35       1.0  0.72560  0.73780  0.69210  1.0000 -0.0187513707
C   C36       1.0  0.72560  0.26220  0.30790  1.0000 -0.0187513707
C   C37       1.0  0.31710  0.71710  0.23410  1.0000 -0.1446983991
C   C38       1.0  0.31710  0.28290  0.76590  1.0000 -0.1446983991
C   C39       1.0  0.68290  0.78290  0.73410  1.0000 -0.1446983991
C   C40       1.0  0.68290  0.21710  0.26590  1.0000 -0.1446983991
C   C41       1.0  0.97360  0.68350  0.16910  1.0000 0.4594500485
C   C42       1.0  0.97360  0.31650  0.83090  1.0000 0.4594500485
C   C43       1.0  0.02640  0.81650  0.66910  1.0000 0.4594500485
C   C44       1.0  0.02640  0.18350  0.33090  1.0000 0.4594500485
C   C45       1.0  0.75710  0.55230  0.18730  1.0000 -0.4078345922
C   C46       1.0  0.75710  0.44770  0.81270  1.0000 -0.4078345922
C   C47       1.0  0.24290  0.94770  0.68730  1.0000 -0.4078345922
C   C48       1.0  0.24290  0.05230  0.31270  1.0000 -0.4078345922
C   C49       1.0  0.77460  0.63250  0.18470  1.0000 0.0124843147
C   C50       1.0  0.77460  0.36750  0.81530  1.0000 0.0124843147
C   C51       1.0  0.22540  0.86750  0.68470  1.0000 0.0124843147
C   C52       1.0  0.22540  0.13250  0.31530  1.0000 0.0124843147
C   C53       1.0  0.68510  0.67210  0.21930  1.0000 0.5469215187
C   C54       1.0  0.68510  0.32790  0.78070  1.0000 0.5469215187
C   C55       1.0  0.31490  0.82790  0.71930  1.0000 0.5469215187
C   C56       1.0  0.31490  0.17210  0.28070  1.0000 0.5469215187
C   C57       1.0  0.34780  0.82080  0.16890  1.0000 0.4485910954
C   C58       1.0  0.34780  0.17920  0.83110  1.0000 0.4485910954
C   C59       1.0  0.65220  0.67920  0.66890  1.0000 0.4485910954
C   C60       1.0  0.65220  0.32080  0.33110  1.0000 0.4485910954
C   C61       1.0  0.66690  0.85270  0.17110  1.0000 -0.4184381393
C   C62       1.0  0.66690  0.14730  0.82890  1.0000 -0.4184381393
C   C63       1.0  0.33310  0.64730  0.67110  1.0000 -0.4184381393
C   C64       1.0  0.33310  0.35270  0.32890  1.0000 -0.4184381393
C   C65       1.0  0.54100  0.86840  0.15250  1.0000 0.0385779241
C   C66       1.0  0.54100  0.13160  0.84750  1.0000 0.0385779241
C   C67       1.0  0.45900  0.63160  0.65250  1.0000 0.0385779241
C   C68       1.0  0.45900  0.36840  0.34750  1.0000 0.0385779241
C   C69       1.0  0.53670  0.87410  0.08980  1.0000 0.57750721
C   C70       1.0  0.53670  0.12590  0.91020  1.0000 0.57750721
C   C71       1.0  0.46330  0.62590  0.58980  1.0000 0.57750721
C   C72       1.0  0.46330  0.37410  0.41020  1.0000 0.57750721
C   C73       1.0  0.83460  0.73680  0.52180  1.0000 -0.1818302301
C   C74       1.0  0.83460  0.26320  0.47820  1.0000 -0.1818302301
C   C75       1.0  0.16540  0.76320  0.02180  1.0000 -0.1818302301
C   C76       1.0  0.16540  0.23680  0.97820  1.0000 -0.1818302301
C   C77       1.0  0.71410  0.73400  0.51980  1.0000 0.0807949277
C   C78       1.0  0.71410  0.26600  0.48020  1.0000 0.0807949277
C   C79       1.0  0.28590  0.76600  0.01980  1.0000 0.0807949277
C   C80       1.0  0.28590  0.23400  0.98020  1.0000 0.0807949277
C   C81       1.0  0.71810  0.67550  0.43820  1.0000 0.0886021175
C   C82       1.0  0.71810  0.32450  0.56180  1.0000 0.0886021175
C   C83       1.0  0.28190  0.82450  0.93820  1.0000 0.0886021175
C   C84       1.0  0.28190  0.17550  0.06180  1.0000 0.0886021175
C   C85       1.0  0.83840  0.67680  0.43640  1.0000 -0.1966225663
C   C86       1.0  0.83840  0.32320  0.56360  1.0000 -0.1966225663
C   C87       1.0  0.16160  0.82320  0.93640  1.0000 -0.1966225663
C   C88       1.0  0.16160  0.17680  0.06360  1.0000 -0.1966225663
C   C89       1.0  0.90000  0.70610  0.47970  1.0000 0.1086750054
C   C90       1.0  0.90000  0.29390  0.52030  1.0000 0.1086750054
C   C91       1.0  0.10000  0.79390  0.97970  1.0000 0.1086750054
C   C92       1.0  0.10000  0.20610  0.02030  1.0000 0.1086750054
C   C93       1.0  0.03000  0.70630  0.47930  1.0000 0.1035207185
C   C94       1.0  0.03000  0.29370  0.52070  1.0000 0.1035207185
C   C95       1.0  0.97000  0.79370  0.97930  1.0000 0.1035207185
C   C96       1.0  0.97000  0.20630  0.02070  1.0000 0.1035207185
C   C97       1.0  0.09460  0.72180  0.43290  1.0000 -0.1900216564
C   C98       1.0  0.09460  0.27820  0.56710  1.0000 -0.1900216564
C   C99       1.0  0.90540  0.77820  0.93290  1.0000 -0.1900216564
C   C100      1.0  0.90540  0.22180  0.06710  1.0000 -0.1900216564
C   C101      1.0  0.21640  0.71900  0.43440  1.0000 0.0886021175
C   C102      1.0  0.21640  0.28100  0.56560  1.0000 0.0886021175
C   C103      1.0  0.78360  0.78100  0.93440  1.0000 0.0886021175
C   C104      1.0  0.78360  0.21900  0.06560  1.0000 0.0886021175
C   C105      1.0  0.21160  0.68560  0.52420  1.0000 0.0886021175
C   C106      1.0  0.21160  0.31440  0.47580  1.0000 0.0886021175
C   C107      1.0  0.78840  0.81440  0.02420  1.0000 0.0886021175
C   C108      1.0  0.78840  0.18560  0.97580  1.0000 0.0886021175
C   C109      1.0  0.09240  0.68850  0.52650  1.0000 -0.1741238264
C   C110      1.0  0.09240  0.31150  0.47350  1.0000 -0.1741238264
C   C111      1.0  0.90760  0.81150  0.02650  1.0000 -0.1741238264
C   C112      1.0  0.90760  0.18850  0.97350  1.0000 -0.1741238264
C   C113      1.0  0.48120  0.85440  0.44720  1.0000 0.0596239446
C   C114      1.0  0.48120  0.14560  0.55280  1.0000 0.0596239446
C   C115      1.0  0.51880  0.64560  0.94720  1.0000 0.0596239446
C   C116      1.0  0.51880  0.35440  0.05280  1.0000 0.0596239446
C   C117      1.0  0.47730  0.92750  0.44910  1.0000 -0.1900216564
C   C118      1.0  0.47730  0.07250  0.55090  1.0000 -0.1900216564
C   C119      1.0  0.52270  0.57250  0.94910  1.0000 -0.1900216564
C   C120      1.0  0.52270  0.42750  0.05090  1.0000 -0.1900216564
C   C121      1.0  0.44910  0.96040  0.49760  1.0000 0.1086750054
C   C122      1.0  0.44910  0.03960  0.50240  1.0000 0.1086750054
C   C123      1.0  0.55090  0.53960  0.99760  1.0000 0.1086750054
C   C124      1.0  0.55090  0.46040  0.00240  1.0000 0.1086750054
C   C125      1.0  0.42780  0.91640  0.54190  1.0000 -0.1900216564
C   C126      1.0  0.42780  0.08360  0.45810  1.0000 -0.1900216564
C   C127      1.0  0.57220  0.58360  0.04190  1.0000 -0.1900216564
C   C128      1.0  0.57220  0.41640  0.95810  1.0000 -0.1900216564
C   C129      1.0  0.43330  0.84350  0.53540  1.0000 0.0886021175
C   C130      1.0  0.43330  0.15650  0.46460  1.0000 0.0886021175
C   C131      1.0  0.56670  0.65650  0.03540  1.0000 0.0886021175
C   C132      1.0  0.56670  0.34350  0.96460  1.0000 0.0886021175
C   C133      1.0  0.21000  0.51030  0.45370  1.0000 0.0886021175
C   C134      1.0  0.21000  0.48970  0.54630  1.0000 0.0886021175
C   C135      1.0  0.79000  0.98970  0.95370  1.0000 0.0886021175
C   C136      1.0  0.79000  0.01030  0.04630  1.0000 0.0886021175
C   C137      1.0  0.09100  0.51000  0.45250  1.0000 -0.1966225663
C   C138      1.0  0.09100  0.49000  0.54750  1.0000 -0.1966225663
C   C139      1.0  0.90900  0.99000  0.95250  1.0000 -0.1966225663
C   C140      1.0  0.90900  0.01000  0.04750  1.0000 -0.1966225663
C   C141      1.0  0.02520  0.50000  0.50000  1.0000 0.0886021175
C   C142      1.0  0.97480  0.00000  0.00000  1.0000 0.0886021175
C   C143      1.0  0.89640  0.50000  0.50000  1.0000 0.0886021175
C   C144      1.0  0.10360  0.00000  0.00000  1.0000 0.0886021175
C   C145      1.0  0.83280  0.46560  0.45920  1.0000 -0.1900216564
C   C146      1.0  0.83280  0.53440  0.54080  1.0000 -0.1900216564
C   C147      1.0  0.16720  0.03440  0.95920  1.0000 -0.1900216564
C   C148      1.0  0.16720  0.96560  0.04080  1.0000 -0.1900216564
C   C149      1.0  0.71200  0.46710  0.46110  1.0000 0.0807949277
C   C150      1.0  0.71200  0.53290  0.53890  1.0000 0.0807949277
C   C151      1.0  0.28800  0.03290  0.96110  1.0000 0.0807949277
C   C152      1.0  0.28800  0.96710  0.03890  1.0000 0.0807949277
N   N1        1.0  0.40900  0.60640  0.30170  1.0000 -0.334570053
N   N2        1.0  0.40900  0.39360  0.69830  1.0000 -0.334570053
N   N3        1.0  0.59100  0.89360  0.80170  1.0000 -0.334570053
N   N4        1.0  0.59100  0.10640  0.19830  1.0000 -0.334570053
N   N5        1.0  0.89550  0.65070  0.20070  1.0000 -0.3400002447
N   N6        1.0  0.89550  0.34930  0.79930  1.0000 -0.3400002447
N   N7        1.0  0.10450  0.84930  0.70070  1.0000 -0.3400002447
N   N8        1.0  0.10450  0.15070  0.29930  1.0000 -0.3400002447
N   N9        1.0  0.46540  0.81150  0.17191  1.0000 -0.3571041701
N   N10       1.0  0.46540  0.18850  0.82809  1.0000 -0.3571041701
N   N11       1.0  0.53460  0.68850  0.67191  1.0000 -0.3571041701
N   N12       1.0  0.53460  0.31150  0.32809  1.0000 -0.3571041701
N   N13       1.0  0.65270  0.70280  0.47890  1.0000 -0.2375604836
N   N14       1.0  0.65270  0.29720  0.52110  1.0000 -0.2375604836
N   N15       1.0  0.34730  0.79720  0.97890  1.0000 -0.2375604836
N   N16       1.0  0.34730  0.20280  0.02110  1.0000 -0.2375604836
N   N17       1.0  0.27500  0.70000  0.47970  1.0000 -0.2268498195
N   N18       1.0  0.27500  0.30000  0.52030  1.0000 -0.2268498195
N   N19       1.0  0.72500  0.80000  0.97970  1.0000 -0.2268498195
N   N20       1.0  0.72500  0.20000  0.02030  1.0000 -0.2268498195
N   N21       1.0  0.45910  0.81140  0.48904  1.0000 -0.2268498195
N   N22       1.0  0.45910  0.18860  0.51096  1.0000 -0.2268498195
N   N23       1.0  0.54090  0.68860  0.98904  1.0000 -0.2268498195
N   N24       1.0  0.54090  0.31140  0.01096  1.0000 -0.2268498195
N   N25       1.0  0.27190  0.50000  0.50000  1.0000 -0.2502199402
N   N26       1.0  0.72810  0.00000  0.00000  1.0000 -0.2502199402
N   N27       1.0  0.64890  0.50000  0.50000  1.0000 -0.2502199402
N   N28       1.0  0.35110  0.00000  0.00000  1.0000 -0.2502199402
O   O1        1.0  0.46440  0.59072  0.44628  1.0000 -0.5630370108
O   O2        1.0  0.46440  0.40928  0.55372  1.0000 -0.5630370108
O   O3        1.0  0.53560  0.90928  0.94628  1.0000 -0.5630370108
O   O4        1.0  0.53560  0.09072  0.05372  1.0000 -0.5630370108
O   O5        1.0  0.46170  0.68570  0.39360  1.0000 -0.5404170779
O   O6        1.0  0.46170  0.31430  0.60640  1.0000 -0.5404170779
O   O7        1.0  0.53830  0.81430  0.89360  1.0000 -0.5404170779
O   O8        1.0  0.53830  0.18570  0.10640  1.0000 -0.5404170779
O   O9        1.0  0.22640  0.58690  0.33240  1.0000 -0.5242916373
O   O10       1.0  0.22640  0.41310  0.66760  1.0000 -0.5242916373
O   O11       1.0  0.77360  0.91310  0.83240  1.0000 -0.5242916373
O   O12       1.0  0.77360  0.08690  0.16760  1.0000 -0.5242916373
O   O13       1.0  0.71990  0.70630  0.26020  1.0000 -0.5708870617
O   O14       1.0  0.71990  0.29370  0.73980  1.0000 -0.5708870617
O   O15       1.0  0.28010  0.79370  0.76020  1.0000 -0.5708870617
O   O16       1.0  0.28010  0.20630  0.23980  1.0000 -0.5708870617
O   O17       1.0  0.57870  0.66550  0.20540  1.0000 -0.6092505184
O   O18       1.0  0.57870  0.33450  0.79460  1.0000 -0.6092505184
O   O19       1.0  0.42130  0.83450  0.70540  1.0000 -0.6092505184
O   O20       1.0  0.42130  0.16550  0.29460  1.0000 -0.6092505184
O   O21       1.0  0.94910  0.70110  0.12110  1.0000 -0.5049099651
O   O22       1.0  0.94910  0.29890  0.87890  1.0000 -0.5049099651
O   O23       1.0  0.05090  0.79890  0.62110  1.0000 -0.5049099651
O   O24       1.0  0.05090  0.20110  0.37890  1.0000 -0.5049099651
O   O25       1.0  0.52870  0.81680  0.06276  1.0000 -0.5404170779
O   O26       1.0  0.52870  0.18320  0.93724  1.0000 -0.5404170779
O   O27       1.0  0.47130  0.68320  0.56276  1.0000 -0.5404170779
O   O28       1.0  0.47130  0.31680  0.43724  1.0000 -0.5404170779
O   O29       1.0  0.54710  0.93630  0.06982  1.0000 -0.5708870617
O   O30       1.0  0.54710  0.06370  0.93018  1.0000 -0.5708870617
O   O31       1.0  0.45290  0.56370  0.56982  1.0000 -0.5708870617
O   O32       1.0  0.45290  0.43630  0.43018  1.0000 -0.5708870617
O   O33       1.0  0.30420  0.87390  0.14830  1.0000 -0.4828532067
O   O34       1.0  0.30420  0.12610  0.85170  1.0000 -0.4828532067
O   O35       1.0  0.69580  0.62610  0.64830  1.0000 -0.4828532067
O   O36       1.0  0.69580  0.37390  0.35170  1.0000 -0.4828532067
