# DDEC6 charges by PACMAN v1.1 (https://github.com/mtap-research/PACMAN-charge/)
data_2012[Zn][npo]3[FSR]1
_chemical_formula_sum              "Zn24 H168 C240 N120 O48"
_cell_length_a       26.884
_cell_length_b       26.884
_cell_length_c       18.121
_cell_angle_alpha    90
_cell_angle_beta     90
_cell_angle_gamma    120

_symmetry_space_group_name_H-M    "P 1"
_symmetry_Int_Tables_number       1

loop_
  _symmetry_equiv_pos_as_xyz
  'x, y, z'

loop_
  _atom_site_type_symbol
  _atom_site_label
  _atom_site_symmetry_multiplicity
  _atom_site_fract_x
  _atom_site_fract_y
  _atom_site_fract_z
  _atom_site_occupancy
  _atom_site_charge
Zn  Zn1       1.0  0.11057  0.44222  0.58395  1.0000 0.6561034934
Zn  Zn2       1.0  0.55778  0.66835  0.58395  1.0000 0.6561034934
Zn  Zn3       1.0  0.33165  0.88943  0.58395  1.0000 0.6561034934
Zn  Zn4       1.0  0.88943  0.55778  0.08395  1.0000 0.6561034934
Zn  Zn5       1.0  0.44222  0.33165  0.08395  1.0000 0.6561034934
Zn  Zn6       1.0  0.66835  0.11057  0.08395  1.0000 0.6561034934
Zn  Zn7       1.0  0.44222  0.11057  0.41605  1.0000 0.6561034934
Zn  Zn8       1.0  0.66835  0.55778  0.41605  1.0000 0.6561034934
Zn  Zn9       1.0  0.88943  0.33165  0.41605  1.0000 0.6561034934
Zn  Zn10      1.0  0.55778  0.88943  0.91605  1.0000 0.6561034934
Zn  Zn11      1.0  0.33165  0.44222  0.91605  1.0000 0.6561034934
Zn  Zn12      1.0  0.11057  0.66835  0.91605  1.0000 0.6561034934
Zn  Zn13      1.0  0.88943  0.55778  0.41605  1.0000 0.6561034934
Zn  Zn14      1.0  0.44222  0.33165  0.41605  1.0000 0.6561034934
Zn  Zn15      1.0  0.66835  0.11057  0.41605  1.0000 0.6561034934
Zn  Zn16      1.0  0.11057  0.44222  0.91605  1.0000 0.6561034934
Zn  Zn17      1.0  0.55778  0.66835  0.91605  1.0000 0.6561034934
Zn  Zn18      1.0  0.33165  0.88943  0.91605  1.0000 0.6561034934
Zn  Zn19      1.0  0.55778  0.88943  0.58395  1.0000 0.6561034934
Zn  Zn20      1.0  0.33165  0.44222  0.58395  1.0000 0.6561034934
Zn  Zn21      1.0  0.11057  0.66835  0.58395  1.0000 0.6561034934
Zn  Zn22      1.0  0.44222  0.11057  0.08395  1.0000 0.6561034934
Zn  Zn23      1.0  0.66835  0.55778  0.08395  1.0000 0.6561034934
Zn  Zn24      1.0  0.88943  0.33165  0.08395  1.0000 0.6561034934
H   H1        1.0  0.22490  0.44980  0.63350  1.0000 0.0941828599
H   H2        1.0  0.55020  0.77510  0.63350  1.0000 0.0941828599
H   H3        1.0  0.22490  0.77510  0.63350  1.0000 0.0941828599
H   H4        1.0  0.77510  0.55020  0.13350  1.0000 0.0941828599
H   H5        1.0  0.44980  0.22490  0.13350  1.0000 0.0941828599
H   H6        1.0  0.77510  0.22490  0.13350  1.0000 0.0941828599
H   H7        1.0  0.44980  0.22490  0.36650  1.0000 0.0941828599
H   H8        1.0  0.77510  0.55020  0.36650  1.0000 0.0941828599
H   H9        1.0  0.77510  0.22490  0.36650  1.0000 0.0941828599
H   H10       1.0  0.55020  0.77510  0.86650  1.0000 0.0941828599
H   H11       1.0  0.22490  0.44980  0.86650  1.0000 0.0941828599
H   H12       1.0  0.22490  0.77510  0.86650  1.0000 0.0941828599
H   H13       1.0  0.12910  0.43070  0.40570  1.0000 0.1377980097
H   H14       1.0  0.56930  0.69840  0.40570  1.0000 0.1377980097
H   H15       1.0  0.30160  0.87090  0.40570  1.0000 0.1377980097
H   H16       1.0  0.87090  0.56930  0.90570  1.0000 0.1377980097
H   H17       1.0  0.43070  0.30160  0.90570  1.0000 0.1377980097
H   H18       1.0  0.69840  0.12910  0.90570  1.0000 0.1377980097
H   H19       1.0  0.43070  0.12910  0.59430  1.0000 0.1377980097
H   H20       1.0  0.69840  0.56930  0.59430  1.0000 0.1377980097
H   H21       1.0  0.87090  0.30160  0.59430  1.0000 0.1377980097
H   H22       1.0  0.56930  0.87090  0.09430  1.0000 0.1377980097
H   H23       1.0  0.30160  0.43070  0.09430  1.0000 0.1377980097
H   H24       1.0  0.12910  0.69840  0.09430  1.0000 0.1377980097
H   H25       1.0  0.87090  0.56930  0.59430  1.0000 0.1377980097
H   H26       1.0  0.43070  0.30160  0.59430  1.0000 0.1377980097
H   H27       1.0  0.69840  0.12910  0.59430  1.0000 0.1377980097
H   H28       1.0  0.12910  0.43070  0.09430  1.0000 0.1377980097
H   H29       1.0  0.56930  0.69840  0.09430  1.0000 0.1377980097
H   H30       1.0  0.30160  0.87090  0.09430  1.0000 0.1377980097
H   H31       1.0  0.56930  0.87090  0.40570  1.0000 0.1377980097
H   H32       1.0  0.30160  0.43070  0.40570  1.0000 0.1377980097
H   H33       1.0  0.12910  0.69840  0.40570  1.0000 0.1377980097
H   H34       1.0  0.43070  0.12910  0.90570  1.0000 0.1377980097
H   H35       1.0  0.69840  0.56930  0.90570  1.0000 0.1377980097
H   H36       1.0  0.87090  0.30160  0.90570  1.0000 0.1377980097
H   H37       1.0  0.17490  0.43450  0.30000  1.0000 0.1025335641
H   H38       1.0  0.56550  0.74040  0.30000  1.0000 0.1025335641
H   H39       1.0  0.25960  0.82510  0.30000  1.0000 0.1025335641
H   H40       1.0  0.82510  0.56550  0.80000  1.0000 0.1025335641
H   H41       1.0  0.43450  0.25960  0.80000  1.0000 0.1025335641
H   H42       1.0  0.74040  0.17490  0.80000  1.0000 0.1025335641
H   H43       1.0  0.43450  0.17490  0.70000  1.0000 0.1025335641
H   H44       1.0  0.74040  0.56550  0.70000  1.0000 0.1025335641
H   H45       1.0  0.82510  0.25960  0.70000  1.0000 0.1025335641
H   H46       1.0  0.56550  0.82510  0.20000  1.0000 0.1025335641
H   H47       1.0  0.25960  0.43450  0.20000  1.0000 0.1025335641
H   H48       1.0  0.17490  0.74040  0.20000  1.0000 0.1025335641
H   H49       1.0  0.82510  0.56550  0.70000  1.0000 0.1025335641
H   H50       1.0  0.43450  0.25960  0.70000  1.0000 0.1025335641
H   H51       1.0  0.74040  0.17490  0.70000  1.0000 0.1025335641
H   H52       1.0  0.17490  0.43450  0.20000  1.0000 0.1025335641
H   H53       1.0  0.56550  0.74040  0.20000  1.0000 0.1025335641
H   H54       1.0  0.25960  0.82510  0.20000  1.0000 0.1025335641
H   H55       1.0  0.56550  0.82510  0.30000  1.0000 0.1025335641
H   H56       1.0  0.25960  0.43450  0.30000  1.0000 0.1025335641
H   H57       1.0  0.17490  0.74040  0.30000  1.0000 0.1025335641
H   H58       1.0  0.43450  0.17490  0.80000  1.0000 0.1025335641
H   H59       1.0  0.74040  0.56550  0.80000  1.0000 0.1025335641
H   H60       1.0  0.82510  0.25960  0.80000  1.0000 0.1025335641
H   H61       1.0  0.00000  0.42280  0.50000  1.0000 0.0941828599
H   H62       1.0  0.57720  0.57720  0.50000  1.0000 0.0941828599
H   H63       1.0  0.42280  0.00000  0.50000  1.0000 0.0941828599
H   H64       1.0  0.00000  0.57720  0.00000  1.0000 0.0941828599
H   H65       1.0  0.42280  0.42280  0.00000  1.0000 0.0941828599
H   H66       1.0  0.57720  0.00000  0.00000  1.0000 0.0941828599
H   H67       1.0  0.00000  0.57720  0.50000  1.0000 0.0941828599
H   H68       1.0  0.42280  0.42280  0.50000  1.0000 0.0941828599
H   H69       1.0  0.57720  0.00000  0.50000  1.0000 0.0941828599
H   H70       1.0  0.00000  0.42280  0.00000  1.0000 0.0941828599
H   H71       1.0  0.57720  0.57720  0.00000  1.0000 0.0941828599
H   H72       1.0  0.42280  0.00000  0.00000  1.0000 0.0941828599
H   H73       1.0  0.08980  0.31220  0.55390  1.0000 0.1308280134
H   H74       1.0  0.68780  0.77760  0.55390  1.0000 0.1308280134
H   H75       1.0  0.22240  0.91020  0.55390  1.0000 0.1308280134
H   H76       1.0  0.91020  0.68780  0.05390  1.0000 0.1308280134
H   H77       1.0  0.31220  0.22240  0.05390  1.0000 0.1308280134
H   H78       1.0  0.77760  0.08980  0.05390  1.0000 0.1308280134
H   H79       1.0  0.31220  0.08980  0.44610  1.0000 0.1308280134
H   H80       1.0  0.77760  0.68780  0.44610  1.0000 0.1308280134
H   H81       1.0  0.91020  0.22240  0.44610  1.0000 0.1308280134
H   H82       1.0  0.68780  0.91020  0.94610  1.0000 0.1308280134
H   H83       1.0  0.22240  0.31220  0.94610  1.0000 0.1308280134
H   H84       1.0  0.08980  0.77760  0.94610  1.0000 0.1308280134
H   H85       1.0  0.91020  0.68780  0.44610  1.0000 0.1308280134
H   H86       1.0  0.31220  0.22240  0.44610  1.0000 0.1308280134
H   H87       1.0  0.77760  0.08980  0.44610  1.0000 0.1308280134
H   H88       1.0  0.08980  0.31220  0.94610  1.0000 0.1308280134
H   H89       1.0  0.68780  0.77760  0.94610  1.0000 0.1308280134
H   H90       1.0  0.22240  0.91020  0.94610  1.0000 0.1308280134
H   H91       1.0  0.68780  0.91020  0.55390  1.0000 0.1308280134
H   H92       1.0  0.22240  0.31220  0.55390  1.0000 0.1308280134
H   H93       1.0  0.08980  0.77760  0.55390  1.0000 0.1308280134
H   H94       1.0  0.31220  0.08980  0.05390  1.0000 0.1308280134
H   H95       1.0  0.77760  0.68780  0.05390  1.0000 0.1308280134
H   H96       1.0  0.91020  0.22240  0.05390  1.0000 0.1308280134
H   H97       1.0  0.03720  0.21340  0.53820  1.0000 0.1169107989
H   H98       1.0  0.78660  0.82380  0.53820  1.0000 0.1169107989
H   H99       1.0  0.17620  0.96280  0.53820  1.0000 0.1169107989
H   H100      1.0  0.96280  0.78660  0.03820  1.0000 0.1169107989
H   H101      1.0  0.21340  0.17620  0.03820  1.0000 0.1169107989
H   H102      1.0  0.82380  0.03720  0.03820  1.0000 0.1169107989
H   H103      1.0  0.21340  0.03720  0.46180  1.0000 0.1169107989
H   H104      1.0  0.82380  0.78660  0.46180  1.0000 0.1169107989
H   H105      1.0  0.96280  0.17620  0.46180  1.0000 0.1169107989
H   H106      1.0  0.78660  0.96280  0.96180  1.0000 0.1169107989
H   H107      1.0  0.17620  0.21340  0.96180  1.0000 0.1169107989
H   H108      1.0  0.03720  0.82380  0.96180  1.0000 0.1169107989
H   H109      1.0  0.96280  0.78660  0.46180  1.0000 0.1169107989
H   H110      1.0  0.21340  0.17620  0.46180  1.0000 0.1169107989
H   H111      1.0  0.82380  0.03720  0.46180  1.0000 0.1169107989
H   H112      1.0  0.03720  0.21340  0.96180  1.0000 0.1169107989
H   H113      1.0  0.78660  0.82380  0.96180  1.0000 0.1169107989
H   H114      1.0  0.17620  0.96280  0.96180  1.0000 0.1169107989
H   H115      1.0  0.78660  0.96280  0.53820  1.0000 0.1169107989
H   H116      1.0  0.17620  0.21340  0.53820  1.0000 0.1169107989
H   H117      1.0  0.03720  0.82380  0.53820  1.0000 0.1169107989
H   H118      1.0  0.21340  0.03720  0.03820  1.0000 0.1169107989
H   H119      1.0  0.82380  0.78660  0.03820  1.0000 0.1169107989
H   H120      1.0  0.96280  0.17620  0.03820  1.0000 0.1169107989
H   H121      1.0  0.02430  0.33290  0.68230  1.0000 0.1169107989
H   H122      1.0  0.66710  0.69140  0.68230  1.0000 0.1169107989
H   H123      1.0  0.30860  0.97570  0.68230  1.0000 0.1169107989
H   H124      1.0  0.97570  0.66710  0.18230  1.0000 0.1169107989
H   H125      1.0  0.33290  0.30860  0.18230  1.0000 0.1169107989
H   H126      1.0  0.69140  0.02430  0.18230  1.0000 0.1169107989
H   H127      1.0  0.33290  0.02430  0.31770  1.0000 0.1169107989
H   H128      1.0  0.69140  0.66710  0.31770  1.0000 0.1169107989
H   H129      1.0  0.97570  0.30860  0.31770  1.0000 0.1169107989
H   H130      1.0  0.66710  0.97570  0.81770  1.0000 0.1169107989
H   H131      1.0  0.30860  0.33290  0.81770  1.0000 0.1169107989
H   H132      1.0  0.02430  0.69140  0.81770  1.0000 0.1169107989
H   H133      1.0  0.97570  0.66710  0.31770  1.0000 0.1169107989
H   H134      1.0  0.33290  0.30860  0.31770  1.0000 0.1169107989
H   H135      1.0  0.69140  0.02430  0.31770  1.0000 0.1169107989
H   H136      1.0  0.02430  0.33290  0.81770  1.0000 0.1169107989
H   H137      1.0  0.66710  0.69140  0.81770  1.0000 0.1169107989
H   H138      1.0  0.30860  0.97570  0.81770  1.0000 0.1169107989
H   H139      1.0  0.66710  0.97570  0.68230  1.0000 0.1169107989
H   H140      1.0  0.30860  0.33290  0.68230  1.0000 0.1169107989
H   H141      1.0  0.02430  0.69140  0.68230  1.0000 0.1169107989
H   H142      1.0  0.33290  0.02430  0.18230  1.0000 0.1169107989
H   H143      1.0  0.69140  0.66710  0.18230  1.0000 0.1169107989
H   H144      1.0  0.97570  0.30860  0.18230  1.0000 0.1169107989
H   H145      1.0  0.18480  0.54590  0.47680  1.0000 0.1120661821
H   H146      1.0  0.45410  0.63890  0.47680  1.0000 0.1120661821
H   H147      1.0  0.36110  0.81520  0.47680  1.0000 0.1120661821
H   H148      1.0  0.81520  0.45410  0.97680  1.0000 0.1120661821
H   H149      1.0  0.54590  0.36110  0.97680  1.0000 0.1120661821
H   H150      1.0  0.63890  0.18480  0.97680  1.0000 0.1120661821
H   H151      1.0  0.54590  0.18480  0.52320  1.0000 0.1120661821
H   H152      1.0  0.63890  0.45410  0.52320  1.0000 0.1120661821
H   H153      1.0  0.81520  0.36110  0.52320  1.0000 0.1120661821
H   H154      1.0  0.45410  0.81520  0.02320  1.0000 0.1120661821
H   H155      1.0  0.36110  0.54590  0.02320  1.0000 0.1120661821
H   H156      1.0  0.18480  0.63890  0.02320  1.0000 0.1120661821
H   H157      1.0  0.81520  0.45410  0.52320  1.0000 0.1120661821
H   H158      1.0  0.54590  0.36110  0.52320  1.0000 0.1120661821
H   H159      1.0  0.63890  0.18480  0.52320  1.0000 0.1120661821
H   H160      1.0  0.18480  0.54590  0.02320  1.0000 0.1120661821
H   H161      1.0  0.45410  0.63890  0.02320  1.0000 0.1120661821
H   H162      1.0  0.36110  0.81520  0.02320  1.0000 0.1120661821
H   H163      1.0  0.45410  0.81520  0.47680  1.0000 0.1120661821
H   H164      1.0  0.36110  0.54590  0.47680  1.0000 0.1120661821
H   H165      1.0  0.18480  0.63890  0.47680  1.0000 0.1120661821
H   H166      1.0  0.54590  0.18480  0.97680  1.0000 0.1120661821
H   H167      1.0  0.63890  0.45410  0.97680  1.0000 0.1120661821
H   H168      1.0  0.81520  0.36110  0.97680  1.0000 0.1120661821
C   C1        1.0  0.22245  0.44490  0.58140  1.0000 0.1377980097
C   C2        1.0  0.55510  0.77755  0.58140  1.0000 0.1454360402
C   C3        1.0  0.22245  0.77755  0.58140  1.0000 0.1377980097
C   C4        1.0  0.77755  0.55510  0.08140  1.0000 0.1454360402
C   C5        1.0  0.44490  0.22245  0.08140  1.0000 0.1377980097
C   C6        1.0  0.77755  0.22245  0.08140  1.0000 0.1377980097
C   C7        1.0  0.44490  0.22245  0.41860  1.0000 0.1377980097
C   C8        1.0  0.77755  0.55510  0.41860  1.0000 0.1454360402
C   C9        1.0  0.77755  0.22245  0.41860  1.0000 0.1377980097
C   C10       1.0  0.55510  0.77755  0.91860  1.0000 0.1454360402
C   C11       1.0  0.22245  0.44490  0.91860  1.0000 0.1377980097
C   C12       1.0  0.22245  0.77755  0.91860  1.0000 0.1454360402
C   C13       1.0  0.19120  0.43560  0.47220  1.0000 0.1308280134
C   C14       1.0  0.56440  0.75560  0.47220  1.0000 0.1308280134
C   C15       1.0  0.24440  0.80880  0.47220  1.0000 0.1308280134
C   C16       1.0  0.80880  0.56440  0.97220  1.0000 0.1308280134
C   C17       1.0  0.43560  0.24440  0.97220  1.0000 0.1308280134
C   C18       1.0  0.75560  0.19120  0.97220  1.0000 0.1308280134
C   C19       1.0  0.43560  0.19120  0.52780  1.0000 0.1308280134
C   C20       1.0  0.75560  0.56440  0.52780  1.0000 0.1308280134
C   C21       1.0  0.80880  0.24440  0.52780  1.0000 0.1308280134
C   C22       1.0  0.56440  0.80880  0.02780  1.0000 0.1308280134
C   C23       1.0  0.24440  0.43560  0.02780  1.0000 0.1308280134
C   C24       1.0  0.19120  0.75560  0.02780  1.0000 0.1308280134
C   C25       1.0  0.80880  0.56440  0.52780  1.0000 0.1308280134
C   C26       1.0  0.43560  0.24440  0.52780  1.0000 0.1308280134
C   C27       1.0  0.75560  0.19120  0.52780  1.0000 0.1308280134
C   C28       1.0  0.19120  0.43560  0.02780  1.0000 0.1308280134
C   C29       1.0  0.56440  0.75560  0.02780  1.0000 0.1308280134
C   C30       1.0  0.24440  0.80880  0.02780  1.0000 0.1308280134
C   C31       1.0  0.56440  0.80880  0.47220  1.0000 0.1308280134
C   C32       1.0  0.24440  0.43560  0.47220  1.0000 0.1308280134
C   C33       1.0  0.19120  0.75560  0.47220  1.0000 0.1308280134
C   C34       1.0  0.43560  0.19120  0.97220  1.0000 0.1308280134
C   C35       1.0  0.75560  0.56440  0.97220  1.0000 0.1308280134
C   C36       1.0  0.80880  0.24440  0.97220  1.0000 0.1308280134
C   C37       1.0  0.16550  0.43300  0.40710  1.0000 -0.17457264
C   C38       1.0  0.56700  0.73250  0.40710  1.0000 -0.1750686997
C   C39       1.0  0.26750  0.83450  0.40710  1.0000 -0.17457264
C   C40       1.0  0.83450  0.56700  0.90710  1.0000 -0.1750686997
C   C41       1.0  0.43300  0.26750  0.90710  1.0000 -0.17457264
C   C42       1.0  0.73250  0.16550  0.90710  1.0000 -0.1750686997
C   C43       1.0  0.43300  0.16550  0.59290  1.0000 -0.17457264
C   C44       1.0  0.73250  0.56700  0.59290  1.0000 -0.1750686997
C   C45       1.0  0.83450  0.26750  0.59290  1.0000 -0.17457264
C   C46       1.0  0.56700  0.83450  0.09290  1.0000 -0.17457264
C   C47       1.0  0.26750  0.43300  0.09290  1.0000 -0.1750686997
C   C48       1.0  0.16550  0.73250  0.09290  1.0000 -0.17457264
C   C49       1.0  0.83450  0.56700  0.59290  1.0000 -0.17457264
C   C50       1.0  0.43300  0.26750  0.59290  1.0000 -0.17457264
C   C51       1.0  0.73250  0.16550  0.59290  1.0000 -0.1750686997
C   C52       1.0  0.16550  0.43300  0.09290  1.0000 -0.17457264
C   C53       1.0  0.56700  0.73250  0.09290  1.0000 -0.17457264
C   C54       1.0  0.26750  0.83450  0.09290  1.0000 -0.17457264
C   C55       1.0  0.56700  0.83450  0.40710  1.0000 -0.17457264
C   C56       1.0  0.26750  0.43300  0.40710  1.0000 -0.1750686997
C   C57       1.0  0.16550  0.73250  0.40710  1.0000 -0.1750686997
C   C58       1.0  0.43300  0.16550  0.90710  1.0000 -0.17457264
C   C59       1.0  0.73250  0.56700  0.90710  1.0000 -0.1750686997
C   C60       1.0  0.83450  0.26750  0.90710  1.0000 -0.17457264
C   C61       1.0  0.19180  0.43380  0.34580  1.0000 -0.1111802692
C   C62       1.0  0.56620  0.75800  0.34580  1.0000 -0.1111802692
C   C63       1.0  0.24200  0.80820  0.34580  1.0000 -0.1111802692
C   C64       1.0  0.80820  0.56620  0.84580  1.0000 -0.1111802692
C   C65       1.0  0.43380  0.24200  0.84580  1.0000 -0.1111802692
C   C66       1.0  0.75800  0.19180  0.84580  1.0000 -0.1111802692
C   C67       1.0  0.43380  0.19180  0.65420  1.0000 -0.1111802692
C   C68       1.0  0.75800  0.56620  0.65420  1.0000 -0.1111802692
C   C69       1.0  0.80820  0.24200  0.65420  1.0000 -0.1111802692
C   C70       1.0  0.56620  0.80820  0.15420  1.0000 -0.1111802692
C   C71       1.0  0.24200  0.43380  0.15420  1.0000 -0.1111802692
C   C72       1.0  0.19180  0.75800  0.15420  1.0000 -0.1111802692
C   C73       1.0  0.80820  0.56620  0.65420  1.0000 -0.1111802692
C   C74       1.0  0.43380  0.24200  0.65420  1.0000 -0.1111802692
C   C75       1.0  0.75800  0.19180  0.65420  1.0000 -0.1111802692
C   C76       1.0  0.19180  0.43380  0.15420  1.0000 -0.1111802692
C   C77       1.0  0.56620  0.75800  0.15420  1.0000 -0.1111802692
C   C78       1.0  0.24200  0.80820  0.15420  1.0000 -0.1111802692
C   C79       1.0  0.56620  0.80820  0.34580  1.0000 -0.1111802692
C   C80       1.0  0.24200  0.43380  0.34580  1.0000 -0.1111802692
C   C81       1.0  0.19180  0.75800  0.34580  1.0000 -0.1111802692
C   C82       1.0  0.43380  0.19180  0.84580  1.0000 -0.1111802692
C   C83       1.0  0.75800  0.56620  0.84580  1.0000 -0.1111802692
C   C84       1.0  0.80820  0.24200  0.84580  1.0000 -0.1111802692
C   C85       1.0  0.00000  0.38740  0.50000  1.0000 0.1308280134
C   C86       1.0  0.61260  0.61260  0.50000  1.0000 0.1308280134
C   C87       1.0  0.38740  0.00000  0.50000  1.0000 0.1308280134
C   C88       1.0  0.00000  0.61260  0.00000  1.0000 0.1308280134
C   C89       1.0  0.38740  0.38740  0.00000  1.0000 0.1308280134
C   C90       1.0  0.61260  0.00000  0.00000  1.0000 0.1308280134
C   C91       1.0  0.00000  0.61260  0.50000  1.0000 0.1308280134
C   C92       1.0  0.38740  0.38740  0.50000  1.0000 0.1308280134
C   C93       1.0  0.61260  0.00000  0.50000  1.0000 0.1308280134
C   C94       1.0  0.00000  0.38740  0.00000  1.0000 0.1308280134
C   C95       1.0  0.61260  0.61260  0.00000  1.0000 0.1308280134
C   C96       1.0  0.38740  0.00000  0.00000  1.0000 0.1308280134
C   C97       1.0  0.02530  0.32310  0.52080  1.0000 0.1120661821
C   C98       1.0  0.67690  0.70220  0.52080  1.0000 0.1120661821
C   C99       1.0  0.29780  0.97470  0.52080  1.0000 0.1120661821
C   C100      1.0  0.97470  0.67690  0.02080  1.0000 0.1120661821
C   C101      1.0  0.32310  0.29780  0.02080  1.0000 0.1120661821
C   C102      1.0  0.70220  0.02530  0.02080  1.0000 0.1120661821
C   C103      1.0  0.32310  0.02530  0.47920  1.0000 0.1120661821
C   C104      1.0  0.70220  0.67690  0.47920  1.0000 0.1120661821
C   C105      1.0  0.97470  0.29780  0.47920  1.0000 0.1120661821
C   C106      1.0  0.67690  0.97470  0.97920  1.0000 0.1120661821
C   C107      1.0  0.29780  0.32310  0.97920  1.0000 0.1120661821
C   C108      1.0  0.02530  0.70220  0.97920  1.0000 0.1120661821
C   C109      1.0  0.97470  0.67690  0.47920  1.0000 0.1120661821
C   C110      1.0  0.32310  0.29780  0.47920  1.0000 0.1120661821
C   C111      1.0  0.70220  0.02530  0.47920  1.0000 0.1120661821
C   C112      1.0  0.02530  0.32310  0.97920  1.0000 0.1120661821
C   C113      1.0  0.67690  0.70220  0.97920  1.0000 0.1120661821
C   C114      1.0  0.29780  0.97470  0.97920  1.0000 0.1120661821
C   C115      1.0  0.67690  0.97470  0.52080  1.0000 0.1120661821
C   C116      1.0  0.29780  0.32310  0.52080  1.0000 0.1120661821
C   C117      1.0  0.02530  0.70220  0.52080  1.0000 0.1120661821
C   C118      1.0  0.32310  0.02530  0.02080  1.0000 0.1120661821
C   C119      1.0  0.70220  0.67690  0.02080  1.0000 0.1120661821
C   C120      1.0  0.97470  0.29780  0.02080  1.0000 0.1120661821
C   C121      1.0  0.05190  0.29390  0.53440  1.0000 -0.1874863265
C   C122      1.0  0.70610  0.75800  0.53440  1.0000 -0.1874863265
C   C123      1.0  0.24200  0.94810  0.53440  1.0000 -0.1874863265
C   C124      1.0  0.94810  0.70610  0.03440  1.0000 -0.1874863265
C   C125      1.0  0.29390  0.24200  0.03440  1.0000 -0.1874863265
C   C126      1.0  0.75800  0.05190  0.03440  1.0000 -0.1874863265
C   C127      1.0  0.29390  0.05190  0.46560  1.0000 -0.1874863265
C   C128      1.0  0.75800  0.70610  0.46560  1.0000 -0.1874863265
C   C129      1.0  0.94810  0.24200  0.46560  1.0000 -0.1874863265
C   C130      1.0  0.70610  0.94810  0.96560  1.0000 -0.1874863265
C   C131      1.0  0.24200  0.29390  0.96560  1.0000 -0.1874863265
C   C132      1.0  0.05190  0.75800  0.96560  1.0000 -0.1874863265
C   C133      1.0  0.94810  0.70610  0.46560  1.0000 -0.1874863265
C   C134      1.0  0.29390  0.24200  0.46560  1.0000 -0.1874863265
C   C135      1.0  0.75800  0.05190  0.46560  1.0000 -0.1874863265
C   C136      1.0  0.05190  0.29390  0.96560  1.0000 -0.1874863265
C   C137      1.0  0.70610  0.75800  0.96560  1.0000 -0.1874863265
C   C138      1.0  0.24200  0.94810  0.96560  1.0000 -0.1874863265
C   C139      1.0  0.70610  0.94810  0.53440  1.0000 -0.1874863265
C   C140      1.0  0.24200  0.29390  0.53440  1.0000 -0.1874863265
C   C141      1.0  0.05190  0.75800  0.53440  1.0000 -0.1874863265
C   C142      1.0  0.29390  0.05190  0.03440  1.0000 -0.1874863265
C   C143      1.0  0.75800  0.70610  0.03440  1.0000 -0.1874863265
C   C144      1.0  0.94810  0.24200  0.03440  1.0000 -0.1874863265
C   C145      1.0  0.02300  0.23700  0.51940  1.0000 -0.1111802692
C   C146      1.0  0.76300  0.78600  0.51940  1.0000 -0.1111802692
C   C147      1.0  0.21400  0.97700  0.51940  1.0000 -0.1158366454
C   C148      1.0  0.97700  0.76300  0.01940  1.0000 -0.1111802692
C   C149      1.0  0.23700  0.21400  0.01940  1.0000 -0.1111802692
C   C150      1.0  0.78600  0.02300  0.01940  1.0000 -0.1111802692
C   C151      1.0  0.23700  0.02300  0.48060  1.0000 -0.1111802692
C   C152      1.0  0.78600  0.76300  0.48060  1.0000 -0.1158366454
C   C153      1.0  0.97700  0.21400  0.48060  1.0000 -0.1111802692
C   C154      1.0  0.76300  0.97700  0.98060  1.0000 -0.1158366454
C   C155      1.0  0.21400  0.23700  0.98060  1.0000 -0.1158366454
C   C156      1.0  0.02300  0.78600  0.98060  1.0000 -0.1158366454
C   C157      1.0  0.97700  0.76300  0.48060  1.0000 -0.1111802692
C   C158      1.0  0.23700  0.21400  0.48060  1.0000 -0.1111802692
C   C159      1.0  0.78600  0.02300  0.48060  1.0000 -0.1111802692
C   C160      1.0  0.02300  0.23700  0.98060  1.0000 -0.1111802692
C   C161      1.0  0.76300  0.78600  0.98060  1.0000 -0.1158366454
C   C162      1.0  0.21400  0.97700  0.98060  1.0000 -0.1158366454
C   C163      1.0  0.76300  0.97700  0.51940  1.0000 -0.1158366454
C   C164      1.0  0.21400  0.23700  0.51940  1.0000 -0.1111802692
C   C165      1.0  0.02300  0.78600  0.51940  1.0000 -0.1111802692
C   C166      1.0  0.23700  0.02300  0.01940  1.0000 -0.1111802692
C   C167      1.0  0.78600  0.76300  0.01940  1.0000 -0.1111802692
C   C168      1.0  0.97700  0.21400  0.01940  1.0000 -0.1111802692
C   C169      1.0  0.05130  0.36320  0.71260  1.0000 -0.0081533855
C   C170      1.0  0.63680  0.68810  0.71260  1.0000 -0.0081533855
C   C171      1.0  0.31190  0.94870  0.71260  1.0000 -0.0081533855
C   C172      1.0  0.94870  0.63680  0.21260  1.0000 -0.0081533855
C   C173      1.0  0.36320  0.31190  0.21260  1.0000 -0.0081533855
C   C174      1.0  0.68810  0.05130  0.21260  1.0000 -0.0081533855
C   C175      1.0  0.36320  0.05130  0.28740  1.0000 -0.0081533855
C   C176      1.0  0.68810  0.63680  0.28740  1.0000 -0.0081533855
C   C177      1.0  0.94870  0.31190  0.28740  1.0000 -0.0081533855
C   C178      1.0  0.63680  0.94870  0.78740  1.0000 -0.0081533855
C   C179      1.0  0.31190  0.36320  0.78740  1.0000 -0.0081533855
C   C180      1.0  0.05130  0.68810  0.78740  1.0000 -0.0081533855
C   C181      1.0  0.94870  0.63680  0.28740  1.0000 -0.0081533855
C   C182      1.0  0.36320  0.31190  0.28740  1.0000 -0.0081533855
C   C183      1.0  0.68810  0.05130  0.28740  1.0000 -0.0081533855
C   C184      1.0  0.05130  0.36320  0.78740  1.0000 -0.0081533855
C   C185      1.0  0.63680  0.68810  0.78740  1.0000 -0.0081533855
C   C186      1.0  0.31190  0.94870  0.78740  1.0000 -0.0081533855
C   C187      1.0  0.63680  0.94870  0.71260  1.0000 -0.0081533855
C   C188      1.0  0.31190  0.36320  0.71260  1.0000 -0.0081533855
C   C189      1.0  0.05130  0.68810  0.71260  1.0000 -0.0081533855
C   C190      1.0  0.36320  0.05130  0.21260  1.0000 -0.0081533855
C   C191      1.0  0.68810  0.63680  0.21260  1.0000 -0.0081533855
C   C192      1.0  0.94870  0.31190  0.21260  1.0000 -0.0081533855
C   C193      1.0  0.12090  0.44020  0.75000  1.0000 0.2342458657
C   C194      1.0  0.55980  0.68070  0.75000  1.0000 0.2342458657
C   C195      1.0  0.31930  0.87910  0.75000  1.0000 0.2342458657
C   C196      1.0  0.87910  0.55980  0.25000  1.0000 0.2342458657
C   C197      1.0  0.44020  0.31930  0.25000  1.0000 0.2342458657
C   C198      1.0  0.68070  0.12090  0.25000  1.0000 0.2342458657
C   C199      1.0  0.44020  0.12090  0.25000  1.0000 0.2342458657
C   C200      1.0  0.68070  0.55980  0.25000  1.0000 0.2342458657
C   C201      1.0  0.87910  0.31930  0.25000  1.0000 0.2342458657
C   C202      1.0  0.55980  0.87910  0.75000  1.0000 0.2342458657
C   C203      1.0  0.31930  0.44020  0.75000  1.0000 0.2342458657
C   C204      1.0  0.12090  0.68070  0.75000  1.0000 0.2342458657
C   C205      1.0  0.16090  0.55460  0.50640  1.0000 -0.0001055434
C   C206      1.0  0.44540  0.60630  0.50640  1.0000 -0.0001055434
C   C207      1.0  0.39370  0.83910  0.50640  1.0000 -0.0001055434
C   C208      1.0  0.83910  0.44540  0.00640  1.0000 -0.0001055434
C   C209      1.0  0.55460  0.39370  0.00640  1.0000 -0.0001055434
C   C210      1.0  0.60630  0.16090  0.00640  1.0000 0.000416007
C   C211      1.0  0.55460  0.16090  0.49360  1.0000 -0.0001055434
C   C212      1.0  0.60630  0.44540  0.49360  1.0000 0.000416007
C   C213      1.0  0.83910  0.39370  0.49360  1.0000 -0.0001055434
C   C214      1.0  0.44540  0.83910  0.99360  1.0000 -0.0001055434
C   C215      1.0  0.39370  0.55460  0.99360  1.0000 -0.0001055434
C   C216      1.0  0.16090  0.60630  0.99360  1.0000 -0.0001055434
C   C217      1.0  0.83910  0.44540  0.49360  1.0000 -0.0001055434
C   C218      1.0  0.55460  0.39370  0.49360  1.0000 -0.0001055434
C   C219      1.0  0.60630  0.16090  0.49360  1.0000 0.000416007
C   C220      1.0  0.16090  0.55460  0.99360  1.0000 -0.0001055434
C   C221      1.0  0.44540  0.60630  0.99360  1.0000 -0.0001055434
C   C222      1.0  0.39370  0.83910  0.99360  1.0000 -0.0001055434
C   C223      1.0  0.44540  0.83910  0.50640  1.0000 -0.0001055434
C   C224      1.0  0.39370  0.55460  0.50640  1.0000 -0.0001055434
C   C225      1.0  0.16090  0.60630  0.50640  1.0000 -0.0001055434
C   C226      1.0  0.55460  0.16090  0.00640  1.0000 -0.0001055434
C   C227      1.0  0.60630  0.44540  0.00640  1.0000 -0.0001055434
C   C228      1.0  0.83910  0.39370  0.00640  1.0000 -0.0001055434
C   C229      1.0  0.09920  0.54960  0.58110  1.0000 0.2406506307
C   C230      1.0  0.45040  0.54960  0.58110  1.0000 0.2406506307
C   C231      1.0  0.45040  0.90080  0.58110  1.0000 0.2406506307
C   C232      1.0  0.90080  0.45040  0.08110  1.0000 0.2406506307
C   C233      1.0  0.54960  0.45040  0.08110  1.0000 0.2406506307
C   C234      1.0  0.54960  0.09920  0.08110  1.0000 0.2406506307
C   C235      1.0  0.54960  0.09920  0.41890  1.0000 0.2406506307
C   C236      1.0  0.54960  0.45040  0.41890  1.0000 0.2406506307
C   C237      1.0  0.90080  0.45040  0.41890  1.0000 0.2406506307
C   C238      1.0  0.45040  0.90080  0.91890  1.0000 0.2406506307
C   C239      1.0  0.45040  0.54960  0.91890  1.0000 0.2406506307
C   C240      1.0  0.09920  0.54960  0.91890  1.0000 0.2406506307
N   N1        1.0  0.17900  0.44130  0.54170  1.0000 -0.3227103249
N   N2        1.0  0.55870  0.73770  0.54170  1.0000 -0.3227103249
N   N3        1.0  0.26230  0.82100  0.54170  1.0000 -0.3227103249
N   N4        1.0  0.82100  0.55870  0.04170  1.0000 -0.3227103249
N   N5        1.0  0.44130  0.26230  0.04170  1.0000 -0.3227103249
N   N6        1.0  0.73770  0.17900  0.04170  1.0000 -0.3227103249
N   N7        1.0  0.44130  0.17900  0.45830  1.0000 -0.3227103249
N   N8        1.0  0.73770  0.55870  0.45830  1.0000 -0.3227103249
N   N9        1.0  0.82100  0.26230  0.45830  1.0000 -0.3227103249
N   N10       1.0  0.55870  0.82100  0.95830  1.0000 -0.3227103249
N   N11       1.0  0.26230  0.44130  0.95830  1.0000 -0.3227103249
N   N12       1.0  0.17900  0.73770  0.95830  1.0000 -0.3227103249
N   N13       1.0  0.82100  0.55870  0.45830  1.0000 -0.3227103249
N   N14       1.0  0.44130  0.26230  0.45830  1.0000 -0.3227103249
N   N15       1.0  0.73770  0.17900  0.45830  1.0000 -0.3227103249
N   N16       1.0  0.17900  0.44130  0.95830  1.0000 -0.3227103249
N   N17       1.0  0.55870  0.73770  0.95830  1.0000 -0.3227103249
N   N18       1.0  0.26230  0.82100  0.95830  1.0000 -0.3227103249
N   N19       1.0  0.55870  0.82100  0.54170  1.0000 -0.3227103249
N   N20       1.0  0.26230  0.44130  0.54170  1.0000 -0.3227103249
N   N21       1.0  0.17900  0.73770  0.54170  1.0000 -0.3227103249
N   N22       1.0  0.44130  0.17900  0.04170  1.0000 -0.3227103249
N   N23       1.0  0.73770  0.55870  0.04170  1.0000 -0.3227103249
N   N24       1.0  0.82100  0.26230  0.04170  1.0000 -0.3227103249
N   N25       1.0  0.04120  0.37920  0.52870  1.0000 -0.3295133315
N   N26       1.0  0.62080  0.66200  0.52870  1.0000 -0.3295133315
N   N27       1.0  0.33800  0.95880  0.52870  1.0000 -0.3295133315
N   N28       1.0  0.95880  0.62080  0.02870  1.0000 -0.3295133315
N   N29       1.0  0.37920  0.33800  0.02870  1.0000 -0.3295133315
N   N30       1.0  0.66200  0.04120  0.02870  1.0000 -0.3295133315
N   N31       1.0  0.37920  0.04120  0.47130  1.0000 -0.3295133315
N   N32       1.0  0.66200  0.62080  0.47130  1.0000 -0.3295133315
N   N33       1.0  0.95880  0.33800  0.47130  1.0000 -0.3295133315
N   N34       1.0  0.62080  0.95880  0.97130  1.0000 -0.3295133315
N   N35       1.0  0.33800  0.37920  0.97130  1.0000 -0.3295133315
N   N36       1.0  0.04120  0.66200  0.97130  1.0000 -0.3295133315
N   N37       1.0  0.95880  0.62080  0.47130  1.0000 -0.3295133315
N   N38       1.0  0.37920  0.33800  0.47130  1.0000 -0.3295133315
N   N39       1.0  0.66200  0.04120  0.47130  1.0000 -0.3295133315
N   N40       1.0  0.04120  0.37920  0.97130  1.0000 -0.3295133315
N   N41       1.0  0.62080  0.66200  0.97130  1.0000 -0.3295133315
N   N42       1.0  0.33800  0.95880  0.97130  1.0000 -0.3295133315
N   N43       1.0  0.62080  0.95880  0.52870  1.0000 -0.3295133315
N   N44       1.0  0.33800  0.37920  0.52870  1.0000 -0.3295133315
N   N45       1.0  0.04120  0.66200  0.52870  1.0000 -0.3295133315
N   N46       1.0  0.37920  0.04120  0.02870  1.0000 -0.3295133315
N   N47       1.0  0.66200  0.62080  0.02870  1.0000 -0.3295133315
N   N48       1.0  0.95880  0.33800  0.02870  1.0000 -0.3295133315
N   N49       1.0  0.09450  0.41180  0.68850  1.0000 -0.304197681
N   N50       1.0  0.58820  0.68270  0.68850  1.0000 -0.304197681
N   N51       1.0  0.31730  0.90550  0.68850  1.0000 -0.304197681
N   N52       1.0  0.90550  0.58820  0.18850  1.0000 -0.304197681
N   N53       1.0  0.41180  0.31730  0.18850  1.0000 -0.304197681
N   N54       1.0  0.68270  0.09450  0.18850  1.0000 -0.304197681
N   N55       1.0  0.41180  0.09450  0.31150  1.0000 -0.304197681
N   N56       1.0  0.68270  0.58820  0.31150  1.0000 -0.304197681
N   N57       1.0  0.90550  0.31730  0.31150  1.0000 -0.304197681
N   N58       1.0  0.58820  0.90550  0.81150  1.0000 -0.304197681
N   N59       1.0  0.31730  0.41180  0.81150  1.0000 -0.304197681
N   N60       1.0  0.09450  0.68270  0.81150  1.0000 -0.304197681
N   N61       1.0  0.90550  0.58820  0.31150  1.0000 -0.304197681
N   N62       1.0  0.41180  0.31730  0.31150  1.0000 -0.304197681
N   N63       1.0  0.68270  0.09450  0.31150  1.0000 -0.304197681
N   N64       1.0  0.09450  0.41180  0.81150  1.0000 -0.304197681
N   N65       1.0  0.58820  0.68270  0.81150  1.0000 -0.304197681
N   N66       1.0  0.31730  0.90550  0.81150  1.0000 -0.304197681
N   N67       1.0  0.58820  0.90550  0.68850  1.0000 -0.304197681
N   N68       1.0  0.31730  0.41180  0.68850  1.0000 -0.304197681
N   N69       1.0  0.09450  0.68270  0.68850  1.0000 -0.304197681
N   N70       1.0  0.41180  0.09450  0.18850  1.0000 -0.304197681
N   N71       1.0  0.68270  0.58820  0.18850  1.0000 -0.304197681
N   N72       1.0  0.90550  0.31730  0.18850  1.0000 -0.304197681
N   N73       1.0  0.17060  0.49630  0.75000  1.0000 0.456923325
N   N74       1.0  0.50370  0.67430  0.75000  1.0000 0.456923325
N   N75       1.0  0.32570  0.82940  0.75000  1.0000 0.456923325
N   N76       1.0  0.82940  0.50370  0.25000  1.0000 0.456923325
N   N77       1.0  0.49630  0.32570  0.25000  1.0000 0.456923325
N   N78       1.0  0.67430  0.17060  0.25000  1.0000 0.456923325
N   N79       1.0  0.49630  0.17060  0.25000  1.0000 0.456923325
N   N80       1.0  0.67430  0.50370  0.25000  1.0000 0.456923325
N   N81       1.0  0.82940  0.32570  0.25000  1.0000 0.456923325
N   N82       1.0  0.50370  0.82940  0.75000  1.0000 0.456923325
N   N83       1.0  0.32570  0.49630  0.75000  1.0000 0.456923325
N   N84       1.0  0.17060  0.67430  0.75000  1.0000 0.456923325
N   N85       1.0  0.12250  0.51980  0.55410  1.0000 -0.3081255265
N   N86       1.0  0.48020  0.60270  0.55410  1.0000 -0.3081255265
N   N87       1.0  0.39730  0.87750  0.55410  1.0000 -0.3081255265
N   N88       1.0  0.87750  0.48020  0.05410  1.0000 -0.3081255265
N   N89       1.0  0.51980  0.39730  0.05410  1.0000 -0.3081255265
N   N90       1.0  0.60270  0.12250  0.05410  1.0000 -0.3081255265
N   N91       1.0  0.51980  0.12250  0.44590  1.0000 -0.3081255265
N   N92       1.0  0.60270  0.48020  0.44590  1.0000 -0.3081255265
N   N93       1.0  0.87750  0.39730  0.44590  1.0000 -0.3081255265
N   N94       1.0  0.48020  0.87750  0.94590  1.0000 -0.3081255265
N   N95       1.0  0.39730  0.51980  0.94590  1.0000 -0.3081255265
N   N96       1.0  0.12250  0.60270  0.94590  1.0000 -0.3081255265
N   N97       1.0  0.87750  0.48020  0.44590  1.0000 -0.3081255265
N   N98       1.0  0.51980  0.39730  0.44590  1.0000 -0.3081255265
N   N99       1.0  0.60270  0.12250  0.44590  1.0000 -0.3081255265
N   N100      1.0  0.12250  0.51980  0.94590  1.0000 -0.3081255265
N   N101      1.0  0.48020  0.60270  0.94590  1.0000 -0.3081255265
N   N102      1.0  0.39730  0.87750  0.94590  1.0000 -0.3081255265
N   N103      1.0  0.48020  0.87750  0.55410  1.0000 -0.3081255265
N   N104      1.0  0.39730  0.51980  0.55410  1.0000 -0.3081255265
N   N105      1.0  0.12250  0.60270  0.55410  1.0000 -0.3081255265
N   N106      1.0  0.51980  0.12250  0.05410  1.0000 -0.3081255265
N   N107      1.0  0.60270  0.48020  0.05410  1.0000 -0.3081255265
N   N108      1.0  0.87750  0.39730  0.05410  1.0000 -0.3081255265
N   N109      1.0  0.05430  0.52715  0.63500  1.0000 0.466314387
N   N110      1.0  0.47285  0.52715  0.63500  1.0000 0.466314387
N   N111      1.0  0.47285  0.94570  0.63500  1.0000 0.466314387
N   N112      1.0  0.94570  0.47285  0.13500  1.0000 0.466314387
N   N113      1.0  0.52715  0.47285  0.13500  1.0000 0.466314387
N   N114      1.0  0.52715  0.05430  0.13500  1.0000 0.466314387
N   N115      1.0  0.52715  0.05430  0.36500  1.0000 0.466314387
N   N116      1.0  0.52715  0.47285  0.36500  1.0000 0.466314387
N   N117      1.0  0.94570  0.47285  0.36500  1.0000 0.466314387
N   N118      1.0  0.47285  0.94570  0.86500  1.0000 0.466314387
N   N119      1.0  0.47285  0.52715  0.86500  1.0000 0.466314387
N   N120      1.0  0.05430  0.52715  0.86500  1.0000 0.466314387
O   O1        1.0  0.18880  0.51810  0.68970  1.0000 -0.3295133315
O   O2        1.0  0.48190  0.67070  0.68970  1.0000 -0.3295133315
O   O3        1.0  0.32930  0.81120  0.68970  1.0000 -0.3295133315
O   O4        1.0  0.81120  0.48190  0.18970  1.0000 -0.3295133315
O   O5        1.0  0.51810  0.32930  0.18970  1.0000 -0.3295133315
O   O6        1.0  0.67070  0.18880  0.18970  1.0000 -0.3295133315
O   O7        1.0  0.51810  0.18880  0.31030  1.0000 -0.3295133315
O   O8        1.0  0.67070  0.48190  0.31030  1.0000 -0.3295133315
O   O9        1.0  0.81120  0.32930  0.31030  1.0000 -0.3295133315
O   O10       1.0  0.48190  0.81120  0.81030  1.0000 -0.3295133315
O   O11       1.0  0.32930  0.51810  0.81030  1.0000 -0.3295133315
O   O12       1.0  0.18880  0.67070  0.81030  1.0000 -0.3295133315
O   O13       1.0  0.81120  0.48190  0.31030  1.0000 -0.3295133315
O   O14       1.0  0.51810  0.32930  0.31030  1.0000 -0.3295133315
O   O15       1.0  0.67070  0.18880  0.31030  1.0000 -0.3295133315
O   O16       1.0  0.18880  0.51810  0.81030  1.0000 -0.3295133315
O   O17       1.0  0.48190  0.67070  0.81030  1.0000 -0.3295133315
O   O18       1.0  0.32930  0.81120  0.81030  1.0000 -0.3295133315
O   O19       1.0  0.48190  0.81120  0.68970  1.0000 -0.3295133315
O   O20       1.0  0.32930  0.51810  0.68970  1.0000 -0.3295133315
O   O21       1.0  0.18880  0.67070  0.68970  1.0000 -0.3295133315
O   O22       1.0  0.51810  0.18880  0.18970  1.0000 -0.3295133315
O   O23       1.0  0.67070  0.48190  0.18970  1.0000 -0.3295133315
O   O24       1.0  0.81120  0.32930  0.18970  1.0000 -0.3295133315
O   O25       1.0  0.03870  0.47680  0.65370  1.0000 -0.3567877047
O   O26       1.0  0.52320  0.56190  0.65370  1.0000 -0.3567877047
O   O27       1.0  0.43810  0.96130  0.65370  1.0000 -0.3567877047
O   O28       1.0  0.96130  0.52320  0.15370  1.0000 -0.3567877047
O   O29       1.0  0.47680  0.43810  0.15370  1.0000 -0.3567877047
O   O30       1.0  0.56190  0.03870  0.15370  1.0000 -0.3567877047
O   O31       1.0  0.47680  0.03870  0.34630  1.0000 -0.3567877047
O   O32       1.0  0.56190  0.52320  0.34630  1.0000 -0.3567877047
O   O33       1.0  0.96130  0.43810  0.34630  1.0000 -0.3567877047
O   O34       1.0  0.52320  0.96130  0.84630  1.0000 -0.3567877047
O   O35       1.0  0.43810  0.47680  0.84630  1.0000 -0.3567877047
O   O36       1.0  0.03870  0.56190  0.84630  1.0000 -0.3567877047
O   O37       1.0  0.96130  0.52320  0.34630  1.0000 -0.3567877047
O   O38       1.0  0.47680  0.43810  0.34630  1.0000 -0.3567877047
O   O39       1.0  0.56190  0.03870  0.34630  1.0000 -0.3567877047
O   O40       1.0  0.03870  0.47680  0.84630  1.0000 -0.3567877047
O   O41       1.0  0.52320  0.56190  0.84630  1.0000 -0.3567877047
O   O42       1.0  0.43810  0.96130  0.84630  1.0000 -0.3567877047
O   O43       1.0  0.52320  0.96130  0.65370  1.0000 -0.3567877047
O   O44       1.0  0.43810  0.47680  0.65370  1.0000 -0.3567877047
O   O45       1.0  0.03870  0.56190  0.65370  1.0000 -0.3567877047
O   O46       1.0  0.47680  0.03870  0.15370  1.0000 -0.3567877047
O   O47       1.0  0.56190  0.52320  0.15370  1.0000 -0.3567877047
O   O48       1.0  0.96130  0.43810  0.15370  1.0000 -0.3567877047
