# DDEC6 charges by PACMAN v1.1 (https://github.com/mtap-research/PACMAN-charge/)
data_2012[LaNi][scn]3[FSR]1
_chemical_formula_sum              "La2 Ni1 H22 C26 N6 O20"
_cell_length_a       7.2918
_cell_length_b       9.34
_cell_length_c       14.129
_cell_angle_alpha    83.816
_cell_angle_beta     85.461
_cell_angle_gamma    72.646

_symmetry_space_group_name_H-M    "P 1"
_symmetry_Int_Tables_number       1

loop_
  _symmetry_equiv_pos_as_xyz
  'x, y, z'

loop_
  _atom_site_type_symbol
  _atom_site_label
  _atom_site_symmetry_multiplicity
  _atom_site_fract_x
  _atom_site_fract_y
  _atom_site_fract_z
  _atom_site_occupancy
  _atom_site_charge
La  La1       1.0  0.49383  0.71445  0.40404  1.0000 1.8539291348
La  La2       1.0  0.50617  0.28555  0.59596  1.0000 1.8539291348
Ni  Ni1       1.0  0.50000  0.50000  0.00000  1.0000 0.6781694617
H   H1        1.0  0.16270  0.46200  0.99610  1.0000 0.2814622249
H   H2        1.0  0.83730  0.53800  0.00390  1.0000 0.2814622249
H   H3        1.0  0.29980  0.31410  0.99340  1.0000 0.3018072571
H   H4        1.0  0.70020  0.68590  0.00660  1.0000 0.3018072571
H   H5        1.0  0.80640  0.17080  0.09790  1.0000 0.1290600325
H   H6        1.0  0.19360  0.82920  0.90210  1.0000 0.1290600325
H   H7        1.0  0.78350  0.12220  0.26530  1.0000 0.3312020625
H   H8        1.0  0.21650  0.87780  0.73470  1.0000 0.3312020625
H   H9        1.0  0.01050  0.55900  0.14110  1.0000 0.1385918484
H   H10       1.0  0.98950  0.44100  0.85890  1.0000 0.1385918484
H   H11       1.0  0.08150  0.26310  0.37400  1.0000 0.1385918484
H   H12       1.0  0.91850  0.73690  0.62600  1.0000 0.1385918484
H   H13       1.0  0.37570  0.14350  0.12810  1.0000 0.1385918484
H   H14       1.0  0.62430  0.85650  0.87190  1.0000 0.1385918484
H   H15       1.0  0.73420  0.89760  0.49960  1.0000 0.3355594154
H   H16       1.0  0.26580  0.10240  0.50040  1.0000 0.3355594154
H   H17       1.0  0.73040  0.93670  0.40900  1.0000 0.3207806374
H   H18       1.0  0.26960  0.06330  0.59100  1.0000 0.3207806374
H   H19       1.0  0.14420  0.62420  0.47780  1.0000 0.3312020625
H   H20       1.0  0.85580  0.37580  0.52220  1.0000 0.3312020625
H   H21       1.0  0.03600  0.74140  0.43130  1.0000 0.3312020625
H   H22       1.0  0.96400  0.25860  0.56870  1.0000 0.3312020625
C   C1        1.0  0.73560  0.23800  0.14070  1.0000 0.1593611862
C   C2        1.0  0.26440  0.76200  0.85930  1.0000 0.1593611862
C   C3        1.0  0.60730  0.32990  0.27540  1.0000 0.008493128
C   C4        1.0  0.39270  0.67010  0.72460  1.0000 0.008493128
C   C5        1.0  0.54930  0.43750  0.20050  1.0000 0.001397101
C   C6        1.0  0.45070  0.56250  0.79950  1.0000 0.001397101
C   C7        1.0  0.41540  0.59490  0.18930  1.0000 0.5916584756
C   C8        1.0  0.58460  0.40510  0.81070  1.0000 0.5916584756
C   C9        1.0  0.55590  0.31880  0.37890  1.0000 0.5574433531
C   C10       1.0  0.44410  0.68120  0.62110  1.0000 0.5574433531
C   C11       1.0  0.87260  0.54250  0.32020  1.0000 0.5414117302
C   C12       1.0  0.12740  0.45750  0.67980  1.0000 0.5414117302
C   C13       1.0  0.20410  0.35800  0.11900  1.0000 0.2408617537
C   C14       1.0  0.79590  0.64200  0.88100  1.0000 0.2408617537
C   C15       1.0  0.06980  0.46420  0.17060  1.0000 -0.2230292757
C   C16       1.0  0.93020  0.53580  0.82940  1.0000 -0.2230292757
C   C17       1.0  0.02380  0.42910  0.26620  1.0000 0.0151583392
C   C18       1.0  0.97620  0.57090  0.73380  1.0000 0.0151583392
C   C19       1.0  0.11140  0.28690  0.31010  1.0000 -0.1552202229
C   C20       1.0  0.88860  0.71310  0.68990  1.0000 -0.1546752874
C   C21       1.0  0.28860  0.21570  0.16290  1.0000 -0.2230292757
C   C22       1.0  0.71140  0.78430  0.83710  1.0000 -0.2230292757
C   C23       1.0  0.24430  0.18020  0.25800  1.0000 -0.0012937394
C   C24       1.0  0.75570  0.81980  0.74200  1.0000 -0.0012937394
C   C25       1.0  0.34070  0.02730  0.30660  1.0000 0.5475423064
C   C26       1.0  0.65930  0.97270  0.69340  1.0000 0.5475423064
N   N1        1.0  0.26570  0.39800  0.02440  1.0000 -0.5613197361
N   N2        1.0  0.73430  0.60200  0.97560  1.0000 -0.5613197361
N   N3        1.0  0.63190  0.37700  0.11640  1.0000 -0.3131461714
N   N4        1.0  0.36810  0.62300  0.88360  1.0000 -0.3131461714
N   N5        1.0  0.72540  0.20640  0.23500  1.0000 -0.1883946781
N   N6        1.0  0.27460  0.79360  0.76500  1.0000 -0.1883946781
O   O1        1.0  0.37360  0.64350  0.10390  1.0000 -0.5180520688
O   O2        1.0  0.62640  0.35650  0.89610  1.0000 -0.5180520688
O   O3        1.0  0.35150  0.66570  0.26010  1.0000 -0.5613197361
O   O4        1.0  0.64850  0.33430  0.73990  1.0000 -0.5670206581
O   O5        1.0  0.59540  0.19040  0.42180  1.0000 -0.5490875218
O   O6        1.0  0.40460  0.80960  0.57820  1.0000 -0.5490875218
O   O7        1.0  0.47750  0.43700  0.42080  1.0000 -0.625910071
O   O8        1.0  0.52250  0.56300  0.57920  1.0000 -0.625910071
O   O9        1.0  0.83830  0.51750  0.40760  1.0000 -0.5670206581
O   O10       1.0  0.16170  0.48250  0.59240  1.0000 -0.5670206581
O   O11       1.0  0.77540  0.65970  0.27400  1.0000 -0.5670206581
O   O12       1.0  0.22460  0.34030  0.72600  1.0000 -0.5670206581
O   O13       1.0  0.27880  0.98960  0.38840  1.0000 -0.5860591207
O   O14       1.0  0.72120  0.01040  0.61160  1.0000 -0.5860591207
O   O15       1.0  0.48010  0.93910  0.26510  1.0000 -0.5613197361
O   O16       1.0  0.51990  0.06090  0.73490  1.0000 -0.5613197361
O   O17       1.0  0.71840  0.86430  0.44830  1.0000 -0.7217988048
O   O18       1.0  0.28160  0.13570  0.55170  1.0000 -0.7217988048
O   O19       1.0  0.14870  0.70940  0.45190  1.0000 -0.7087930713
O   O20       1.0  0.85130  0.29060  0.54810  1.0000 -0.7087930713
