# DDEC6 charges by PACMAN v1.1 (https://github.com/mtap-research/PACMAN-charge/)
data_2012[UNd][nan]3[FSR]1
_chemical_formula_sum              "Nd2 U3 H6 C30 O42"
_cell_length_a       10.8981
_cell_length_b       11.5452
_cell_length_c       13.4086
_cell_angle_alpha    69.399
_cell_angle_beta     79.959
_cell_angle_gamma    62.242

_symmetry_space_group_name_H-M    "P 1"
_symmetry_Int_Tables_number       1

loop_
  _symmetry_equiv_pos_as_xyz
  'x, y, z'

loop_
  _atom_site_type_symbol
  _atom_site_label
  _atom_site_symmetry_multiplicity
  _atom_site_fract_x
  _atom_site_fract_y
  _atom_site_fract_z
  _atom_site_occupancy
  _atom_site_charge
Nd  Nd1       1.0  0.37968  0.78368  0.22409  1.0000 2.1016216241
Nd  Nd2       1.0  0.62032  0.21632  0.77591  1.0000 2.1016216241
U   U1        1.0  0.00000  0.50000  0.50000  1.0000 2.3731516562
U   U2        1.0  0.63077  0.70401  0.83251  1.0000 2.3916959725
U   U3        1.0  0.36923  0.29599  0.16749  1.0000 2.3916959725
H   H1        1.0  0.81559  0.90381  0.26739  1.0000 0.1398688667
H   H2        1.0  0.18441  0.09619  0.73261  1.0000 0.1398688667
H   H3        1.0  0.29277  0.00102  0.58313  1.0000 0.1346150003
H   H4        1.0  0.70723  0.99898  0.41687  1.0000 0.1346150003
H   H5        1.0  0.90336  0.63653  0.04665  1.0000 0.1493458338
H   H6        1.0  0.09664  0.36347  0.95335  1.0000 0.1493458338
C   C1        1.0  0.58090  0.97100  0.18960  1.0000 0.622304853
C   C2        1.0  0.41910  0.02900  0.81040  1.0000 0.622304853
C   C3        1.0  0.08070  0.72260  0.28300  1.0000 0.6716703139
C   C4        1.0  0.91930  0.27740  0.71700  1.0000 0.6716703139
C   C5        1.0  0.96680  0.74200  0.21930  1.0000 -0.0116011897
C   C6        1.0  0.03320  0.25800  0.78070  1.0000 -0.0116011897
C   C7        1.0  0.72200  0.86430  0.17100  1.0000 0.0041905084
C   C8        1.0  0.27800  0.13570  0.82900  1.0000 0.0041905084
C   C9        1.0  0.99150  0.66220  0.15410  1.0000 -0.0480646454
C   C10       1.0  0.00850  0.33780  0.84590  1.0000 -0.0480646454
C   C11       1.0  0.74990  0.78440  0.10390  1.0000 -0.0585853542
C   C12       1.0  0.25010  0.21560  0.89610  1.0000 -0.0585853542
C   C13       1.0  0.83230  0.84540  0.22540  1.0000 -0.1134203673
C   C14       1.0  0.16770  0.15460  0.77460  1.0000 -0.1134203673
C   C15       1.0  0.74250  0.74440  0.50330  1.0000 0.5705507212
C   C16       1.0  0.25750  0.25560  0.49670  1.0000 0.5705507212
C   C17       1.0  0.47450  0.74740  0.61410  1.0000 0.6120235883
C   C18       1.0  0.52550  0.25260  0.38590  1.0000 0.6120235883
C   C19       1.0  0.12680  0.54300  0.15210  1.0000 0.5705507212
C   C20       1.0  0.87320  0.45700  0.84790  1.0000 0.5705507212
C   C21       1.0  0.64510  0.79920  0.03670  1.0000 0.6454375945
C   C22       1.0  0.35490  0.20080  0.96330  1.0000 0.6454375945
C   C23       1.0  0.37810  0.00050  0.54910  1.0000 -0.0932555534
C   C24       1.0  0.62190  0.99950  0.45090  1.0000 -0.0932555534
C   C25       1.0  0.61540  0.87540  0.50240  1.0000 0.0041905084
C   C26       1.0  0.38460  0.12460  0.49760  1.0000 0.0041905084
C   C27       1.0  0.49120  0.87560  0.55270  1.0000 -0.0307328347
C   C28       1.0  0.50880  0.12440  0.44730  1.0000 -0.0307328347
C   C29       1.0  0.88400  0.68770  0.09510  1.0000 -0.0585853542
C   C30       1.0  0.11600  0.31230  0.90490  1.0000 -0.0585853542
O   O1        1.0  0.09950  0.64320  0.37750  1.0000 -0.5386270024
O   O2        1.0  0.90050  0.35680  0.62250  1.0000 -0.5386270024
O   O3        1.0  0.50530  0.69300  0.71250  1.0000 -0.5865320601
O   O4        1.0  0.49470  0.30700  0.28750  1.0000 -0.5865320601
O   O5        1.0  0.68930  0.78500  0.94550  1.0000 -0.5386270024
O   O6        1.0  0.31070  0.21500  0.05450  1.0000 -0.5386270024
O   O7        1.0  0.57280  0.09020  0.17230  1.0000 -0.5664920248
O   O8        1.0  0.42720  0.90980  0.82770  1.0000 -0.5664920248
O   O9        1.0  0.22620  0.51360  0.20630  1.0000 -0.5188525356
O   O10       1.0  0.77380  0.48640  0.79370  1.0000 -0.5188525356
O   O11       1.0  0.54900  0.62090  0.93810  1.0000 -0.5386270024
O   O12       1.0  0.45100  0.37910  0.06190  1.0000 -0.5386270024
O   O13       1.0  0.94080  0.49720  0.38790  1.0000 -0.5800381638
O   O14       1.0  0.05920  0.50280  0.61210  1.0000 -0.5800381638
O   O15       1.0  0.71450  0.78590  0.72740  1.0000 -0.613441769
O   O16       1.0  0.28550  0.21410  0.27260  1.0000 -0.6153311171
O   O17       1.0  0.73500  0.63220  0.52970  1.0000 -0.4745479263
O   O18       1.0  0.26500  0.36780  0.47030  1.0000 -0.4754861034
O   O19       1.0  0.14630  0.79150  0.23880  1.0000 -0.5664920248
O   O20       1.0  0.85370  0.20850  0.76120  1.0000 -0.5664920248
O   O21       1.0  0.85650  0.74970  0.47520  1.0000 -0.5386270024
O   O22       1.0  0.14350  0.25030  0.52480  1.0000 -0.5386270024
O   O23       1.0  0.48300  0.94020  0.22130  1.0000 -0.5386270024
O   O24       1.0  0.51700  0.05980  0.77870  1.0000 -0.5386270024
O   O25       1.0  0.14340  0.46960  0.09600  1.0000 -0.531759087
O   O26       1.0  0.85660  0.53040  0.90400  1.0000 -0.531759087
O   O27       1.0  0.52520  0.82090  0.06820  1.0000 -0.5800381638
O   O28       1.0  0.47480  0.17910  0.93180  1.0000 -0.5800381638
O   O29       1.0  0.37500  0.58790  0.38060  1.0000 0.06273764
O   O30       1.0  0.62500  0.41210  0.61940  1.0000 0.06273764
O   O31       1.0  0.29310  0.86280  0.38210  1.0000 -0.3652527071
O   O32       1.0  0.70690  0.13720  0.61790  1.0000 -0.3640753068
O   O33       1.0  0.20470  0.02650  0.16290  1.0000 -0.2330612652
O   O34       1.0  0.79530  0.97350  0.83710  1.0000 -0.2402591892
O   O35       1.0  0.50200  0.56570  0.17370  1.0000 -0.2330612652
O   O36       1.0  0.49800  0.43430  0.82630  1.0000 -0.2402591892
O   O37       1.0  0.60880  0.64300  0.32210  1.0000 -0.4013735391
O   O38       1.0  0.39120  0.35700  0.67790  1.0000 -0.4013735391
O   O39       1.0  0.28560  0.82750  0.04440  1.0000 -0.1972941793
O   O40       1.0  0.71440  0.17250  0.95560  1.0000 -0.1972941793
O   O41       1.0  0.42300  0.70280  0.57040  1.0000 -0.3037395664
O   O42       1.0  0.57700  0.29720  0.42960  1.0000 -0.3037395664
