# DDEC6 charges by PACMAN v1.1 (https://github.com/mtap-research/PACMAN-charge/)
data_2012[Co][pts]3[FSR]2
_chemical_formula_sum              "Co2 H24 C30 N8 O12"
_cell_length_a       8.0231
_cell_length_b       9.5304
_cell_length_c       15.4714
_cell_angle_alpha    96.709
_cell_angle_beta     103.637
_cell_angle_gamma    99.063

_symmetry_space_group_name_H-M    "P 1"
_symmetry_Int_Tables_number       1

loop_
  _symmetry_equiv_pos_as_xyz
  'x, y, z'

loop_
  _atom_site_type_symbol
  _atom_site_label
  _atom_site_symmetry_multiplicity
  _atom_site_fract_x
  _atom_site_fract_y
  _atom_site_fract_z
  _atom_site_occupancy
  _atom_site_charge
Co  Co1       1.0  0.00000  0.50000  0.00000  1.0000 0.8735115878
Co  Co2       1.0  0.00000  0.00000  0.50000  1.0000 0.8988545886
H   H1        1.0  0.55500  0.25610  0.16610  1.0000 0.1323945686
H   H2        1.0  0.44500  0.74390  0.83390  1.0000 0.1323945686
H   H3        1.0  0.88690  0.53350  0.37880  1.0000 0.1323945686
H   H4        1.0  0.11310  0.46650  0.62120  1.0000 0.1323945686
H   H5        1.0  0.47570  0.66360  0.22210  1.0000 0.1323945686
H   H6        1.0  0.52430  0.33640  0.77790  1.0000 0.1323945686
H   H7        1.0  0.84350  0.28100  0.44060  1.0000 0.1377116121
H   H8        1.0  0.15650  0.71900  0.55940  1.0000 0.1377116121
H   H9        1.0  0.76180  0.94300  0.11110  1.0000 0.1323945686
H   H10       1.0  0.23820  0.05700  0.88890  1.0000 0.1323945686
H   H11       1.0  0.73570  0.95950  0.95600  1.0000 0.1377116121
H   H12       1.0  0.26430  0.04050  0.04400  1.0000 0.1377116121
H   H13       1.0  0.82810  0.17560  0.91520  1.0000 0.1103062309
H   H14       1.0  0.17190  0.82440  0.08480  1.0000 0.1103062309
H   H15       1.0  0.96630  0.37080  0.16730  1.0000 0.1103062309
H   H16       1.0  0.03370  0.62920  0.83270  1.0000 0.1103062309
H   H17       1.0  0.96600  0.67100  0.14100  1.0000 0.3240587018
H   H18       1.0  0.03400  0.32900  0.85900  1.0000 0.3240587018
H   H19       1.0  0.82000  0.64200  0.07200  1.0000 0.3467277638
H   H20       1.0  0.18000  0.35800  0.92800  1.0000 0.3467277638
H   H21       1.0  0.31700  0.03100  0.52100  1.0000 0.338731905
H   H22       1.0  0.68300  0.96900  0.47900  1.0000 0.338731905
H   H23       1.0  0.26900  0.90600  0.46300  1.0000 0.338731905
H   H24       1.0  0.73100  0.09400  0.53700  1.0000 0.338731905
C   C1        1.0  0.34050  0.42780  0.09690  1.0000 0.5725476495
C   C2        1.0  0.65950  0.57220  0.90310  1.0000 0.5725476495
C   C3        1.0  0.49520  0.45700  0.18020  1.0000 0.0154966838
C   C4        1.0  0.50480  0.54300  0.81980  1.0000 0.0154966838
C   C5        1.0  0.58850  0.34900  0.20190  1.0000 -0.200488104
C   C6        1.0  0.41150  0.65100  0.79810  1.0000 -0.200488104
C   C7        1.0  0.73230  0.37920  0.27710  1.0000 0.1495250217
C   C8        1.0  0.26770  0.62080  0.72290  1.0000 0.1495250217
C   C9        1.0  0.78550  0.51410  0.32960  1.0000 -0.200488104
C   C10       1.0  0.21450  0.48590  0.67040  1.0000 -0.200488104
C   C11       1.0  0.68890  0.62150  0.30960  1.0000 0.0094803586
C   C12       1.0  0.31110  0.37850  0.69040  1.0000 0.0094803586
C   C13       1.0  0.54310  0.59160  0.23530  1.0000 -0.1178063624
C   C14       1.0  0.45690  0.40840  0.76470  1.0000 -0.1178063624
C   C15       1.0  0.73930  0.76630  0.36850  1.0000 0.5754191629
C   C16       1.0  0.26070  0.23370  0.63150  1.0000 0.5754191629
C   C17       1.0  0.86190  0.22850  0.38870  1.0000 0.0954817734
C   C18       1.0  0.13810  0.77150  0.61130  1.0000 0.0954817734
C   C19       1.0  0.87180  0.16070  0.25090  1.0000 0.2178113512
C   C20       1.0  0.12820  0.83930  0.74910  1.0000 0.2178113512
C   C21       1.0  0.86170  0.15910  0.15460  1.0000 -0.0112808817
C   C22       1.0  0.13830  0.84090  0.84540  1.0000 -0.0112808817
C   C23       1.0  0.79610  0.03220  0.09250  1.0000 -0.0669113346
C   C24       1.0  0.20390  0.96780  0.90750  1.0000 -0.0669113346
C   C25       1.0  0.78300  0.04230  0.00090  1.0000 -0.1178063624
C   C26       1.0  0.21700  0.95770  0.99910  1.0000 -0.1178063624
C   C27       1.0  0.83860  0.17150  0.97730  1.0000 0.0625467501
C   C28       1.0  0.16140  0.82850  0.02270  1.0000 0.0625467501
C   C29       1.0  0.91820  0.28590  0.12410  1.0000 0.053144963
C   C30       1.0  0.08180  0.71410  0.87590  1.0000 0.053144963
N   N1        1.0  0.82270  0.26460  0.30392  1.0000 -0.0635864553
N   N2        1.0  0.17730  0.73540  0.69608  1.0000 -0.0635864553
N   N3        1.0  0.92790  0.11230  0.38796  1.0000 -0.1778079071
N   N4        1.0  0.07210  0.88770  0.61204  1.0000 -0.1778079071
N   N5        1.0  0.93590  0.06750  0.30041  1.0000 -0.2382236668
N   N6        1.0  0.06410  0.93250  0.69959  1.0000 -0.2382236668
N   N7        1.0  0.90810  0.29440  0.03710  1.0000 -0.233887101
N   N8        1.0  0.09190  0.70560  0.96290  1.0000 -0.233887101
O   O1        1.0  0.32640  0.32040  0.03862  1.0000 -0.5623987564
O   O2        1.0  0.67360  0.67960  0.96138  1.0000 -0.5623987564
O   O3        1.0  0.23850  0.51840  0.09318  1.0000 -0.5761856683
O   O4        1.0  0.76150  0.48160  0.90682  1.0000 -0.5761856683
O   O5        1.0  0.62220  0.84210  0.36728  1.0000 -0.56973731
O   O6        1.0  0.37780  0.15790  0.63272  1.0000 -0.56973731
O   O7        1.0  0.89530  0.80240  0.41741  1.0000 -0.5917092808
O   O8        1.0  0.10470  0.19760  0.58259  1.0000 -0.5917092808
O   O9        1.0  0.89890  0.60610  0.10158  1.0000 -0.653153921
O   O10       1.0  0.10110  0.39390  0.89842  1.0000 -0.653153921
O   O11       1.0  0.24530  0.98720  0.47262  1.0000 -0.6300298222
O   O12       1.0  0.75470  0.01280  0.52738  1.0000 -0.6300298222
