# DDEC6 charges by PACMAN v1.1 (https://github.com/mtap-research/PACMAN-charge/)
data_2012[Cu][nan]3[FSR]1
_chemical_formula_sum              "Cu24 H168 C150 S12 N96 O66"
_cell_length_a       24.6401
_cell_length_b       24.6401
_cell_length_c       24.6401
_cell_angle_alpha    114.098
_cell_angle_beta     114.098
_cell_angle_gamma    114.098

_symmetry_space_group_name_H-M    "P 1"
_symmetry_Int_Tables_number       1

loop_
  _symmetry_equiv_pos_as_xyz
  'x, y, z'

loop_
  _atom_site_type_symbol
  _atom_site_label
  _atom_site_symmetry_multiplicity
  _atom_site_fract_x
  _atom_site_fract_y
  _atom_site_fract_z
  _atom_site_occupancy
  _atom_site_charge
Cu  Cu1       1.0  0.13284  0.85016  0.29995  1.0000 0.7486590413
Cu  Cu2       1.0  0.85016  0.29995  0.13284  1.0000 0.7486590413
Cu  Cu3       1.0  0.29995  0.13284  0.85016  1.0000 0.7486590413
Cu  Cu4       1.0  0.86716  0.14984  0.70005  1.0000 0.7486590413
Cu  Cu5       1.0  0.14984  0.70005  0.86716  1.0000 0.7486590413
Cu  Cu6       1.0  0.70005  0.86716  0.14984  1.0000 0.7486590413
Cu  Cu7       1.0  0.12004  0.90828  0.47093  1.0000 0.6830478676
Cu  Cu8       1.0  0.90828  0.47093  0.12004  1.0000 0.6830478676
Cu  Cu9       1.0  0.47093  0.12004  0.90828  1.0000 0.6830478676
Cu  Cu10      1.0  0.87996  0.09172  0.52907  1.0000 0.6830478676
Cu  Cu11      1.0  0.09172  0.52907  0.87996  1.0000 0.6830478676
Cu  Cu12      1.0  0.52907  0.87996  0.09172  1.0000 0.6830478676
Cu  Cu13      1.0  0.20754  0.80860  0.16844  1.0000 0.708099372
Cu  Cu14      1.0  0.80860  0.16844  0.20754  1.0000 0.708099372
Cu  Cu15      1.0  0.16844  0.20754  0.80860  1.0000 0.708099372
Cu  Cu16      1.0  0.79246  0.19140  0.83156  1.0000 0.708099372
Cu  Cu17      1.0  0.19140  0.83156  0.79246  1.0000 0.708099372
Cu  Cu18      1.0  0.83156  0.79246  0.19140  1.0000 0.708099372
Cu  Cu19      1.0  0.03970  0.93055  0.59665  1.0000 0.8105069168
Cu  Cu20      1.0  0.93055  0.59665  0.03970  1.0000 0.8105069168
Cu  Cu21      1.0  0.59665  0.03970  0.93055  1.0000 0.8105069168
Cu  Cu22      1.0  0.96030  0.06945  0.40335  1.0000 0.8105069168
Cu  Cu23      1.0  0.06945  0.40335  0.96030  1.0000 0.8105069168
Cu  Cu24      1.0  0.40335  0.96030  0.06945  1.0000 0.8105069168
H   H1        1.0  0.94480  0.95090  0.64480  1.0000 0.1186222522
H   H2        1.0  0.95090  0.64480  0.94480  1.0000 0.1186222522
H   H3        1.0  0.64480  0.94480  0.95090  1.0000 0.1186222522
H   H4        1.0  0.05520  0.04910  0.35520  1.0000 0.1186222522
H   H5        1.0  0.04910  0.35520  0.05520  1.0000 0.1186222522
H   H6        1.0  0.35520  0.05520  0.04910  1.0000 0.1186222522
H   H7        1.0  0.83810  0.94480  0.59290  1.0000 0.1390638353
H   H8        1.0  0.94480  0.59290  0.83810  1.0000 0.1390638353
H   H9        1.0  0.59290  0.83810  0.94480  1.0000 0.1390638353
H   H10       1.0  0.16190  0.05520  0.40710  1.0000 0.1390638353
H   H11       1.0  0.05520  0.40710  0.16190  1.0000 0.1390638353
H   H12       1.0  0.40710  0.16190  0.05520  1.0000 0.1390638353
H   H13       1.0  0.77440  0.91510  0.47150  1.0000 0.1294800487
H   H14       1.0  0.91510  0.47150  0.77440  1.0000 0.1294800487
H   H15       1.0  0.47150  0.77440  0.91510  1.0000 0.1294800487
H   H16       1.0  0.22560  0.08490  0.52850  1.0000 0.1294800487
H   H17       1.0  0.08490  0.52850  0.22560  1.0000 0.1294800487
H   H18       1.0  0.52850  0.22560  0.08490  1.0000 0.1294800487
H   H19       1.0  0.81990  0.89530  0.40620  1.0000 0.1598442338
H   H20       1.0  0.89530  0.40620  0.81990  1.0000 0.1598442338
H   H21       1.0  0.40620  0.81990  0.89530  1.0000 0.1598442338
H   H22       1.0  0.18010  0.10470  0.59380  1.0000 0.1598442338
H   H23       1.0  0.10470  0.59380  0.18010  1.0000 0.1598442338
H   H24       1.0  0.59380  0.18010  0.10470  1.0000 0.1598442338
H   H25       1.0  0.31870  0.80870  0.13440  1.0000 0.1186222522
H   H26       1.0  0.80870  0.13440  0.31870  1.0000 0.1186222522
H   H27       1.0  0.13440  0.31870  0.80870  1.0000 0.1186222522
H   H28       1.0  0.68130  0.19130  0.86560  1.0000 0.1186222522
H   H29       1.0  0.19130  0.86560  0.68130  1.0000 0.1186222522
H   H30       1.0  0.86560  0.68130  0.19130  1.0000 0.1186222522
H   H31       1.0  0.45090  0.86480  0.21010  1.0000 0.1458334984
H   H32       1.0  0.86480  0.21010  0.45090  1.0000 0.1458334984
H   H33       1.0  0.21010  0.45090  0.86480  1.0000 0.1458334984
H   H34       1.0  0.54910  0.13520  0.78990  1.0000 0.1458334984
H   H35       1.0  0.13520  0.78990  0.54910  1.0000 0.1458334984
H   H36       1.0  0.78990  0.54910  0.13520  1.0000 0.1458334984
H   H37       1.0  0.53190  0.93230  0.34630  1.0000 0.1186222522
H   H38       1.0  0.93230  0.34630  0.53190  1.0000 0.1186222522
H   H39       1.0  0.34630  0.53190  0.93230  1.0000 0.1186222522
H   H40       1.0  0.46810  0.06770  0.65370  1.0000 0.1186222522
H   H41       1.0  0.06770  0.65370  0.46810  1.0000 0.1186222522
H   H42       1.0  0.65370  0.46810  0.06770  1.0000 0.1186222522
H   H43       1.0  0.48150  0.95090  0.40750  1.0000 0.1458334984
H   H44       1.0  0.95090  0.40750  0.48150  1.0000 0.1458334984
H   H45       1.0  0.40750  0.48150  0.95090  1.0000 0.1458334984
H   H46       1.0  0.51850  0.04910  0.59250  1.0000 0.1458334984
H   H47       1.0  0.04910  0.59250  0.51850  1.0000 0.1458334984
H   H48       1.0  0.59250  0.51850  0.04910  1.0000 0.1458334984
H   H49       1.0  0.29600  0.97860  0.59230  1.0000 0.1186222522
H   H50       1.0  0.97860  0.59230  0.29600  1.0000 0.1186222522
H   H51       1.0  0.59230  0.29600  0.97860  1.0000 0.1186222522
H   H52       1.0  0.70400  0.02140  0.40770  1.0000 0.1186222522
H   H53       1.0  0.02140  0.40770  0.70400  1.0000 0.1186222522
H   H54       1.0  0.40770  0.70400  0.02140  1.0000 0.1186222522
H   H55       1.0  0.22360  0.95680  0.23230  1.0000 0.1186222522
H   H56       1.0  0.95680  0.23230  0.22360  1.0000 0.1186222522
H   H57       1.0  0.23230  0.22360  0.95680  1.0000 0.1186222522
H   H58       1.0  0.77640  0.04320  0.76770  1.0000 0.1186222522
H   H59       1.0  0.04320  0.76770  0.77640  1.0000 0.1186222522
H   H60       1.0  0.76770  0.77640  0.04320  1.0000 0.1186222522
H   H61       1.0  0.26210  0.97280  0.12080  1.0000 0.1294800487
H   H62       1.0  0.97280  0.12080  0.26210  1.0000 0.1390638353
H   H63       1.0  0.12080  0.26210  0.97280  1.0000 0.1390638353
H   H64       1.0  0.73790  0.02720  0.87920  1.0000 0.1294800487
H   H65       1.0  0.02720  0.87920  0.73790  1.0000 0.1294800487
H   H66       1.0  0.87920  0.73790  0.02720  1.0000 0.1294800487
H   H67       1.0  0.25270  0.03440  0.12980  1.0000 0.1390638353
H   H68       1.0  0.03440  0.12980  0.25270  1.0000 0.1390638353
H   H69       1.0  0.12980  0.25270  0.03440  1.0000 0.1390638353
H   H70       1.0  0.74730  0.96560  0.87020  1.0000 0.1390638353
H   H71       1.0  0.96560  0.87020  0.74730  1.0000 0.1390638353
H   H72       1.0  0.87020  0.74730  0.96560  1.0000 0.1390638353
H   H73       1.0  0.33850  0.06770  0.19490  1.0000 0.1108777693
H   H74       1.0  0.06770  0.19490  0.33850  1.0000 0.1108777693
H   H75       1.0  0.19490  0.33850  0.06770  1.0000 0.1108777693
H   H76       1.0  0.66150  0.93230  0.80510  1.0000 0.1108777693
H   H77       1.0  0.93230  0.80510  0.66150  1.0000 0.1108777693
H   H78       1.0  0.80510  0.66150  0.93230  1.0000 0.1108777693
H   H79       1.0  0.30900  0.12650  0.29640  1.0000 0.1108777693
H   H80       1.0  0.12650  0.29640  0.30900  1.0000 0.1108777693
H   H81       1.0  0.29640  0.30900  0.12650  1.0000 0.1108777693
H   H82       1.0  0.69100  0.87350  0.70360  1.0000 0.1108777693
H   H83       1.0  0.87350  0.70360  0.69100  1.0000 0.1108777693
H   H84       1.0  0.70360  0.69100  0.87350  1.0000 0.1108777693
H   H85       1.0  0.23510  0.09000  0.21270  1.0000 0.1186222522
H   H86       1.0  0.09000  0.21270  0.23510  1.0000 0.1186222522
H   H87       1.0  0.21270  0.23510  0.09000  1.0000 0.1186222522
H   H88       1.0  0.76490  0.91000  0.78730  1.0000 0.1186222522
H   H89       1.0  0.91000  0.78730  0.76490  1.0000 0.1186222522
H   H90       1.0  0.78730  0.76490  0.91000  1.0000 0.1186222522
H   H91       1.0  0.21860  0.05930  0.25360  1.0000 0.1294800487
H   H92       1.0  0.05930  0.25360  0.21860  1.0000 0.1294800487
H   H93       1.0  0.25360  0.21860  0.05930  1.0000 0.1294800487
H   H94       1.0  0.78140  0.94070  0.74640  1.0000 0.1294800487
H   H95       1.0  0.94070  0.74640  0.78140  1.0000 0.1294800487
H   H96       1.0  0.74640  0.78140  0.94070  1.0000 0.1294800487
H   H97       1.0  0.00810  0.78930  0.59010  1.0000 0.1294800487
H   H98       1.0  0.78930  0.59010  0.00810  1.0000 0.1294800487
H   H99       1.0  0.59010  0.00810  0.78930  1.0000 0.1294800487
H   H100      1.0  0.99190  0.21070  0.40990  1.0000 0.1294800487
H   H101      1.0  0.21070  0.40990  0.99190  1.0000 0.1294800487
H   H102      1.0  0.40990  0.99190  0.21070  1.0000 0.1294800487
H   H103      1.0  0.87590  0.61840  0.53080  1.0000 0.1458334984
H   H104      1.0  0.61840  0.53080  0.87590  1.0000 0.1458334984
H   H105      1.0  0.53080  0.87590  0.61840  1.0000 0.1458334984
H   H106      1.0  0.12410  0.38160  0.46920  1.0000 0.1458334984
H   H107      1.0  0.38160  0.46920  0.12410  1.0000 0.1458334984
H   H108      1.0  0.46920  0.12410  0.38160  1.0000 0.1458334984
H   H109      1.0  0.92160  0.60840  0.50440  1.0000 0.1390638353
H   H110      1.0  0.60840  0.50440  0.92160  1.0000 0.1390638353
H   H111      1.0  0.50440  0.92160  0.60840  1.0000 0.1390638353
H   H112      1.0  0.07840  0.39160  0.49560  1.0000 0.1390638353
H   H113      1.0  0.39160  0.49560  0.07840  1.0000 0.1390638353
H   H114      1.0  0.49560  0.07840  0.39160  1.0000 0.1390638353
H   H115      1.0  0.97110  0.69010  0.59100  1.0000 0.1186222522
H   H116      1.0  0.69010  0.59100  0.97110  1.0000 0.1186222522
H   H117      1.0  0.59100  0.97110  0.69010  1.0000 0.1186222522
H   H118      1.0  0.02890  0.30990  0.40900  1.0000 0.1186222522
H   H119      1.0  0.30990  0.40900  0.02890  1.0000 0.1186222522
H   H120      1.0  0.40900  0.02890  0.30990  1.0000 0.1186222522
H   H121      1.0  0.77340  0.59920  0.39690  1.0000 0.1294800487
H   H122      1.0  0.59920  0.39690  0.77340  1.0000 0.1294800487
H   H123      1.0  0.39690  0.77340  0.59920  1.0000 0.1294800487
H   H124      1.0  0.22660  0.40080  0.60310  1.0000 0.1294800487
H   H125      1.0  0.40080  0.60310  0.22660  1.0000 0.1294800487
H   H126      1.0  0.60310  0.22660  0.40080  1.0000 0.1294800487
H   H127      1.0  0.83210  0.66750  0.40520  1.0000 0.1390638353
H   H128      1.0  0.66750  0.40520  0.83210  1.0000 0.1390638353
H   H129      1.0  0.40520  0.83210  0.66750  1.0000 0.1390638353
H   H130      1.0  0.16790  0.33250  0.59480  1.0000 0.1390638353
H   H131      1.0  0.33250  0.59480  0.16790  1.0000 0.1390638353
H   H132      1.0  0.59480  0.16790  0.33250  1.0000 0.1390638353
H   H133      1.0  0.82220  0.59150  0.37380  1.0000 0.1294800487
H   H134      1.0  0.59150  0.37380  0.82220  1.0000 0.1294800487
H   H135      1.0  0.37380  0.82220  0.59150  1.0000 0.1294800487
H   H136      1.0  0.17780  0.40850  0.62620  1.0000 0.1294800487
H   H137      1.0  0.40850  0.62620  0.17780  1.0000 0.1294800487
H   H138      1.0  0.62620  0.17780  0.40850  1.0000 0.1294800487
H   H139      1.0  0.96820  0.80840  0.18820  1.0000 0.1294800487
H   H140      1.0  0.80840  0.18820  0.96820  1.0000 0.1294800487
H   H141      1.0  0.18820  0.96820  0.80840  1.0000 0.1294800487
H   H142      1.0  0.03180  0.19160  0.81180  1.0000 0.1294800487
H   H143      1.0  0.19160  0.81180  0.03180  1.0000 0.1294800487
H   H144      1.0  0.81180  0.03180  0.19160  1.0000 0.1294800487
H   H145      1.0  0.94030  0.72150  0.36300  1.0000 0.1186222522
H   H146      1.0  0.72150  0.36300  0.94030  1.0000 0.1186222522
H   H147      1.0  0.36300  0.94030  0.72150  1.0000 0.1186222522
H   H148      1.0  0.05970  0.27850  0.63700  1.0000 0.1186222522
H   H149      1.0  0.27850  0.63700  0.05970  1.0000 0.1186222522
H   H150      1.0  0.63700  0.05970  0.27850  1.0000 0.1186222522
H   H151      1.0  0.96860  0.68170  0.38590  1.0000 0.1108777693
H   H152      1.0  0.68170  0.38590  0.96860  1.0000 0.1108777693
H   H153      1.0  0.38590  0.96860  0.68170  1.0000 0.1108777693
H   H154      1.0  0.03140  0.31830  0.61410  1.0000 0.1108777693
H   H155      1.0  0.31830  0.61410  0.03140  1.0000 0.1108777693
H   H156      1.0  0.61410  0.03140  0.31830  1.0000 0.1108777693
H   H157      1.0  0.99910  0.76390  0.45470  1.0000 0.1108777693
H   H158      1.0  0.76390  0.45470  0.99910  1.0000 0.1108777693
H   H159      1.0  0.45470  0.99910  0.76390  1.0000 0.1108777693
H   H160      1.0  0.00090  0.23610  0.54530  1.0000 0.1108777693
H   H161      1.0  0.23610  0.54530  0.00090  1.0000 0.1108777693
H   H162      1.0  0.54530  0.00090  0.23610  1.0000 0.1108777693
H   H163      1.0  0.04080  0.75950  0.37570  1.0000 0.3265975781
H   H164      1.0  0.75950  0.37570  0.04080  1.0000 0.3265975781
H   H165      1.0  0.37570  0.04080  0.75950  1.0000 0.3265975781
H   H166      1.0  0.95920  0.24050  0.62430  1.0000 0.3265975781
H   H167      1.0  0.24050  0.62430  0.95920  1.0000 0.3265975781
H   H168      1.0  0.62430  0.95920  0.24050  1.0000 0.3265975781
C   C1        1.0  0.91995  0.94032  0.59683  1.0000 0.1108777693
C   C2        1.0  0.94032  0.59683  0.91995  1.0000 0.1108777693
C   C3        1.0  0.59683  0.91995  0.94032  1.0000 0.1108777693
C   C4        1.0  0.08005  0.05968  0.40317  1.0000 0.1108777693
C   C5        1.0  0.05968  0.40317  0.08005  1.0000 0.1108777693
C   C6        1.0  0.40317  0.08005  0.05968  1.0000 0.1108777693
C   C7        1.0  0.85553  0.93612  0.56585  1.0000 -0.1477888059
C   C8        1.0  0.93612  0.56585  0.85553  1.0000 -0.1477888059
C   C9        1.0  0.56585  0.85553  0.93612  1.0000 -0.1477888059
C   C10       1.0  0.14447  0.06388  0.43415  1.0000 -0.1477888059
C   C11       1.0  0.06388  0.43415  0.14447  1.0000 -0.1477888059
C   C12       1.0  0.43415  0.14447  0.06388  1.0000 -0.1477888059
C   C13       1.0  0.81803  0.91861  0.49366  1.0000 -0.0487383096
C   C14       1.0  0.91861  0.49366  0.81803  1.0000 -0.0487383096
C   C15       1.0  0.49366  0.81803  0.91861  1.0000 -0.0487383096
C   C16       1.0  0.18197  0.08139  0.50634  1.0000 -0.0487383096
C   C17       1.0  0.08139  0.50634  0.18197  1.0000 -0.0487383096
C   C18       1.0  0.50634  0.18197  0.08139  1.0000 -0.0487383096
C   C19       1.0  0.84443  0.90666  0.45461  1.0000 -0.1593935199
C   C20       1.0  0.90666  0.45461  0.84443  1.0000 -0.1593935199
C   C21       1.0  0.45461  0.84443  0.90666  1.0000 -0.1593935199
C   C22       1.0  0.15557  0.09334  0.54539  1.0000 -0.1593935199
C   C23       1.0  0.09334  0.54539  0.15557  1.0000 -0.1593935199
C   C24       1.0  0.54539  0.15557  0.09334  1.0000 -0.1593935199
C   C25       1.0  0.90881  0.91185  0.48974  1.0000 0.1681176309
C   C26       1.0  0.91185  0.48974  0.90881  1.0000 0.1681176309
C   C27       1.0  0.48974  0.90881  0.91185  1.0000 0.1681176309
C   C28       1.0  0.09119  0.08815  0.51026  1.0000 0.1681176309
C   C29       1.0  0.08815  0.51026  0.09119  1.0000 0.1681176309
C   C30       1.0  0.51026  0.09119  0.08815  1.0000 0.1681176309
C   C31       1.0  0.94412  0.89971  0.45547  1.0000 0.2305746829
C   C32       1.0  0.89971  0.45547  0.94412  1.0000 0.2305746829
C   C33       1.0  0.45547  0.94412  0.89971  1.0000 0.2305746829
C   C34       1.0  0.05588  0.10029  0.54453  1.0000 0.2305746829
C   C35       1.0  0.10029  0.54453  0.05588  1.0000 0.2305746829
C   C36       1.0  0.54453  0.05588  0.10029  1.0000 0.2305746829
C   C37       1.0  0.97410  0.87622  0.38778  1.0000 0.2156551548
C   C38       1.0  0.87622  0.38778  0.97410  1.0000 0.2156551548
C   C39       1.0  0.38778  0.97410  0.87622  1.0000 0.2156551548
C   C40       1.0  0.02590  0.12378  0.61222  1.0000 0.2156551548
C   C41       1.0  0.12378  0.61222  0.02590  1.0000 0.2156551548
C   C42       1.0  0.61222  0.02590  0.12378  1.0000 0.2156551548
C   C43       1.0  0.98700  0.85932  0.33268  1.0000 0.2384079539
C   C44       1.0  0.85932  0.33268  0.98700  1.0000 0.2384079539
C   C45       1.0  0.33268  0.98700  0.85932  1.0000 0.2384079539
C   C46       1.0  0.01300  0.14068  0.66732  1.0000 0.2384079539
C   C47       1.0  0.14068  0.66732  0.01300  1.0000 0.2384079539
C   C48       1.0  0.66732  0.01300  0.14068  1.0000 0.2384079539
C   C49       1.0  0.35224  0.83820  0.19016  1.0000 0.0703702264
C   C50       1.0  0.83820  0.19016  0.35224  1.0000 0.0703702264
C   C51       1.0  0.19016  0.35224  0.83820  1.0000 0.0703702264
C   C52       1.0  0.64776  0.16180  0.80984  1.0000 0.0703702264
C   C53       1.0  0.16180  0.80984  0.64776  1.0000 0.0703702264
C   C54       1.0  0.80984  0.64776  0.16180  1.0000 0.0703702264
C   C55       1.0  0.43080  0.87070  0.23480  1.0000 -0.1371193858
C   C56       1.0  0.87070  0.23480  0.43080  1.0000 -0.1371193858
C   C57       1.0  0.23480  0.43080  0.87070  1.0000 -0.1371193858
C   C58       1.0  0.56920  0.12930  0.76520  1.0000 -0.1371193858
C   C59       1.0  0.12930  0.76520  0.56920  1.0000 -0.1371193858
C   C60       1.0  0.76520  0.56920  0.12930  1.0000 -0.1371193858
C   C61       1.0  0.47910  0.91150  0.31550  1.0000 -0.0257878482
C   C62       1.0  0.91150  0.31550  0.47910  1.0000 -0.0257878482
C   C63       1.0  0.31550  0.47910  0.91150  1.0000 -0.0257878482
C   C64       1.0  0.52090  0.08850  0.68450  1.0000 -0.0257878482
C   C65       1.0  0.08850  0.68450  0.52090  1.0000 -0.0257878482
C   C66       1.0  0.68450  0.52090  0.08850  1.0000 -0.0257878482
C   C67       1.0  0.44910  0.92230  0.35210  1.0000 -0.1593935199
C   C68       1.0  0.92230  0.35210  0.44910  1.0000 -0.1593935199
C   C69       1.0  0.35210  0.44910  0.92230  1.0000 -0.1593935199
C   C70       1.0  0.55090  0.07770  0.64790  1.0000 -0.1593935199
C   C71       1.0  0.07770  0.64790  0.55090  1.0000 -0.1593935199
C   C72       1.0  0.64790  0.55090  0.07770  1.0000 -0.1593935199
C   C73       1.0  0.36987  0.88934  0.30379  1.0000 0.1681176309
C   C74       1.0  0.88934  0.30379  0.36987  1.0000 0.1681176309
C   C75       1.0  0.30379  0.36987  0.88934  1.0000 0.1681176309
C   C76       1.0  0.63013  0.11066  0.69621  1.0000 0.1681176309
C   C77       1.0  0.11066  0.69621  0.63013  1.0000 0.1681176309
C   C78       1.0  0.69621  0.63013  0.11066  1.0000 0.1681176309
C   C79       1.0  0.32936  0.89382  0.33412  1.0000 0.2305746829
C   C80       1.0  0.89382  0.33412  0.32936  1.0000 0.2305746829
C   C81       1.0  0.33412  0.32936  0.89382  1.0000 0.2305746829
C   C82       1.0  0.67064  0.10618  0.66588  1.0000 0.2305746829
C   C83       1.0  0.10618  0.66588  0.67064  1.0000 0.2305746829
C   C84       1.0  0.66588  0.67064  0.10618  1.0000 0.2305746829
C   C85       1.0  0.29307  0.91028  0.39595  1.0000 0.2384079539
C   C86       1.0  0.91028  0.39595  0.29307  1.0000 0.2384079539
C   C87       1.0  0.39595  0.29307  0.91028  1.0000 0.2384079539
C   C88       1.0  0.70693  0.08972  0.60405  1.0000 0.2384079539
C   C89       1.0  0.08972  0.60405  0.70693  1.0000 0.2384079539
C   C90       1.0  0.60405  0.70693  0.08972  1.0000 0.2384079539
C   C91       1.0  0.28018  0.92796  0.45086  1.0000 0.2305746829
C   C92       1.0  0.92796  0.45086  0.28018  1.0000 0.2305746829
C   C93       1.0  0.45086  0.28018  0.92796  1.0000 0.2305746829
C   C94       1.0  0.71982  0.07204  0.54914  1.0000 0.2305746829
C   C95       1.0  0.07204  0.54914  0.71982  1.0000 0.2305746829
C   C96       1.0  0.54914  0.71982  0.07204  1.0000 0.2305746829
C   C97       1.0  0.27997  0.95905  0.54238  1.0000 0.1458334984
C   C98       1.0  0.95905  0.54238  0.27997  1.0000 0.1458334984
C   C99       1.0  0.54238  0.27997  0.95905  1.0000 0.1458334984
C   C100      1.0  0.72003  0.04095  0.45762  1.0000 0.1458334984
C   C101      1.0  0.04095  0.45762  0.72003  1.0000 0.1458334984
C   C102      1.0  0.45762  0.72003  0.04095  1.0000 0.1390638353
C   C103      1.0  0.23990  0.95830  0.20460  1.0000 0.2768025664
C   C104      1.0  0.95830  0.20460  0.23990  1.0000 0.2768025664
C   C105      1.0  0.20460  0.23990  0.95830  1.0000 0.2768025664
C   C106      1.0  0.76010  0.04170  0.79540  1.0000 0.2768025664
C   C107      1.0  0.04170  0.79540  0.76010  1.0000 0.2768025664
C   C108      1.0  0.79540  0.76010  0.04170  1.0000 0.2768025664
C   C109      1.0  0.28040  0.02450  0.15910  1.0000 -0.2935059301
C   C110      1.0  0.02450  0.15910  0.28040  1.0000 -0.2935059301
C   C111      1.0  0.15910  0.28040  0.02450  1.0000 -0.2935059301
C   C112      1.0  0.71960  0.97550  0.84090  1.0000 -0.2935059301
C   C113      1.0  0.97550  0.84090  0.71960  1.0000 -0.2935059301
C   C114      1.0  0.84090  0.71960  0.97550  1.0000 -0.2935059301
C   C115      1.0  0.25360  0.07780  0.24450  1.0000 -0.3232456428
C   C116      1.0  0.07780  0.24450  0.25360  1.0000 -0.3232456428
C   C117      1.0  0.24450  0.25360  0.07780  1.0000 -0.3232456428
C   C118      1.0  0.74640  0.92220  0.75550  1.0000 -0.3232456428
C   C119      1.0  0.92220  0.75550  0.74640  1.0000 -0.3232456428
C   C120      1.0  0.75550  0.74640  0.92220  1.0000 -0.3232456428
C   C121      1.0  0.95500  0.75940  0.54350  1.0000 0.2305746829
C   C122      1.0  0.75940  0.54350  0.95500  1.0000 0.2305746829
C   C123      1.0  0.54350  0.95500  0.75940  1.0000 0.2305746829
C   C124      1.0  0.04500  0.24060  0.45650  1.0000 0.2305746829
C   C125      1.0  0.24060  0.45650  0.04500  1.0000 0.2305746829
C   C126      1.0  0.45650  0.04500  0.24060  1.0000 0.2305746829
C   C127      1.0  0.91990  0.64640  0.53440  1.0000 -0.3454552523
C   C128      1.0  0.64640  0.53440  0.91990  1.0000 -0.3454552523
C   C129      1.0  0.53440  0.91990  0.64640  1.0000 -0.3454552523
C   C130      1.0  0.08010  0.35360  0.46560  1.0000 -0.3454552523
C   C131      1.0  0.35360  0.46560  0.08010  1.0000 -0.3454552523
C   C132      1.0  0.46560  0.08010  0.35360  1.0000 -0.3454552523
C   C133      1.0  0.82410  0.62910  0.41050  1.0000 -0.3082535746
C   C134      1.0  0.62910  0.41050  0.82410  1.0000 -0.3082535746
C   C135      1.0  0.41050  0.82410  0.62910  1.0000 -0.3082535746
C   C136      1.0  0.17590  0.37090  0.58950  1.0000 -0.3082535746
C   C137      1.0  0.37090  0.58950  0.17590  1.0000 -0.3082535746
C   C138      1.0  0.58950  0.17590  0.37090  1.0000 -0.3082535746
C   C139      1.0  0.98429  0.82645  0.23776  1.0000 0.1681176309
C   C140      1.0  0.82645  0.23776  0.98429  1.0000 0.1681176309
C   C141      1.0  0.23776  0.98429  0.82645  1.0000 0.1681176309
C   C142      1.0  0.01571  0.17355  0.76224  1.0000 0.1681176309
C   C143      1.0  0.17355  0.76224  0.01571  1.0000 0.1681176309
C   C144      1.0  0.76224  0.01571  0.17355  1.0000 0.1681176309
C   C145      1.0  0.98500  0.73260  0.40380  1.0000 -0.1983144725
C   C146      1.0  0.73260  0.40380  0.98500  1.0000 -0.1983144725
C   C147      1.0  0.40380  0.98500  0.73260  1.0000 -0.1983144725
C   C148      1.0  0.01500  0.26740  0.59620  1.0000 -0.1983144725
C   C149      1.0  0.26740  0.59620  0.01500  1.0000 -0.1983144725
C   C150      1.0  0.59620  0.01500  0.26740  1.0000 -0.1983144725
S   S1        1.0  0.98984  0.65297  0.20463  1.0000 1.4032346376
S   S2        1.0  0.65297  0.20463  0.98984  1.0000 1.4032346376
S   S3        1.0  0.20463  0.98984  0.65297  1.0000 1.4032346376
S   S4        1.0  0.01016  0.34703  0.79537  1.0000 1.4032346376
S   S5        1.0  0.34703  0.79537  0.01016  1.0000 1.4032346376
S   S6        1.0  0.79537  0.01016  0.34703  1.0000 1.4032346376
S   S7        1.0  0.04994  0.77359  0.11973  1.0000 1.3787215122
S   S8        1.0  0.77359  0.11973  0.04994  1.0000 1.3787215122
S   S9        1.0  0.11973  0.04994  0.77359  1.0000 1.3787215122
S   S10       1.0  0.95006  0.22641  0.88027  1.0000 1.3787215122
S   S11       1.0  0.22641  0.88027  0.95006  1.0000 1.3787215122
S   S12       1.0  0.88027  0.95006  0.22641  1.0000 1.3787215122
N   N1        1.0  0.94749  0.92976  0.56095  1.0000 -0.2706438484
N   N2        1.0  0.92976  0.56095  0.94749  1.0000 -0.2706438484
N   N3        1.0  0.56095  0.94749  0.92976  1.0000 -0.2706438484
N   N4        1.0  0.05251  0.07024  0.43905  1.0000 -0.2706438484
N   N5        1.0  0.07024  0.43905  0.05251  1.0000 -0.2706438484
N   N6        1.0  0.43905  0.05251  0.07024  1.0000 -0.2706438484
N   N7        1.0  0.01016  0.91342  0.50022  1.0000 -0.218614646
N   N8        1.0  0.91342  0.50022  0.01016  1.0000 -0.218614646
N   N9        1.0  0.50022  0.01016  0.91342  1.0000 -0.218614646
N   N10       1.0  0.98984  0.08658  0.49978  1.0000 -0.218614646
N   N11       1.0  0.08658  0.49978  0.98984  1.0000 -0.218614646
N   N12       1.0  0.49978  0.98984  0.08658  1.0000 -0.218614646
N   N13       1.0  0.03042  0.89770  0.45644  1.0000 -0.2089137069
N   N14       1.0  0.89770  0.45644  0.03042  1.0000 -0.2089137069
N   N15       1.0  0.45644  0.03042  0.89770  1.0000 -0.2089137069
N   N16       1.0  0.96958  0.10230  0.54356  1.0000 -0.2089137069
N   N17       1.0  0.10230  0.54356  0.96958  1.0000 -0.2089137069
N   N18       1.0  0.54356  0.96958  0.10230  1.0000 -0.2089137069
N   N19       1.0  0.91817  0.87576  0.38327  1.0000 -0.3833782357
N   N20       1.0  0.87576  0.38327  0.91817  1.0000 -0.3833782357
N   N21       1.0  0.38327  0.91817  0.87576  1.0000 -0.3833782357
N   N22       1.0  0.08183  0.12424  0.61673  1.0000 -0.3833782357
N   N23       1.0  0.12424  0.61673  0.08183  1.0000 -0.3833782357
N   N24       1.0  0.61673  0.08183  0.12424  1.0000 -0.3833782357
N   N25       1.0  0.05284  0.87129  0.35855  1.0000 -0.2581940574
N   N26       1.0  0.87129  0.35855  0.05284  1.0000 -0.2581940574
N   N27       1.0  0.35855  0.05284  0.87129  1.0000 -0.2581940574
N   N28       1.0  0.94716  0.12871  0.64145  1.0000 -0.2581940574
N   N29       1.0  0.12871  0.64145  0.94716  1.0000 -0.2581940574
N   N30       1.0  0.64145  0.94716  0.12871  1.0000 -0.2581940574
N   N31       1.0  0.05118  0.85001  0.29665  1.0000 -0.1813313198
N   N32       1.0  0.85001  0.29665  0.05118  1.0000 -0.1813313198
N   N33       1.0  0.29665  0.05118  0.85001  1.0000 -0.1813313198
N   N34       1.0  0.94882  0.14999  0.70335  1.0000 -0.1813313198
N   N35       1.0  0.14999  0.70335  0.94882  1.0000 -0.1813313198
N   N36       1.0  0.70335  0.94882  0.14999  1.0000 -0.1813313198
N   N37       1.0  0.32148  0.84746  0.22426  1.0000 -0.2784568004
N   N38       1.0  0.84746  0.22426  0.32148  1.0000 -0.2784568004
N   N39       1.0  0.22426  0.32148  0.84746  1.0000 -0.2784568004
N   N40       1.0  0.67852  0.15254  0.77574  1.0000 -0.2784568004
N   N41       1.0  0.15254  0.77574  0.67852  1.0000 -0.2784568004
N   N42       1.0  0.77574  0.67852  0.15254  1.0000 -0.2784568004
N   N43       1.0  0.25398  0.86167  0.27965  1.0000 -0.2253602378
N   N44       1.0  0.86167  0.27965  0.25398  1.0000 -0.2253602378
N   N45       1.0  0.27965  0.25398  0.86167  1.0000 -0.2253602378
N   N46       1.0  0.74602  0.13833  0.72035  1.0000 -0.2253602378
N   N47       1.0  0.13833  0.72035  0.74602  1.0000 -0.2253602378
N   N48       1.0  0.72035  0.74602  0.13833  1.0000 -0.2253602378
N   N49       1.0  0.23021  0.87313  0.32103  1.0000 -0.1983144725
N   N50       1.0  0.87313  0.32103  0.23021  1.0000 -0.1983144725
N   N51       1.0  0.32103  0.23021  0.87313  1.0000 -0.1983144725
N   N52       1.0  0.76979  0.12687  0.67897  1.0000 -0.1983144725
N   N53       1.0  0.12687  0.67897  0.76979  1.0000 -0.1983144725
N   N54       1.0  0.67897  0.76979  0.12687  1.0000 -0.1983144725
N   N55       1.0  0.35769  0.92598  0.40863  1.0000 -0.3901452504
N   N56       1.0  0.92598  0.40863  0.35769  1.0000 -0.3901452504
N   N57       1.0  0.40863  0.35769  0.92598  1.0000 -0.3901452504
N   N58       1.0  0.64231  0.07402  0.59137  1.0000 -0.3901452504
N   N59       1.0  0.07402  0.59137  0.64231  1.0000 -0.3901452504
N   N60       1.0  0.59137  0.64231  0.07402  1.0000 -0.3901452504
N   N61       1.0  0.20818  0.90606  0.41906  1.0000 -0.253672608
N   N62       1.0  0.90606  0.41906  0.20818  1.0000 -0.253672608
N   N63       1.0  0.41906  0.20818  0.90606  1.0000 -0.253672608
N   N64       1.0  0.79182  0.09394  0.58094  1.0000 -0.253672608
N   N65       1.0  0.09394  0.58094  0.79182  1.0000 -0.253672608
N   N66       1.0  0.58094  0.79182  0.09394  1.0000 -0.253672608
N   N67       1.0  0.20819  0.92662  0.47919  1.0000 -0.1900974296
N   N68       1.0  0.92662  0.47919  0.20819  1.0000 -0.1900974296
N   N69       1.0  0.47919  0.20819  0.92662  1.0000 -0.1900974296
N   N70       1.0  0.79181  0.07338  0.52081  1.0000 -0.1900974296
N   N71       1.0  0.07338  0.52081  0.79181  1.0000 -0.1900974296
N   N72       1.0  0.52081  0.79181  0.07338  1.0000 -0.1900974296
N   N73       1.0  0.32721  0.96093  0.52746  1.0000 -0.3670107953
N   N74       1.0  0.96093  0.52746  0.32721  1.0000 -0.3670107953
N   N75       1.0  0.52746  0.32721  0.96093  1.0000 -0.3670107953
N   N76       1.0  0.67279  0.03907  0.47254  1.0000 -0.3670107953
N   N77       1.0  0.03907  0.47254  0.67279  1.0000 -0.3670107953
N   N78       1.0  0.47254  0.67279  0.03907  1.0000 -0.3670107953
N   N79       1.0  0.25630  0.01640  0.20120  1.0000 -0.0072184608
N   N80       1.0  0.01640  0.20120  0.25630  1.0000 -0.0028915
N   N81       1.0  0.20120  0.25630  0.01640  1.0000 -0.0028915
N   N82       1.0  0.74370  0.98360  0.79880  1.0000 -0.0028915
N   N83       1.0  0.98360  0.79880  0.74370  1.0000 -0.0028915
N   N84       1.0  0.79880  0.74370  0.98360  1.0000 -0.0028915
N   N85       1.0  0.89870  0.68230  0.50200  1.0000 0.0361187439
N   N86       1.0  0.68230  0.50200  0.89870  1.0000 0.0361187439
N   N87       1.0  0.50200  0.89870  0.68230  1.0000 0.0361187439
N   N88       1.0  0.10130  0.31770  0.49800  1.0000 0.0361187439
N   N89       1.0  0.31770  0.49800  0.10130  1.0000 0.0361187439
N   N90       1.0  0.49800  0.10130  0.31770  1.0000 0.0361187439
N   N91       1.0  0.94179  0.83138  0.25751  1.0000 -0.3442831568
N   N92       1.0  0.83138  0.25751  0.94179  1.0000 -0.3442831568
N   N93       1.0  0.25751  0.94179  0.83138  1.0000 -0.3442831568
N   N94       1.0  0.05821  0.16862  0.74249  1.0000 -0.3442831568
N   N95       1.0  0.16862  0.74249  0.05821  1.0000 -0.3442831568
N   N96       1.0  0.74249  0.05821  0.16862  1.0000 -0.3442831568
O   O1        1.0  0.09431  0.74738  0.12065  1.0000 -0.6466409397
O   O2        1.0  0.74738  0.12065  0.09431  1.0000 -0.6466409397
O   O3        1.0  0.12065  0.09431  0.74738  1.0000 -0.6466409397
O   O4        1.0  0.90569  0.25262  0.87935  1.0000 -0.6466409397
O   O5        1.0  0.25262  0.87935  0.90569  1.0000 -0.6466409397
O   O6        1.0  0.87935  0.90569  0.25262  1.0000 -0.6466409397
O   O7        1.0  0.04645  0.80429  0.08106  1.0000 -0.6193293464
O   O8        1.0  0.80429  0.08106  0.04645  1.0000 -0.6193293464
O   O9        1.0  0.08106  0.04645  0.80429  1.0000 -0.6193293464
O   O10       1.0  0.95355  0.19571  0.91894  1.0000 -0.6193293464
O   O11       1.0  0.19571  0.91894  0.95355  1.0000 -0.6193293464
O   O12       1.0  0.91894  0.95355  0.19571  1.0000 -0.6193293464
O   O13       1.0  0.09078  0.83910  0.20457  1.0000 -0.6466409397
O   O14       1.0  0.83910  0.20457  0.09078  1.0000 -0.6466409397
O   O15       1.0  0.20457  0.09078  0.83910  1.0000 -0.6466409397
O   O16       1.0  0.90922  0.16090  0.79543  1.0000 -0.6466409397
O   O17       1.0  0.16090  0.79543  0.90922  1.0000 -0.6466409397
O   O18       1.0  0.79543  0.90922  0.16090  1.0000 -0.6466409397
O   O19       1.0  0.96999  0.67574  0.25322  1.0000 -0.6401027331
O   O20       1.0  0.67574  0.25322  0.96999  1.0000 -0.6401027331
O   O21       1.0  0.25322  0.96999  0.67574  1.0000 -0.6401027331
O   O22       1.0  0.03001  0.32426  0.74678  1.0000 -0.6401027331
O   O23       1.0  0.32426  0.74678  0.03001  1.0000 -0.6401027331
O   O24       1.0  0.74678  0.03001  0.32426  1.0000 -0.6401027331
O   O25       1.0  0.92421  0.61627  0.12159  1.0000 -0.6605759153
O   O26       1.0  0.61627  0.12159  0.92421  1.0000 -0.6605759153
O   O27       1.0  0.12159  0.92421  0.61627  1.0000 -0.6605759153
O   O28       1.0  0.07579  0.38373  0.87841  1.0000 -0.6605759153
O   O29       1.0  0.38373  0.87841  0.07579  1.0000 -0.6605759153
O   O30       1.0  0.87841  0.07579  0.38373  1.0000 -0.6605759153
O   O31       1.0  0.99217  0.59079  0.19602  1.0000 -0.6318229776
O   O32       1.0  0.59079  0.19602  0.99217  1.0000 -0.6318229776
O   O33       1.0  0.19602  0.99217  0.59079  1.0000 -0.6318229776
O   O34       1.0  0.00783  0.40921  0.80398  1.0000 -0.6318229776
O   O35       1.0  0.40921  0.80398  0.00783  1.0000 -0.6318229776
O   O36       1.0  0.80398  0.00783  0.40921  1.0000 -0.6318229776
O   O37       1.0  0.05454  0.77832  0.41544  1.0000 -0.3901452504
O   O38       1.0  0.77832  0.41544  0.05454  1.0000 -0.3901452504
O   O39       1.0  0.41544  0.05454  0.77832  1.0000 -0.3901452504
O   O40       1.0  0.94546  0.22168  0.58456  1.0000 -0.3901452504
O   O41       1.0  0.22168  0.58456  0.94546  1.0000 -0.3901452504
O   O42       1.0  0.58456  0.94546  0.22168  1.0000 -0.3901452504
O   O43       1.0  0.24389  0.91220  0.17771  1.0000 -0.3901452504
O   O44       1.0  0.91220  0.17771  0.24389  1.0000 -0.3901452504
O   O45       1.0  0.17771  0.24389  0.91220  1.0000 -0.3901452504
O   O46       1.0  0.75611  0.08780  0.82229  1.0000 -0.3901452504
O   O47       1.0  0.08780  0.82229  0.75611  1.0000 -0.3901452504
O   O48       1.0  0.82229  0.75611  0.08780  1.0000 -0.3901452504
O   O49       1.0  0.94337  0.79570  0.52573  1.0000 -0.4302861971
O   O50       1.0  0.79570  0.52573  0.94337  1.0000 -0.4302861971
O   O51       1.0  0.52573  0.94337  0.79570  1.0000 -0.4302861971
O   O52       1.0  0.05663  0.20430  0.47427  1.0000 -0.4302861971
O   O53       1.0  0.20430  0.47427  0.05663  1.0000 -0.4302861971
O   O54       1.0  0.47427  0.05663  0.20430  1.0000 -0.4302861971
O   O55       1.0  0.96586  0.70058  0.07444  1.0000 -0.6318229776
O   O56       1.0  0.70058  0.07444  0.96586  1.0000 -0.6318229776
O   O57       1.0  0.07444  0.96586  0.70058  1.0000 -0.6401027331
O   O58       1.0  0.03414  0.29942  0.92556  1.0000 -0.6318229776
O   O59       1.0  0.29942  0.92556  0.03414  1.0000 -0.6318229776
O   O60       1.0  0.92556  0.03414  0.29942  1.0000 -0.6318229776
O   O61       1.0  0.06977  0.72213  0.24235  1.0000 -0.6653931372
O   O62       1.0  0.72213  0.24235  0.06977  1.0000 -0.6605759153
O   O63       1.0  0.24235  0.06977  0.72213  1.0000 -0.6653931372
O   O64       1.0  0.93023  0.27787  0.75765  1.0000 -0.6653931372
O   O65       1.0  0.27787  0.75765  0.93023  1.0000 -0.6653931372
O   O66       1.0  0.75765  0.93023  0.27787  1.0000 -0.6653931372
