# DDEC6 charges by PACMAN v1.1 (https://github.com/mtap-research/PACMAN-charge/)
data_2012[Co][sqp]3[FSR]1
_chemical_formula_sum              "Co8 H64 C72 N8 O40"
_cell_length_a       9.9729
_cell_length_b       10.2775
_cell_length_c       23.695
_cell_angle_alpha    90
_cell_angle_beta     90
_cell_angle_gamma    90

_symmetry_space_group_name_H-M    "P 1"
_symmetry_Int_Tables_number       1

loop_
  _symmetry_equiv_pos_as_xyz
  'x, y, z'

loop_
  _atom_site_type_symbol
  _atom_site_label
  _atom_site_symmetry_multiplicity
  _atom_site_fract_x
  _atom_site_fract_y
  _atom_site_fract_z
  _atom_site_occupancy
  _atom_site_charge
Co  Co1       1.0  0.48757  0.79108  0.28623  1.0000 0.9055618922
Co  Co2       1.0  0.98757  0.70892  0.21377  1.0000 0.9055618922
Co  Co3       1.0  0.01243  0.79108  0.71377  1.0000 0.9049017708
Co  Co4       1.0  0.51243  0.70892  0.78623  1.0000 0.9049017708
Co  Co5       1.0  0.51243  0.20892  0.71377  1.0000 0.9055618922
Co  Co6       1.0  0.01243  0.29108  0.78623  1.0000 0.9049017708
Co  Co7       1.0  0.98757  0.20892  0.28623  1.0000 0.9055618922
Co  Co8       1.0  0.48757  0.29108  0.21377  1.0000 0.9055618922
H   H1        1.0  0.38690  0.75590  0.13400  1.0000 0.1201954334
H   H2        1.0  0.88690  0.74410  0.36600  1.0000 0.1201954334
H   H3        1.0  0.11310  0.75590  0.86600  1.0000 0.1201954334
H   H4        1.0  0.61310  0.74410  0.63400  1.0000 0.1201954334
H   H5        1.0  0.61310  0.24410  0.86600  1.0000 0.1201954334
H   H6        1.0  0.11310  0.25590  0.63400  1.0000 0.1201954334
H   H7        1.0  0.88690  0.24410  0.13400  1.0000 0.1201954334
H   H8        1.0  0.38690  0.25590  0.36600  1.0000 0.1201954334
H   H9        1.0  0.42510  0.61790  0.15690  1.0000 0.1283803861
H   H10       1.0  0.92510  0.88210  0.34310  1.0000 0.1283803861
H   H11       1.0  0.07490  0.61790  0.84310  1.0000 0.1283803861
H   H12       1.0  0.57490  0.88210  0.65690  1.0000 0.1283803861
H   H13       1.0  0.57490  0.38210  0.84310  1.0000 0.1283803861
H   H14       1.0  0.07490  0.11790  0.65690  1.0000 0.1283803861
H   H15       1.0  0.92510  0.38210  0.15690  1.0000 0.1283803861
H   H16       1.0  0.42510  0.11790  0.34310  1.0000 0.1283803861
H   H17       1.0  0.66500  0.88650  0.17230  1.0000 0.1467200498
H   H18       1.0  0.16500  0.61350  0.32770  1.0000 0.1467200498
H   H19       1.0  0.83500  0.88650  0.82770  1.0000 0.1467200498
H   H20       1.0  0.33500  0.61350  0.67230  1.0000 0.1467200498
H   H21       1.0  0.33500  0.11350  0.82770  1.0000 0.1467200498
H   H22       1.0  0.83500  0.38650  0.67230  1.0000 0.1467200498
H   H23       1.0  0.16500  0.11350  0.17230  1.0000 0.1467200498
H   H24       1.0  0.66500  0.38650  0.32770  1.0000 0.1467200498
H   H25       1.0  0.53870  0.89130  0.13300  1.0000 0.1201954334
H   H26       1.0  0.03870  0.60870  0.36700  1.0000 0.1201954334
H   H27       1.0  0.96130  0.89130  0.86700  1.0000 0.1201954334
H   H28       1.0  0.46130  0.60870  0.63300  1.0000 0.1201954334
H   H29       1.0  0.46130  0.10870  0.86700  1.0000 0.1201954334
H   H30       1.0  0.96130  0.39130  0.63300  1.0000 0.1201954334
H   H31       1.0  0.03870  0.10870  0.13300  1.0000 0.1201954334
H   H32       1.0  0.53870  0.39130  0.36700  1.0000 0.1201954334
H   H33       1.0  0.56430  0.80940  0.41080  1.0000 0.108259161
H   H34       1.0  0.06430  0.69060  0.08920  1.0000 0.108259161
H   H35       1.0  0.93570  0.80940  0.58920  1.0000 0.108259161
H   H36       1.0  0.43570  0.69060  0.91080  1.0000 0.108259161
H   H37       1.0  0.43570  0.19060  0.58920  1.0000 0.108259161
H   H38       1.0  0.93570  0.30940  0.91080  1.0000 0.108259161
H   H39       1.0  0.06430  0.19060  0.41080  1.0000 0.108259161
H   H40       1.0  0.56430  0.30940  0.08920  1.0000 0.108259161
H   H41       1.0  0.47070  0.82970  0.49800  1.0000 0.1283803861
H   H42       1.0  0.97070  0.67030  0.00200  1.0000 0.1283803861
H   H43       1.0  0.02930  0.82970  0.50200  1.0000 0.1283803861
H   H44       1.0  0.52930  0.67030  0.99800  1.0000 0.1283803861
H   H45       1.0  0.52930  0.17030  0.50200  1.0000 0.1283803861
H   H46       1.0  0.02930  0.32970  0.99800  1.0000 0.1283803861
H   H47       1.0  0.97070  0.17030  0.49800  1.0000 0.1283803861
H   H48       1.0  0.47070  0.32970  0.00200  1.0000 0.1283803861
H   H49       1.0  0.12330  0.92000  0.42360  1.0000 0.1201954334
H   H50       1.0  0.62330  0.58000  0.07640  1.0000 0.1201954334
H   H51       1.0  0.37670  0.92000  0.57640  1.0000 0.1201954334
H   H52       1.0  0.87670  0.58000  0.92360  1.0000 0.1201954334
H   H53       1.0  0.87670  0.08000  0.57640  1.0000 0.1201954334
H   H54       1.0  0.37670  0.42000  0.92360  1.0000 0.1201954334
H   H55       1.0  0.62330  0.08000  0.42360  1.0000 0.1201954334
H   H56       1.0  0.12330  0.42000  0.07640  1.0000 0.1201954334
H   H57       1.0  0.22650  0.89970  0.33800  1.0000 0.1201954334
H   H58       1.0  0.72650  0.60030  0.16200  1.0000 0.1201954334
H   H59       1.0  0.27350  0.89970  0.66200  1.0000 0.1201954334
H   H60       1.0  0.77350  0.60030  0.83800  1.0000 0.1201954334
H   H61       1.0  0.77350  0.10030  0.66200  1.0000 0.1201954334
H   H62       1.0  0.27350  0.39970  0.83800  1.0000 0.1201954334
H   H63       1.0  0.72650  0.10030  0.33800  1.0000 0.1201954334
H   H64       1.0  0.22650  0.39970  0.16200  1.0000 0.1201954334
C   C1        1.0  0.40690  0.70700  0.16795  1.0000 -0.1954201926
C   C2        1.0  0.90690  0.79300  0.33205  1.0000 -0.1954201926
C   C3        1.0  0.09310  0.70700  0.83205  1.0000 -0.1954201926
C   C4        1.0  0.59310  0.79300  0.66795  1.0000 -0.1954201926
C   C5        1.0  0.59310  0.29300  0.83205  1.0000 -0.1954201926
C   C6        1.0  0.09310  0.20700  0.66795  1.0000 -0.1954201926
C   C7        1.0  0.90690  0.29300  0.16795  1.0000 -0.1954201926
C   C8        1.0  0.40690  0.20700  0.33205  1.0000 -0.1954201926
C   C9        1.0  0.28560  0.70890  0.20587  1.0000 0.6097200344
C   C10       1.0  0.78560  0.79110  0.29413  1.0000 0.6097200344
C   C11       1.0  0.21440  0.70890  0.79413  1.0000 0.6097200344
C   C12       1.0  0.71440  0.79110  0.70587  1.0000 0.6097200344
C   C13       1.0  0.71440  0.29110  0.79413  1.0000 0.6097200344
C   C14       1.0  0.21440  0.20890  0.70587  1.0000 0.6097200344
C   C15       1.0  0.78560  0.29110  0.20587  1.0000 0.6097200344
C   C16       1.0  0.28560  0.20890  0.29413  1.0000 0.6097200344
C   C17       1.0  0.51340  0.99830  0.20555  1.0000 0.6097200344
C   C18       1.0  0.01340  0.50170  0.29445  1.0000 0.6097200344
C   C19       1.0  0.98660  0.99830  0.79445  1.0000 0.6097200344
C   C20       1.0  0.48660  0.50170  0.70555  1.0000 0.6097200344
C   C21       1.0  0.48660  0.00170  0.79445  1.0000 0.6097200344
C   C22       1.0  0.98660  0.49830  0.70555  1.0000 0.6097200344
C   C23       1.0  0.01340  0.00170  0.20555  1.0000 0.6097200344
C   C24       1.0  0.51340  0.49830  0.29445  1.0000 0.6097200344
C   C25       1.0  0.56780  0.88340  0.17191  1.0000 -0.1872885694
C   C26       1.0  0.06780  0.61660  0.32809  1.0000 -0.1872885694
C   C27       1.0  0.93220  0.88340  0.82809  1.0000 -0.1872885694
C   C28       1.0  0.43220  0.61660  0.67191  1.0000 -0.1872885694
C   C29       1.0  0.43220  0.11660  0.82809  1.0000 -0.1872885694
C   C30       1.0  0.93220  0.38340  0.67191  1.0000 -0.1872885694
C   C31       1.0  0.06780  0.11660  0.17191  1.0000 -0.1872885694
C   C32       1.0  0.56780  0.38340  0.32809  1.0000 -0.1872885694
C   C33       1.0  0.47380  0.83040  0.41352  1.0000 0.0748648103
C   C34       1.0  0.97380  0.66960  0.08648  1.0000 0.0748648103
C   C35       1.0  0.02620  0.83040  0.58648  1.0000 0.0748648103
C   C36       1.0  0.52620  0.66960  0.91352  1.0000 0.0748648103
C   C37       1.0  0.52620  0.16960  0.58648  1.0000 0.0748648103
C   C38       1.0  0.02620  0.33040  0.91352  1.0000 0.0748648103
C   C39       1.0  0.97380  0.16960  0.41352  1.0000 0.0748648103
C   C40       1.0  0.47380  0.33040  0.08648  1.0000 0.0748648103
C   C41       1.0  0.41810  0.84260  0.46604  1.0000 -0.206664268
C   C42       1.0  0.91810  0.65740  0.03396  1.0000 -0.206664268
C   C43       1.0  0.08190  0.84260  0.53396  1.0000 -0.206664268
C   C44       1.0  0.58190  0.65740  0.96604  1.0000 -0.206664268
C   C45       1.0  0.58190  0.15740  0.53396  1.0000 -0.206664268
C   C46       1.0  0.08190  0.34260  0.96604  1.0000 -0.206664268
C   C47       1.0  0.91810  0.15740  0.46604  1.0000 -0.206664268
C   C48       1.0  0.41810  0.34260  0.03396  1.0000 -0.206664268
C   C49       1.0  0.28290  0.87420  0.47196  1.0000 0.1026046778
C   C50       1.0  0.78290  0.62580  0.02804  1.0000 0.1026046778
C   C51       1.0  0.21710  0.87420  0.52804  1.0000 0.1026046778
C   C52       1.0  0.71710  0.62580  0.97196  1.0000 0.1026046778
C   C53       1.0  0.71710  0.12580  0.52804  1.0000 0.1026046778
C   C54       1.0  0.21710  0.37420  0.97196  1.0000 0.1026046778
C   C55       1.0  0.78290  0.12580  0.47196  1.0000 0.1026046778
C   C56       1.0  0.28290  0.37420  0.02804  1.0000 0.1026046778
C   C57       1.0  0.21320  0.89620  0.42212  1.0000 -0.206664268
C   C58       1.0  0.71320  0.60380  0.07788  1.0000 -0.206664268
C   C59       1.0  0.28680  0.89620  0.57788  1.0000 -0.206664268
C   C60       1.0  0.78680  0.60380  0.92212  1.0000 -0.206664268
C   C61       1.0  0.78680  0.10380  0.57788  1.0000 -0.206664268
C   C62       1.0  0.28680  0.39620  0.92212  1.0000 -0.206664268
C   C63       1.0  0.71320  0.10380  0.42212  1.0000 -0.206664268
C   C64       1.0  0.21320  0.39620  0.07788  1.0000 -0.206664268
C   C65       1.0  0.27560  0.88310  0.37054  1.0000 0.108259161
C   C66       1.0  0.77560  0.61690  0.12946  1.0000 0.108259161
C   C67       1.0  0.22440  0.88310  0.62946  1.0000 0.108259161
C   C68       1.0  0.72440  0.61690  0.87054  1.0000 0.108259161
C   C69       1.0  0.72440  0.11690  0.62946  1.0000 0.108259161
C   C70       1.0  0.22440  0.38310  0.87054  1.0000 0.108259161
C   C71       1.0  0.77560  0.11690  0.37054  1.0000 0.108259161
C   C72       1.0  0.27560  0.38310  0.12946  1.0000 0.108259161
N   N1        1.0  0.40360  0.84760  0.36554  1.0000 -0.2399991621
N   N2        1.0  0.90360  0.65240  0.13446  1.0000 -0.2399991621
N   N3        1.0  0.09640  0.84760  0.63446  1.0000 -0.2399991621
N   N4        1.0  0.59640  0.65240  0.86554  1.0000 -0.2399991621
N   N5        1.0  0.59640  0.15240  0.63446  1.0000 -0.2399991621
N   N6        1.0  0.09640  0.34760  0.86554  1.0000 -0.2399991621
N   N7        1.0  0.90360  0.15240  0.36554  1.0000 -0.2399991621
N   N8        1.0  0.40360  0.34760  0.13446  1.0000 -0.2399991621
O   O1        1.0  0.52490  0.76040  0.19356  1.0000 -0.1742569451
O   O2        1.0  0.02490  0.73960  0.30644  1.0000 -0.1742569451
O   O3        1.0  0.97510  0.76040  0.80644  1.0000 -0.1742569451
O   O4        1.0  0.47510  0.73960  0.69356  1.0000 -0.1742569451
O   O5        1.0  0.47510  0.23960  0.80644  1.0000 -0.1742569451
O   O6        1.0  0.97510  0.26040  0.69356  1.0000 -0.1742569451
O   O7        1.0  0.02490  0.23960  0.19356  1.0000 -0.1742569451
O   O8        1.0  0.52490  0.26040  0.30644  1.0000 -0.1742569451
O   O9        1.0  0.30010  0.74640  0.25602  1.0000 -0.5495015402
O   O10       1.0  0.80010  0.75360  0.24398  1.0000 -0.5495015402
O   O11       1.0  0.19990  0.74640  0.74398  1.0000 -0.5495015402
O   O12       1.0  0.69990  0.75360  0.75602  1.0000 -0.5495015402
O   O13       1.0  0.69990  0.25360  0.74398  1.0000 -0.5495015402
O   O14       1.0  0.19990  0.24640  0.75602  1.0000 -0.5495015402
O   O15       1.0  0.80010  0.25360  0.25602  1.0000 -0.5495015402
O   O16       1.0  0.30010  0.24640  0.24398  1.0000 -0.5495015402
O   O17       1.0  0.51830  0.10640  0.18117  1.0000 -0.5495015402
O   O18       1.0  0.01830  0.39360  0.31883  1.0000 -0.5495015402
O   O19       1.0  0.98170  0.10640  0.81883  1.0000 -0.5495015402
O   O20       1.0  0.48170  0.39360  0.68117  1.0000 -0.5495015402
O   O21       1.0  0.48170  0.89360  0.81883  1.0000 -0.5495015402
O   O22       1.0  0.98170  0.60640  0.68117  1.0000 -0.5495015402
O   O23       1.0  0.01830  0.89360  0.18117  1.0000 -0.5495015402
O   O24       1.0  0.51830  0.60640  0.31883  1.0000 -0.5495015402
O   O25       1.0  0.17980  0.67040  0.18389  1.0000 -0.5559681971
O   O26       1.0  0.67980  0.82960  0.31611  1.0000 -0.5559681971
O   O27       1.0  0.32020  0.67040  0.81611  1.0000 -0.5559681971
O   O28       1.0  0.82020  0.82960  0.68389  1.0000 -0.5559681971
O   O29       1.0  0.82020  0.32960  0.81611  1.0000 -0.5559681971
O   O30       1.0  0.32020  0.17040  0.68389  1.0000 -0.5559681971
O   O31       1.0  0.67980  0.32960  0.18389  1.0000 -0.5559681971
O   O32       1.0  0.17980  0.17040  0.31611  1.0000 -0.5559681971
O   O33       1.0  0.47240  0.97770  0.25455  1.0000 -0.5377400984
O   O34       1.0  0.97240  0.52230  0.24545  1.0000 -0.5377400984
O   O35       1.0  0.02760  0.97770  0.74545  1.0000 -0.5377400984
O   O36       1.0  0.52760  0.52230  0.75455  1.0000 -0.5377400984
O   O37       1.0  0.52760  0.02230  0.74545  1.0000 -0.5377400984
O   O38       1.0  0.02760  0.47770  0.75455  1.0000 -0.5377400984
O   O39       1.0  0.97240  0.02230  0.25455  1.0000 -0.5377400984
O   O40       1.0  0.47240  0.47770  0.24545  1.0000 -0.5377400984
