# DDEC6 charges by PACMAN v1.1 (https://github.com/mtap-research/PACMAN-charge/)
data_2012[Ni][nan]3[FSR]3
_chemical_formula_sum              "Ni8 H208 C224 N56 O32"
_cell_length_a       13.4995
_cell_length_b       12.4212
_cell_length_c       40.153
_cell_angle_alpha    90
_cell_angle_beta     108.438
_cell_angle_gamma    90

_symmetry_space_group_name_H-M    "P 1"
_symmetry_Int_Tables_number       1

loop_
  _symmetry_equiv_pos_as_xyz
  'x, y, z'

loop_
  _atom_site_type_symbol
  _atom_site_label
  _atom_site_symmetry_multiplicity
  _atom_site_fract_x
  _atom_site_fract_y
  _atom_site_fract_z
  _atom_site_occupancy
  _atom_site_charge
Ni  Ni1       1.0  0.32097  0.61208  0.69248  1.0000 0.6266390552
Ni  Ni2       1.0  0.67903  0.11208  0.80752  1.0000 0.6266390552
Ni  Ni3       1.0  0.67903  0.38792  0.30752  1.0000 0.6266390552
Ni  Ni4       1.0  0.32097  0.88792  0.19248  1.0000 0.6266390552
Ni  Ni5       1.0  0.12882  0.90527  0.42243  1.0000 0.6160690209
Ni  Ni6       1.0  0.87118  0.40527  0.07757  1.0000 0.6160690209
Ni  Ni7       1.0  0.87118  0.09473  0.57757  1.0000 0.6160690209
Ni  Ni8       1.0  0.12882  0.59473  0.92243  1.0000 0.6160690209
H   H1        1.0  0.93220  0.31980  0.67530  1.0000 0.1200282206
H   H2        1.0  0.06780  0.81980  0.82470  1.0000 0.1200282206
H   H3        1.0  0.06780  0.68020  0.32470  1.0000 0.1200282206
H   H4        1.0  0.93220  0.18020  0.17530  1.0000 0.1200282206
H   H5        1.0  0.02920  0.25540  0.67020  1.0000 0.1200282206
H   H6        1.0  0.97080  0.75540  0.82980  1.0000 0.1200282206
H   H7        1.0  0.97080  0.74460  0.32980  1.0000 0.1200282206
H   H8        1.0  0.02920  0.24460  0.17020  1.0000 0.1200282206
H   H9        1.0  0.20560  0.40930  0.71020  1.0000 0.1110658578
H   H10       1.0  0.79440  0.90930  0.78980  1.0000 0.1110658578
H   H11       1.0  0.79440  0.59070  0.28980  1.0000 0.1110658578
H   H12       1.0  0.20560  0.09070  0.21020  1.0000 0.1110658578
H   H13       1.0  0.07100  0.63350  0.64170  1.0000 0.1292611526
H   H14       1.0  0.92900  0.13350  0.85830  1.0000 0.1292611526
H   H15       1.0  0.92900  0.36650  0.35830  1.0000 0.1292611526
H   H16       1.0  0.07100  0.86650  0.14170  1.0000 0.1292611526
H   H17       1.0  0.93860  0.49290  0.63850  1.0000 0.1391013383
H   H18       1.0  0.06140  0.99290  0.86150  1.0000 0.1391013383
H   H19       1.0  0.06140  0.50710  0.36150  1.0000 0.1391013383
H   H20       1.0  0.93860  0.00710  0.13850  1.0000 0.1391013383
H   H21       1.0  0.19910  0.20460  0.69750  1.0000 0.1391013383
H   H22       1.0  0.80090  0.70460  0.80250  1.0000 0.1391013383
H   H23       1.0  0.80090  0.79540  0.30250  1.0000 0.1391013383
H   H24       1.0  0.19910  0.29540  0.19750  1.0000 0.1391013383
H   H25       1.0  0.23070  0.10660  0.72470  1.0000 0.1391013383
H   H26       1.0  0.76930  0.60660  0.77530  1.0000 0.1391013383
H   H27       1.0  0.76930  0.89340  0.27530  1.0000 0.1391013383
H   H28       1.0  0.23070  0.39340  0.22470  1.0000 0.1391013383
H   H29       1.0  0.11940  0.10710  0.69470  1.0000 0.1391013383
H   H30       1.0  0.88060  0.60710  0.80530  1.0000 0.1391013383
H   H31       1.0  0.88060  0.89290  0.30530  1.0000 0.1391013383
H   H32       1.0  0.11940  0.39290  0.19470  1.0000 0.1391013383
H   H33       1.0  0.24480  0.05170  0.77280  1.0000 0.1200282206
H   H34       1.0  0.75520  0.55170  0.72720  1.0000 0.1200282206
H   H35       1.0  0.75520  0.94830  0.22720  1.0000 0.1200282206
H   H36       1.0  0.24480  0.44830  0.27280  1.0000 0.1200282206
H   H37       1.0  0.25940  0.09840  0.81120  1.0000 0.1200282206
H   H38       1.0  0.74060  0.59840  0.68880  1.0000 0.1200282206
H   H39       1.0  0.74060  0.90160  0.18880  1.0000 0.1200282206
H   H40       1.0  0.25940  0.40160  0.31120  1.0000 0.1200282206
H   H41       1.0  0.45560  0.05340  0.81620  1.0000 0.1200282206
H   H42       1.0  0.54440  0.55340  0.68380  1.0000 0.1200282206
H   H43       1.0  0.54440  0.94660  0.18380  1.0000 0.1200282206
H   H44       1.0  0.45560  0.44660  0.31620  1.0000 0.1200282206
H   H45       1.0  0.51730  0.30150  0.76490  1.0000 0.1292611526
H   H46       1.0  0.48270  0.80150  0.73510  1.0000 0.1292611526
H   H47       1.0  0.48270  0.69850  0.23510  1.0000 0.1292611526
H   H48       1.0  0.51730  0.19850  0.26490  1.0000 0.1292611526
H   H49       1.0  0.32860  0.30540  0.75710  1.0000 0.1292611526
H   H50       1.0  0.67140  0.80540  0.74290  1.0000 0.1292611526
H   H51       1.0  0.67140  0.69460  0.24290  1.0000 0.1292611526
H   H52       1.0  0.32860  0.19460  0.25710  1.0000 0.1292611526
H   H53       1.0  0.23880  0.23360  0.84120  1.0000 0.1391013383
H   H54       1.0  0.76120  0.73360  0.65880  1.0000 0.1391013383
H   H55       1.0  0.76120  0.76640  0.15880  1.0000 0.1391013383
H   H56       1.0  0.23880  0.26640  0.34120  1.0000 0.1391013383
H   H57       1.0  0.13440  0.28330  0.84570  1.0000 0.1292611526
H   H58       1.0  0.86560  0.78330  0.65430  1.0000 0.1292611526
H   H59       1.0  0.86560  0.71670  0.15430  1.0000 0.1292611526
H   H60       1.0  0.13440  0.21670  0.34570  1.0000 0.1292611526
H   H61       1.0  0.14250  0.15660  0.83980  1.0000 0.1391013383
H   H62       1.0  0.85750  0.65660  0.66020  1.0000 0.1391013383
H   H63       1.0  0.85750  0.84340  0.16020  1.0000 0.1391013383
H   H64       1.0  0.14250  0.34340  0.33980  1.0000 0.1391013383
H   H65       1.0  0.96370  0.29850  0.81920  1.0000 0.1200282206
H   H66       1.0  0.03630  0.79850  0.68080  1.0000 0.1200282206
H   H67       1.0  0.03630  0.70150  0.18080  1.0000 0.1200282206
H   H68       1.0  0.96370  0.20150  0.31920  1.0000 0.1200282206
H   H69       1.0  0.90570  0.38320  0.78930  1.0000 0.1292611526
H   H70       1.0  0.09430  0.88320  0.71070  1.0000 0.1292611526
H   H71       1.0  0.09430  0.61680  0.21070  1.0000 0.1292611526
H   H72       1.0  0.90570  0.11680  0.28930  1.0000 0.1292611526
H   H73       1.0  0.98350  0.43620  0.86820  1.0000 0.1292611526
H   H74       1.0  0.01650  0.93620  0.63180  1.0000 0.1292611526
H   H75       1.0  0.01650  0.56380  0.13180  1.0000 0.1292611526
H   H76       1.0  0.98350  0.06380  0.36820  1.0000 0.1292611526
H   H77       1.0  0.18790  0.63490  0.84960  1.0000 0.1292611526
H   H78       1.0  0.81210  0.13490  0.65040  1.0000 0.1292611526
H   H79       1.0  0.81210  0.36510  0.15040  1.0000 0.1292611526
H   H80       1.0  0.18790  0.86510  0.34960  1.0000 0.1292611526
H   H81       1.0  0.12280  0.51580  0.79810  1.0000 0.1200282206
H   H82       1.0  0.87720  0.01580  0.70190  1.0000 0.1200282206
H   H83       1.0  0.87720  0.48420  0.20190  1.0000 0.1200282206
H   H84       1.0  0.12280  0.98420  0.29810  1.0000 0.1200282206
H   H85       1.0  0.84350  0.38060  0.72620  1.0000 0.1456493364
H   H86       1.0  0.15650  0.88060  0.77380  1.0000 0.1456493364
H   H87       1.0  0.15650  0.61940  0.27380  1.0000 0.1456493364
H   H88       1.0  0.84350  0.11940  0.22620  1.0000 0.1456493364
H   H89       1.0  0.91970  0.47530  0.74620  1.0000 0.1292611526
H   H90       1.0  0.08030  0.97530  0.75380  1.0000 0.1292611526
H   H91       1.0  0.08030  0.52470  0.25380  1.0000 0.1292611526
H   H92       1.0  0.91970  0.02470  0.24620  1.0000 0.1292611526
H   H93       1.0  0.91470  0.44220  0.70720  1.0000 0.1200282206
H   H94       1.0  0.08530  0.94220  0.79280  1.0000 0.1200282206
H   H95       1.0  0.08530  0.55780  0.29280  1.0000 0.1200282206
H   H96       1.0  0.91470  0.05780  0.20720  1.0000 0.1200282206
H   H97       1.0  0.30440  0.67230  0.52190  1.0000 0.1391013383
H   H98       1.0  0.69560  0.17230  0.97810  1.0000 0.1391013383
H   H99       1.0  0.69560  0.32770  0.47810  1.0000 0.1391013383
H   H100      1.0  0.30440  0.82770  0.02190  1.0000 0.1391013383
H   H101      1.0  0.15340  0.92690  0.54680  1.0000 0.1292611526
H   H102      1.0  0.84660  0.42690  0.95320  1.0000 0.1292611526
H   H103      1.0  0.84660  0.07310  0.45320  1.0000 0.1292611526
H   H104      1.0  0.15340  0.57310  0.04680  1.0000 0.1292611526
H   H105      1.0  0.31490  0.60400  0.56910  1.0000 0.1391013383
H   H106      1.0  0.68510  0.10400  0.93090  1.0000 0.1391013383
H   H107      1.0  0.68510  0.39600  0.43090  1.0000 0.1391013383
H   H108      1.0  0.31490  0.89600  0.06910  1.0000 0.1391013383
H   H109      1.0  0.21050  0.88270  0.59890  1.0000 0.1391013383
H   H110      1.0  0.78950  0.38270  0.90110  1.0000 0.1391013383
H   H111      1.0  0.78950  0.11730  0.40110  1.0000 0.1391013383
H   H112      1.0  0.21050  0.61730  0.09890  1.0000 0.1391013383
H   H113      1.0  0.54920  0.39760  0.82310  1.0000 0.099410942
H   H114      1.0  0.45080  0.89760  0.67690  1.0000 0.099410942
H   H115      1.0  0.45080  0.60240  0.17690  1.0000 0.099410942
H   H116      1.0  0.54920  0.10240  0.32310  1.0000 0.099410942
H   H117      1.0  0.61750  0.49480  0.81620  1.0000 0.1110658578
H   H118      1.0  0.38250  0.99480  0.68380  1.0000 0.1110658578
H   H119      1.0  0.38250  0.50520  0.18380  1.0000 0.1110658578
H   H120      1.0  0.61750  0.00520  0.31620  1.0000 0.1110658578
H   H121      1.0  0.50440  0.50720  0.75290  1.0000 0.1200282206
H   H122      1.0  0.49560  0.00720  0.74710  1.0000 0.1200282206
H   H123      1.0  0.49560  0.49280  0.24710  1.0000 0.1200282206
H   H124      1.0  0.50440  0.99280  0.25290  1.0000 0.1200282206
H   H125      1.0  0.23850  0.61190  0.76280  1.0000 0.1292611526
H   H126      1.0  0.76150  0.11190  0.73720  1.0000 0.1292611526
H   H127      1.0  0.76150  0.38810  0.23720  1.0000 0.1292611526
H   H128      1.0  0.23850  0.88810  0.26280  1.0000 0.1292611526
H   H129      1.0  0.35480  0.56300  0.82210  1.0000 0.1292611526
H   H130      1.0  0.64520  0.06300  0.67790  1.0000 0.1292611526
H   H131      1.0  0.64520  0.43700  0.17790  1.0000 0.1292611526
H   H132      1.0  0.35480  0.93700  0.32210  1.0000 0.1292611526
H   H133      1.0  0.73850  0.64730  0.84520  1.0000 0.1391013383
H   H134      1.0  0.26150  0.14730  0.65480  1.0000 0.1391013383
H   H135      1.0  0.26150  0.35270  0.15480  1.0000 0.1391013383
H   H136      1.0  0.73850  0.85270  0.34520  1.0000 0.1391013383
H   H137      1.0  0.61940  0.66960  0.82270  1.0000 0.1292611526
H   H138      1.0  0.38060  0.16960  0.67730  1.0000 0.1292611526
H   H139      1.0  0.38060  0.33040  0.17730  1.0000 0.1292611526
H   H140      1.0  0.61940  0.83040  0.32270  1.0000 0.1292611526
H   H141      1.0  0.67890  0.75000  0.85370  1.0000 0.1456493364
H   H142      1.0  0.32110  0.25000  0.64630  1.0000 0.1456493364
H   H143      1.0  0.32110  0.25000  0.14630  1.0000 0.1456493364
H   H144      1.0  0.67890  0.75000  0.35370  1.0000 0.1456493364
H   H145      1.0  0.74590  0.74300  0.94550  1.0000 0.1200282206
H   H146      1.0  0.25410  0.24300  0.55450  1.0000 0.1200282206
H   H147      1.0  0.25410  0.25700  0.05450  1.0000 0.1200282206
H   H148      1.0  0.74590  0.75700  0.44550  1.0000 0.1200282206
H   H149      1.0  0.69350  0.80050  0.90860  1.0000 0.1200282206
H   H150      1.0  0.30650  0.30050  0.59140  1.0000 0.1200282206
H   H151      1.0  0.30650  0.19950  0.09140  1.0000 0.1200282206
H   H152      1.0  0.69350  0.69950  0.40860  1.0000 0.1292611526
H   H153      1.0  0.89230  0.58530  0.92810  1.0000 0.1200282206
H   H154      1.0  0.10770  0.08530  0.57190  1.0000 0.1200282206
H   H155      1.0  0.10770  0.41470  0.07190  1.0000 0.1200282206
H   H156      1.0  0.89230  0.91470  0.42810  1.0000 0.1200282206
H   H157      1.0  0.02460  0.82960  0.89650  1.0000 0.1200282206
H   H158      1.0  0.97540  0.32960  0.60350  1.0000 0.1200282206
H   H159      1.0  0.97540  0.17040  0.10350  1.0000 0.1200282206
H   H160      1.0  0.02460  0.67040  0.39650  1.0000 0.1200282206
H   H161      1.0  0.84820  0.88810  0.89480  1.0000 0.1292611526
H   H162      1.0  0.15180  0.38810  0.60520  1.0000 0.1292611526
H   H163      1.0  0.15180  0.11190  0.10520  1.0000 0.1292611526
H   H164      1.0  0.84820  0.61190  0.39480  1.0000 0.1292611526
H   H165      1.0  0.72060  0.60940  0.98100  1.0000 0.1391013383
H   H166      1.0  0.27940  0.10940  0.51900  1.0000 0.1391013383
H   H167      1.0  0.27940  0.39060  0.01900  1.0000 0.1391013383
H   H168      1.0  0.72060  0.89060  0.48100  1.0000 0.1391013383
H   H169      1.0  0.62850  0.69570  0.96750  1.0000 0.1391013383
H   H170      1.0  0.37150  0.19570  0.53250  1.0000 0.1391013383
H   H171      1.0  0.37150  0.30430  0.03250  1.0000 0.1391013383
H   H172      1.0  0.62850  0.80430  0.46750  1.0000 0.1391013383
H   H173      1.0  0.60390  0.57800  0.97910  1.0000 0.1200282206
H   H174      1.0  0.39610  0.07800  0.52090  1.0000 0.1292611526
H   H175      1.0  0.39610  0.42200  0.02090  1.0000 0.1292611526
H   H176      1.0  0.60390  0.92200  0.47910  1.0000 0.1200282206
H   H177      1.0  0.57140  0.43650  0.96790  1.0000 0.1110658578
H   H178      1.0  0.42860  0.93650  0.53210  1.0000 0.1110658578
H   H179      1.0  0.42860  0.56350  0.03210  1.0000 0.1110658578
H   H180      1.0  0.57140  0.06350  0.46790  1.0000 0.1110658578
H   H181      1.0  0.54510  0.34160  0.93950  1.0000 0.1110658578
H   H182      1.0  0.45490  0.84160  0.56050  1.0000 0.1110658578
H   H183      1.0  0.45490  0.65840  0.06050  1.0000 0.1110658578
H   H184      1.0  0.54510  0.15840  0.43950  1.0000 0.1110658578
H   H185      1.0  0.38400  0.58660  0.93100  1.0000 0.1292611526
H   H186      1.0  0.61600  0.08660  0.56900  1.0000 0.1292611526
H   H187      1.0  0.61600  0.41340  0.06900  1.0000 0.1292611526
H   H188      1.0  0.38400  0.91340  0.43100  1.0000 0.1292611526
H   H189      1.0  0.19980  0.34580  0.93640  1.0000 0.1292611526
H   H190      1.0  0.80020  0.84580  0.56360  1.0000 0.1292611526
H   H191      1.0  0.80020  0.65420  0.06360  1.0000 0.1292611526
H   H192      1.0  0.19980  0.15420  0.43640  1.0000 0.1292611526
H   H193      1.0  0.37510  0.27030  0.94560  1.0000 0.1391013383
H   H194      1.0  0.62490  0.77030  0.55440  1.0000 0.1391013383
H   H195      1.0  0.62490  0.72970  0.05440  1.0000 0.1391013383
H   H196      1.0  0.37510  0.22970  0.44560  1.0000 0.1391013383
H   H197      1.0  0.41720  0.35350  0.88190  1.0000 0.1292611526
H   H198      1.0  0.58280  0.85350  0.61810  1.0000 0.1292611526
H   H199      1.0  0.58280  0.64650  0.11810  1.0000 0.1292611526
H   H200      1.0  0.41720  0.14650  0.38190  1.0000 0.1292611526
H   H201      1.0  0.43850  0.36220  0.84500  1.0000 0.1292611526
H   H202      1.0  0.56150  0.86220  0.65500  1.0000 0.1292611526
H   H203      1.0  0.56150  0.63780  0.15500  1.0000 0.1292611526
H   H204      1.0  0.43850  0.13780  0.34500  1.0000 0.1292611526
H   H205      1.0  0.51510  0.29270  0.87620  1.0000 0.1391013383
H   H206      1.0  0.48490  0.79270  0.62380  1.0000 0.1391013383
H   H207      1.0  0.48490  0.70730  0.12380  1.0000 0.1391013383
H   H208      1.0  0.51510  0.20730  0.37620  1.0000 0.1391013383
C   C1        1.0  0.04480  0.28420  0.72194  1.0000 -0.0408881439
C   C2        1.0  0.95520  0.78420  0.77806  1.0000 -0.0408881439
C   C3        1.0  0.95520  0.71580  0.27806  1.0000 -0.0408881439
C   C4        1.0  0.04480  0.21580  0.22194  1.0000 -0.0408881439
C   C5        1.0  0.12590  0.21100  0.73546  1.0000 0.0715870058
C   C6        1.0  0.87410  0.71100  0.76454  1.0000 0.0715870058
C   C7        1.0  0.87410  0.78900  0.26454  1.0000 0.0715870058
C   C8        1.0  0.12590  0.28900  0.23546  1.0000 0.0715870058
C   C9        1.0  0.16480  0.19420  0.77179  1.0000 -0.0408881439
C   C10       1.0  0.83520  0.69420  0.72821  1.0000 -0.0408881439
C   C11       1.0  0.83520  0.80580  0.22821  1.0000 -0.0408881439
C   C12       1.0  0.16480  0.30580  0.27179  1.0000 -0.0408881439
C   C13       1.0  0.11870  0.24450  0.79427  1.0000 0.0799949618
C   C14       1.0  0.88130  0.74450  0.70573  1.0000 0.0799949618
C   C15       1.0  0.88130  0.75550  0.20573  1.0000 0.0799949618
C   C16       1.0  0.11870  0.25550  0.29427  1.0000 0.0799949618
C   C17       1.0  0.03240  0.31050  0.78000  1.0000 -0.0408881439
C   C18       1.0  0.96760  0.81050  0.72000  1.0000 -0.0408881439
C   C19       1.0  0.96760  0.68950  0.22000  1.0000 -0.0408881439
C   C20       1.0  0.03240  0.18950  0.28000  1.0000 -0.0408881439
C   C21       1.0  0.99720  0.33450  0.74435  1.0000 0.0799949618
C   C22       1.0  0.00280  0.83450  0.75565  1.0000 0.0799949618
C   C23       1.0  0.00280  0.66550  0.25565  1.0000 0.0799949618
C   C24       1.0  0.99720  0.16550  0.24435  1.0000 0.0799949618
C   C25       1.0  0.26160  0.72220  0.45125  1.0000 0.5185861459
C   C26       1.0  0.73840  0.22220  0.04875  1.0000 0.5185861459
C   C27       1.0  0.73840  0.27780  0.54875  1.0000 0.5185861459
C   C28       1.0  0.26160  0.77780  0.95125  1.0000 0.5185861459
C   C29       1.0  0.09100  0.02270  0.48066  1.0000 0.5142101666
C   C30       1.0  0.90900  0.52270  0.01934  1.0000 0.5142101666
C   C31       1.0  0.90900  0.97730  0.51934  1.0000 0.5142101666
C   C32       1.0  0.09100  0.47730  0.98066  1.0000 0.5142101666
C   C33       1.0  0.23800  0.82450  0.66785  1.0000 0.5004418215
C   C34       1.0  0.76200  0.32450  0.83215  1.0000 0.5004418215
C   C35       1.0  0.76200  0.17550  0.33215  1.0000 0.5004418215
C   C36       1.0  0.23800  0.67550  0.16785  1.0000 0.5004418215
C   C37       1.0  0.36680  0.50140  0.63400  1.0000 0.5004418215
C   C38       1.0  0.63320  0.00140  0.86600  1.0000 0.5004418215
C   C39       1.0  0.63320  0.49860  0.36600  1.0000 0.5004418215
C   C40       1.0  0.36680  0.99860  0.13400  1.0000 0.5004418215
C   C41       1.0  0.00930  0.31350  0.68377  1.0000 -0.1616218368
C   C42       1.0  0.99070  0.81350  0.81623  1.0000 -0.1616218368
C   C43       1.0  0.99070  0.68650  0.31623  1.0000 -0.1616218368
C   C44       1.0  0.00930  0.18650  0.18377  1.0000 -0.1616218368
C   C45       1.0  0.15500  0.44910  0.69267  1.0000 0.0915674885
C   C46       1.0  0.84500  0.94910  0.80733  1.0000 0.0915674885
C   C47       1.0  0.84500  0.55090  0.30733  1.0000 0.0915674885
C   C48       1.0  0.15500  0.05090  0.19267  1.0000 0.0915674885
C   C49       1.0  0.08200  0.56990  0.65556  1.0000 -0.0408881439
C   C50       1.0  0.91800  0.06990  0.84444  1.0000 -0.0408881439
C   C51       1.0  0.91800  0.43010  0.34444  1.0000 -0.0408881439
C   C52       1.0  0.08200  0.93010  0.15556  1.0000 -0.0408881439
C   C53       1.0  0.00880  0.49300  0.65359  1.0000 -0.108430263
C   C54       1.0  0.99120  0.99300  0.84641  1.0000 -0.108430263
C   C55       1.0  0.99120  0.50700  0.34641  1.0000 -0.108430263
C   C56       1.0  0.00880  0.00700  0.15359  1.0000 -0.108430263
C   C57       1.0  0.17290  0.15210  0.71093  1.0000 -0.4702196995
C   C58       1.0  0.82710  0.65210  0.78907  1.0000 -0.4702196995
C   C59       1.0  0.82710  0.84790  0.28907  1.0000 -0.4702196995
C   C60       1.0  0.17290  0.34790  0.21093  1.0000 -0.4702196995
C   C61       1.0  0.25620  0.11840  0.78703  1.0000 -0.1518137646
C   C62       1.0  0.74380  0.61840  0.71297  1.0000 -0.1518137646
C   C63       1.0  0.74380  0.88160  0.21297  1.0000 -0.1518137646
C   C64       1.0  0.25620  0.38160  0.28703  1.0000 -0.1518137646
C   C65       1.0  0.44760  0.11690  0.80244  1.0000 0.0799949618
C   C66       1.0  0.55240  0.61690  0.69756  1.0000 0.0799949618
C   C67       1.0  0.55240  0.88310  0.19756  1.0000 0.0799949618
C   C68       1.0  0.44760  0.38310  0.30244  1.0000 0.0799949618
C   C69       1.0  0.48100  0.25150  0.77470  1.0000 -0.0408881439
C   C70       1.0  0.51900  0.75150  0.72530  1.0000 -0.0408881439
C   C71       1.0  0.51900  0.74850  0.22530  1.0000 -0.0408881439
C   C72       1.0  0.48100  0.24850  0.27470  1.0000 -0.0408881439
C   C73       1.0  0.37740  0.25360  0.77010  1.0000 -0.108430263
C   C74       1.0  0.62260  0.75360  0.72990  1.0000 -0.108430263
C   C75       1.0  0.62260  0.74640  0.22990  1.0000 -0.108430263
C   C76       1.0  0.37740  0.24640  0.27010  1.0000 -0.108430263
C   C77       1.0  0.16250  0.22810  0.83376  1.0000 -0.459271835
C   C78       1.0  0.83750  0.72810  0.66624  1.0000 -0.459271835
C   C79       1.0  0.83750  0.77190  0.16624  1.0000 -0.459271835
C   C80       1.0  0.16250  0.27190  0.33376  1.0000 -0.459271835
C   C81       1.0  0.97500  0.35640  0.80386  1.0000 -0.1518137646
C   C82       1.0  0.02500  0.85640  0.69614  1.0000 -0.1518137646
C   C83       1.0  0.02500  0.64360  0.19614  1.0000 -0.1518137646
C   C84       1.0  0.97500  0.14360  0.30386  1.0000 -0.1518137646
C   C85       1.0  0.02760  0.47130  0.85724  1.0000 0.1110658578
C   C86       1.0  0.97240  0.97130  0.64276  1.0000 0.1110658578
C   C87       1.0  0.97240  0.52870  0.14276  1.0000 0.1110658578
C   C88       1.0  0.02760  0.02870  0.35724  1.0000 0.1110658578
C   C89       1.0  0.13800  0.57900  0.84696  1.0000 -0.0522970956
C   C90       1.0  0.86200  0.07900  0.65304  1.0000 -0.0522970956
C   C91       1.0  0.86200  0.42100  0.15304  1.0000 -0.0522970956
C   C92       1.0  0.13800  0.92100  0.34696  1.0000 -0.0522970956
C   C93       1.0  0.10300  0.51400  0.81883  1.0000 -0.108430263
C   C94       1.0  0.89700  0.01400  0.68117  1.0000 -0.108430263
C   C95       1.0  0.89700  0.48600  0.18117  1.0000 -0.108430263
C   C96       1.0  0.10300  0.98600  0.31883  1.0000 -0.108430263
C   C97       1.0  0.91130  0.41520  0.72971  1.0000 -0.4702196995
C   C98       1.0  0.08870  0.91520  0.77029  1.0000 -0.4702196995
C   C99       1.0  0.08870  0.58480  0.27029  1.0000 -0.4702196995
C   C100      1.0  0.91130  0.08480  0.22971  1.0000 -0.4702196995
C   C101      1.0  0.23400  0.77350  0.48163  1.0000 0.1110658578
C   C102      1.0  0.76600  0.27350  0.01837  1.0000 0.1110658578
C   C103      1.0  0.76600  0.22650  0.51837  1.0000 0.1110658578
C   C104      1.0  0.23400  0.72650  0.98163  1.0000 0.1110658578
C   C105      1.0  0.26320  0.73560  0.51561  1.0000 -0.1895676589
C   C106      1.0  0.73680  0.23560  0.98439  1.0000 -0.1895676589
C   C107      1.0  0.73680  0.26440  0.48439  1.0000 -0.1895676589
C   C108      1.0  0.26320  0.76440  0.01561  1.0000 -0.1895676589
C   C109      1.0  0.23150  0.79120  0.54069  1.0000 0.1110658578
C   C110      1.0  0.76850  0.29120  0.95931  1.0000 0.1110658578
C   C111      1.0  0.76850  0.20880  0.45931  1.0000 0.1110658578
C   C112      1.0  0.23150  0.70880  0.04069  1.0000 0.1110658578
C   C113      1.0  0.17440  0.88580  0.53027  1.0000 -0.1616218368
C   C114      1.0  0.82560  0.38580  0.96973  1.0000 -0.1616218368
C   C115      1.0  0.82560  0.11420  0.46973  1.0000 -0.1616218368
C   C116      1.0  0.17440  0.61420  0.03027  1.0000 -0.1616218368
C   C117      1.0  0.14840  0.91960  0.49574  1.0000 0.1292611526
C   C118      1.0  0.85160  0.41960  0.00426  1.0000 0.1292611526
C   C119      1.0  0.85160  0.08040  0.50426  1.0000 0.1292611526
C   C120      1.0  0.14840  0.58040  0.99574  1.0000 0.1292611526
C   C121      1.0  0.31650  0.60870  0.61972  1.0000 0.1110658578
C   C122      1.0  0.68350  0.10870  0.88028  1.0000 0.1200282206
C   C123      1.0  0.68350  0.39130  0.38028  1.0000 0.1110658578
C   C124      1.0  0.31650  0.89130  0.11972  1.0000 0.1110658578
C   C125      1.0  0.29850  0.64720  0.58619  1.0000 -0.1895676589
C   C126      1.0  0.70150  0.14720  0.91381  1.0000 -0.1895676589
C   C127      1.0  0.70150  0.35280  0.41381  1.0000 -0.1895676589
C   C128      1.0  0.29850  0.85280  0.08619  1.0000 -0.1895676589
C   C129      1.0  0.25620  0.74950  0.57726  1.0000 0.1200282206
C   C130      1.0  0.74380  0.24950  0.92274  1.0000 0.1200282206
C   C131      1.0  0.74380  0.25050  0.42274  1.0000 0.1200282206
C   C132      1.0  0.25620  0.75050  0.07726  1.0000 0.1200282206
C   C133      1.0  0.23640  0.81130  0.60363  1.0000 -0.1820090915
C   C134      1.0  0.76360  0.31130  0.89637  1.0000 -0.1820090915
C   C135      1.0  0.76360  0.18870  0.39637  1.0000 -0.1820090915
C   C136      1.0  0.23640  0.68870  0.10363  1.0000 -0.1820090915
C   C137      1.0  0.25500  0.76680  0.63663  1.0000 0.1110658578
C   C138      1.0  0.74500  0.26680  0.86337  1.0000 0.1110658578
C   C139      1.0  0.74500  0.23320  0.36337  1.0000 0.1110658578
C   C140      1.0  0.25500  0.73320  0.13663  1.0000 0.1110658578
C   C141      1.0  0.57450  0.51630  0.86026  1.0000 -0.0310490021
C   C142      1.0  0.42550  0.01630  0.63974  1.0000 -0.0310490021
C   C143      1.0  0.42550  0.48370  0.13974  1.0000 -0.0310490021
C   C144      1.0  0.57450  0.98370  0.36026  1.0000 -0.0310490021
C   C145      1.0  0.63530  0.60810  0.87177  1.0000 0.0915674885
C   C146      1.0  0.36470  0.10810  0.62823  1.0000 0.0915674885
C   C147      1.0  0.36470  0.39190  0.12823  1.0000 0.0915674885
C   C148      1.0  0.63530  0.89190  0.37177  1.0000 0.0915674885
C   C149      1.0  0.66430  0.63820  0.90714  1.0000 -0.0310490021
C   C150      1.0  0.33570  0.13820  0.59286  1.0000 -0.0310490021
C   C151      1.0  0.33570  0.36180  0.09286  1.0000 -0.0310490021
C   C152      1.0  0.66430  0.86180  0.40714  1.0000 -0.0310490021
C   C153      1.0  0.62550  0.57970  0.93053  1.0000 0.0799949618
C   C154      1.0  0.37450  0.07970  0.56947  1.0000 0.0799949618
C   C155      1.0  0.37450  0.42030  0.06947  1.0000 0.0799949618
C   C156      1.0  0.62550  0.92030  0.43053  1.0000 0.0799949618
C   C157      1.0  0.56480  0.48840  0.91846  1.0000 -0.0408881439
C   C158      1.0  0.43520  0.98840  0.58154  1.0000 -0.0408881439
C   C159      1.0  0.43520  0.51160  0.08154  1.0000 -0.0408881439
C   C160      1.0  0.56480  0.01160  0.41846  1.0000 -0.0408881439
C   C161      1.0  0.53800  0.45550  0.88332  1.0000 0.0715870058
C   C162      1.0  0.46200  0.95550  0.61668  1.0000 0.0715870058
C   C163      1.0  0.46200  0.54450  0.11668  1.0000 0.0715870058
C   C164      1.0  0.53800  0.04450  0.38332  1.0000 0.0715870058
C   C165      1.0  0.55560  0.47700  0.82327  1.0000 -0.1616218368
C   C166      1.0  0.44440  0.97700  0.67673  1.0000 -0.1616218368
C   C167      1.0  0.44440  0.52300  0.17673  1.0000 -0.1616218368
C   C168      1.0  0.55560  0.02300  0.32327  1.0000 -0.1616218368
C   C169      1.0  0.45150  0.52770  0.76267  1.0000 0.0799949618
C   C170      1.0  0.54850  0.02770  0.73733  1.0000 0.0799949618
C   C171      1.0  0.54850  0.47230  0.23733  1.0000 0.0799949618
C   C172      1.0  0.45150  0.97230  0.26267  1.0000 0.0799949618
C   C173      1.0  0.30740  0.58440  0.76817  1.0000 -0.0633534881
C   C174      1.0  0.69260  0.08440  0.73183  1.0000 -0.0633534881
C   C175      1.0  0.69260  0.41560  0.23183  1.0000 -0.0633534881
C   C176      1.0  0.30740  0.91560  0.26817  1.0000 -0.0633534881
C   C177      1.0  0.37080  0.55780  0.80078  1.0000 -0.1049536744
C   C178      1.0  0.62920  0.05780  0.69922  1.0000 -0.1049536744
C   C179      1.0  0.62920  0.44220  0.19922  1.0000 -0.108430263
C   C180      1.0  0.37080  0.94220  0.30078  1.0000 -0.1049536744
C   C181      1.0  0.67120  0.67460  0.84608  1.0000 -0.4505439827
C   C182      1.0  0.32880  0.17460  0.65392  1.0000 -0.4505439827
C   C183      1.0  0.32880  0.32540  0.15392  1.0000 -0.4505439827
C   C184      1.0  0.67120  0.82540  0.34608  1.0000 -0.4505439827
C   C185      1.0  0.73250  0.73580  0.91995  1.0000 -0.1518137646
C   C186      1.0  0.26750  0.23580  0.58005  1.0000 -0.1518137646
C   C187      1.0  0.26750  0.26420  0.08005  1.0000 -0.1518137646
C   C188      1.0  0.73250  0.76420  0.41995  1.0000 -0.1518137646
C   C189      1.0  0.90380  0.65460  0.92000  1.0000 0.1110658578
C   C190      1.0  0.09620  0.15460  0.58000  1.0000 0.1110658578
C   C191      1.0  0.09620  0.34540  0.08000  1.0000 0.1110658578
C   C192      1.0  0.90380  0.84540  0.42000  1.0000 0.1110658578
C   C193      1.0  0.97530  0.78660  0.90282  1.0000 -0.0408881439
C   C194      1.0  0.02470  0.28660  0.59718  1.0000 -0.0408881439
C   C195      1.0  0.02470  0.21340  0.09718  1.0000 -0.0408881439
C   C196      1.0  0.97530  0.71340  0.40282  1.0000 -0.0408881439
C   C197      1.0  0.87860  0.81940  0.90189  1.0000 -0.108430263
C   C198      1.0  0.12140  0.31940  0.59811  1.0000 -0.108430263
C   C199      1.0  0.12140  0.18060  0.09811  1.0000 -0.108430263
C   C200      1.0  0.87860  0.68060  0.40189  1.0000 -0.108430263
C   C201      1.0  0.64650  0.61920  0.96780  1.0000 -0.459271835
C   C202      1.0  0.35350  0.11920  0.53220  1.0000 -0.459271835
C   C203      1.0  0.35350  0.38080  0.03220  1.0000 -0.459271835
C   C204      1.0  0.64650  0.88080  0.46780  1.0000 -0.459271835
C   C205      1.0  0.53010  0.41770  0.94351  1.0000 -0.1616218368
C   C206      1.0  0.46990  0.91770  0.55649  1.0000 -0.1616218368
C   C207      1.0  0.46990  0.58230  0.05649  1.0000 -0.1616218368
C   C208      1.0  0.53010  0.08230  0.44351  1.0000 -0.1616218368
C   C209      1.0  0.35910  0.51660  0.93361  1.0000 0.099410942
C   C210      1.0  0.64090  0.01660  0.56639  1.0000 0.099410942
C   C211      1.0  0.64090  0.48340  0.06639  1.0000 0.099410942
C   C212      1.0  0.35910  0.98340  0.43361  1.0000 0.099410942
C   C213      1.0  0.25980  0.38590  0.93654  1.0000 -0.0310490021
C   C214      1.0  0.74020  0.88590  0.56346  1.0000 -0.0310490021
C   C215      1.0  0.74020  0.61410  0.06346  1.0000 -0.0310490021
C   C216      1.0  0.25980  0.11410  0.43654  1.0000 -0.0310490021
C   C217      1.0  0.35540  0.34380  0.94152  1.0000 -0.1156713942
C   C218      1.0  0.64460  0.84380  0.55848  1.0000 -0.1156713942
C   C219      1.0  0.64460  0.65620  0.05848  1.0000 -0.1156713942
C   C220      1.0  0.35540  0.15620  0.44152  1.0000 -0.1156713942
C   C221      1.0  0.47140  0.35740  0.87048  1.0000 -0.4776614288
C   C222      1.0  0.52860  0.85740  0.62952  1.0000 -0.4776614288
C   C223      1.0  0.52860  0.64260  0.12952  1.0000 -0.4776614288
C   C224      1.0  0.47140  0.14260  0.37048  1.0000 -0.4776614288
N   N1        1.0  0.05600  0.41630  0.67750  1.0000 0.0403661506
N   N2        1.0  0.94400  0.91630  0.82250  1.0000 0.0403661506
N   N3        1.0  0.94400  0.58370  0.32250  1.0000 0.0403661506
N   N4        1.0  0.05600  0.08370  0.17750  1.0000 0.0403661506
N   N5        1.0  0.17400  0.54210  0.68046  1.0000 -0.2689196149
N   N6        1.0  0.82600  0.04210  0.81954  1.0000 -0.2689196149
N   N7        1.0  0.82600  0.45790  0.31954  1.0000 -0.2689196149
N   N8        1.0  0.17400  0.95790  0.18046  1.0000 -0.2689196149
N   N9        1.0  0.35640  0.16660  0.78780  1.0000 0.0478114613
N   N10       1.0  0.64360  0.66667  0.71220  1.0000 0.0478114613
N   N11       1.0  0.64360  0.83340  0.21220  1.0000 0.0478114613
N   N12       1.0  0.35640  0.33340  0.28780  1.0000 0.0478114613
N   N13       1.0  0.52520  0.16630  0.79554  1.0000 -0.2689196149
N   N14       1.0  0.47480  0.66630  0.70446  1.0000 -0.2689196149
N   N15       1.0  0.47480  0.83370  0.20446  1.0000 -0.2689196149
N   N16       1.0  0.52520  0.33370  0.29554  1.0000 -0.2689196149
N   N17       1.0  0.03350  0.44500  0.82581  1.0000 0.0478114613
N   N18       1.0  0.96650  0.94500  0.67419  1.0000 0.0478114613
N   N19       1.0  0.96650  0.55500  0.17419  1.0000 0.0478114613
N   N20       1.0  0.03350  0.05500  0.32581  1.0000 0.0478114613
N   N21       1.0  0.08990  0.55150  0.87128  1.0000 -0.2531958239
N   N22       1.0  0.91010  0.05150  0.62872  1.0000 -0.2531958239
N   N23       1.0  0.91010  0.44850  0.12872  1.0000 -0.2531958239
N   N24       1.0  0.08990  0.94850  0.37128  1.0000 -0.2531958239
N   N25       1.0  0.17650  0.86160  0.47233  1.0000 -0.229498932
N   N26       1.0  0.82350  0.36160  0.02767  1.0000 -0.229498932
N   N27       1.0  0.82350  0.13840  0.52767  1.0000 -0.229498932
N   N28       1.0  0.17650  0.63840  0.97233  1.0000 -0.229498932
N   N29       1.0  0.29276  0.66740  0.64391  1.0000 -0.2531958239
N   N30       1.0  0.70724  0.16740  0.85609  1.0000 -0.2531958239
N   N31       1.0  0.70724  0.33260  0.35609  1.0000 -0.2531958239
N   N32       1.0  0.29276  0.83260  0.14391  1.0000 -0.2531958239
N   N33       1.0  0.46180  0.52210  0.79682  1.0000 0.0478114613
N   N34       1.0  0.53820  0.02210  0.70318  1.0000 0.0478114613
N   N35       1.0  0.53820  0.47790  0.20318  1.0000 0.0478114613
N   N36       1.0  0.46180  0.97790  0.29682  1.0000 0.0478114613
N   N37       1.0  0.35930  0.56510  0.74413  1.0000 -0.2689196149
N   N38       1.0  0.64070  0.06510  0.75587  1.0000 -0.2689196149
N   N39       1.0  0.64070  0.43490  0.25587  1.0000 -0.2689196149
N   N40       1.0  0.35930  0.93490  0.24413  1.0000 -0.2689196149
N   N41       1.0  0.83340  0.73410  0.91326  1.0000 0.0478114613
N   N42       1.0  0.16660  0.23410  0.58674  1.0000 0.0478114613
N   N43       1.0  0.16660  0.26590  0.08674  1.0000 0.0478114613
N   N44       1.0  0.83340  0.76590  0.41326  1.0000 0.0478114613
N   N45       1.0  0.99120  0.68340  0.91414  1.0000 -0.2770965526
N   N46       1.0  0.00880  0.18340  0.58586  1.0000 -0.2770965526
N   N47       1.0  0.00880  0.31660  0.08586  1.0000 -0.2770965526
N   N48       1.0  0.99120  0.81660  0.41414  1.0000 -0.2770965526
N   N49       1.0  0.41840  0.42820  0.93958  1.0000 0.0403661506
N   N50       1.0  0.58160  0.92820  0.56042  1.0000 0.0403661506
N   N51       1.0  0.58160  0.57180  0.06042  1.0000 0.0403661506
N   N52       1.0  0.41840  0.07180  0.43958  1.0000 0.0403661506
N   N53       1.0  0.26180  0.49510  0.93171  1.0000 -0.2770965526
N   N54       1.0  0.73820  0.99510  0.56829  1.0000 -0.2770965526
N   N55       1.0  0.73820  0.50490  0.06829  1.0000 -0.2770965526
N   N56       1.0  0.26180  0.00490  0.43171  1.0000 -0.2770965526
O   O1        1.0  0.22010  0.76390  0.42165  1.0000 -0.5406851487
O   O2        1.0  0.77990  0.26390  0.07835  1.0000 -0.5406851487
O   O3        1.0  0.77990  0.23610  0.57835  1.0000 -0.5406851487
O   O4        1.0  0.22010  0.73610  0.92165  1.0000 -0.5406851487
O   O5        1.0  0.32220  0.64520  0.45772  1.0000 -0.5074456612
O   O6        1.0  0.67780  0.14520  0.04228  1.0000 -0.5074456612
O   O7        1.0  0.67780  0.35480  0.54228  1.0000 -0.5074456612
O   O8        1.0  0.32220  0.85480  0.95772  1.0000 -0.5074456612
O   O9        1.0  0.06126  0.02921  0.44725  1.0000 -0.5406851487
O   O10       1.0  0.93874  0.52921  0.05275  1.0000 -0.5406851487
O   O11       1.0  0.93874  0.97079  0.55275  1.0000 -0.5406851487
O   O12       1.0  0.06126  0.47079  0.94725  1.0000 -0.5406851487
O   O13       1.0  0.08047  0.09130  0.50134  1.0000 -0.5207898597
O   O14       1.0  0.91953  0.59130  0.99866  1.0000 -0.5207898597
O   O15       1.0  0.91953  0.90870  0.49866  1.0000 -0.5207898597
O   O16       1.0  0.08047  0.40870  0.00134  1.0000 -0.5207898597
O   O17       1.0  0.26275  0.76928  0.69623  1.0000 -0.5406851487
O   O18       1.0  0.73725  0.26928  0.80377  1.0000 -0.5406851487
O   O19       1.0  0.73725  0.23072  0.30377  1.0000 -0.5406851487
O   O20       1.0  0.26275  0.73072  0.19623  1.0000 -0.5406851487
O   O21       1.0  0.20411  0.91690  0.66385  1.0000 -0.5207898597
O   O22       1.0  0.79589  0.41690  0.83615  1.0000 -0.5207898597
O   O23       1.0  0.79589  0.08310  0.33615  1.0000 -0.5207898597
O   O24       1.0  0.20411  0.58310  0.16385  1.0000 -0.5207898597
O   O25       1.0  0.36727  0.47789  0.66457  1.0000 -0.5500372926
O   O26       1.0  0.63273  0.97789  0.83543  1.0000 -0.5500372926
O   O27       1.0  0.63273  0.52211  0.33543  1.0000 -0.5500372926
O   O28       1.0  0.36727  0.02211  0.16457  1.0000 -0.5500372926
O   O29       1.0  0.40630  0.44690  0.61524  1.0000 -0.5406851487
O   O30       1.0  0.59370  0.94690  0.88476  1.0000 -0.5406851487
O   O31       1.0  0.59370  0.55310  0.38476  1.0000 -0.5406851487
O   O32       1.0  0.40630  0.05310  0.11524  1.0000 -0.5406851487
