# DDEC6 charges by PACMAN v1.1 (https://github.com/mtap-research/PACMAN-charge/)
data_2012[Ni][qtz]3[FSR]1
_chemical_formula_sum              "Ni9 H36 C24 N18 O42"
_cell_length_a       11.9245
_cell_length_b       11.9245
_cell_length_c       16.302
_cell_angle_alpha    90
_cell_angle_beta     90
_cell_angle_gamma    120

_symmetry_space_group_name_H-M    "P 1"
_symmetry_Int_Tables_number       1

loop_
  _symmetry_equiv_pos_as_xyz
  'x, y, z'

loop_
  _atom_site_type_symbol
  _atom_site_label
  _atom_site_symmetry_multiplicity
  _atom_site_fract_x
  _atom_site_fract_y
  _atom_site_fract_z
  _atom_site_occupancy
  _atom_site_charge
Ni  Ni1       1.0  0.62675  0.62675  0.00000  1.0000 0.8122644314
Ni  Ni2       1.0  0.37325  0.00000  0.33333  1.0000 0.8150308448
Ni  Ni3       1.0  0.00000  0.37325  0.66667  1.0000 0.8150308448
Ni  Ni4       1.0  0.54338  0.04826  0.14107  1.0000 0.8122644314
Ni  Ni5       1.0  0.95174  0.49512  0.47440  1.0000 0.8122644314
Ni  Ni6       1.0  0.50488  0.45662  0.80774  1.0000 0.8122644314
Ni  Ni7       1.0  0.49512  0.95174  0.52560  1.0000 0.8122644314
Ni  Ni8       1.0  0.45662  0.50488  0.19226  1.0000 0.8122644314
Ni  Ni9       1.0  0.04826  0.54338  0.85893  1.0000 0.8122644314
H   H1        1.0  0.69610  0.15230  0.00450  1.0000 0.3665919967
H   H2        1.0  0.84770  0.54380  0.33783  1.0000 0.3665919967
H   H3        1.0  0.45620  0.30390  0.67117  1.0000 0.3665919967
H   H4        1.0  0.54380  0.84770  0.66217  1.0000 0.3665919967
H   H5        1.0  0.30390  0.45620  0.32883  1.0000 0.3665919967
H   H6        1.0  0.15230  0.69610  0.99550  1.0000 0.3665919967
H   H7        1.0  0.57320  0.10450  0.02590  1.0000 0.2816973346
H   H8        1.0  0.89550  0.46870  0.35923  1.0000 0.2816973346
H   H9        1.0  0.53130  0.42680  0.69257  1.0000 0.2816973346
H   H10       1.0  0.46870  0.89550  0.64077  1.0000 0.2816973346
H   H11       1.0  0.42680  0.53130  0.30743  1.0000 0.2816973346
H   H12       1.0  0.10450  0.57320  0.97410  1.0000 0.2816973346
H   H13       1.0  0.69920  0.18800  0.24700  1.0000 0.3592939692
H   H14       1.0  0.81200  0.51120  0.58033  1.0000 0.3592939692
H   H15       1.0  0.48880  0.30080  0.91367  1.0000 0.3592939692
H   H16       1.0  0.51120  0.81200  0.41967  1.0000 0.3592939692
H   H17       1.0  0.30080  0.48880  0.08633  1.0000 0.3592939692
H   H18       1.0  0.18800  0.69920  0.75300  1.0000 0.3592939692
H   H19       1.0  0.39990  0.99490  0.03140  1.0000 0.2968307602
H   H20       1.0  0.00510  0.40500  0.36473  1.0000 0.2968307602
H   H21       1.0  0.59500  0.60010  0.69807  1.0000 0.2968307602
H   H22       1.0  0.40500  0.00510  0.63527  1.0000 0.2968307602
H   H23       1.0  0.60010  0.59500  0.30193  1.0000 0.2968307602
H   H24       1.0  0.99490  0.39990  0.96860  1.0000 0.2968307602
H   H25       1.0  0.75320  0.11550  0.23180  1.0000 0.337893828
H   H26       1.0  0.88450  0.63770  0.56513  1.0000 0.337893828
H   H27       1.0  0.36230  0.24680  0.89847  1.0000 0.337893828
H   H28       1.0  0.63770  0.88450  0.43487  1.0000 0.337893828
H   H29       1.0  0.24680  0.36230  0.10153  1.0000 0.337893828
H   H30       1.0  0.11550  0.75320  0.76820  1.0000 0.337893828
H   H31       1.0  0.31030  0.96010  0.08760  1.0000 0.337893828
H   H32       1.0  0.03990  0.35020  0.42093  1.0000 0.337893828
H   H33       1.0  0.64980  0.68970  0.75427  1.0000 0.337893828
H   H34       1.0  0.35020  0.03990  0.57907  1.0000 0.337893828
H   H35       1.0  0.68970  0.64980  0.24573  1.0000 0.337893828
H   H36       1.0  0.96010  0.31030  0.91240  1.0000 0.337893828
C   C1        1.0  0.51390  0.80030  0.17500  1.0000 0.1763981598
C   C2        1.0  0.19970  0.71360  0.50833  1.0000 0.1763981598
C   C3        1.0  0.28640  0.48610  0.84167  1.0000 0.1763981598
C   C4        1.0  0.71360  0.19970  0.49167  1.0000 0.1763981598
C   C5        1.0  0.48610  0.28640  0.15833  1.0000 0.1763981598
C   C6        1.0  0.80030  0.51390  0.82500  1.0000 0.1763981598
C   C7        1.0  0.60650  0.83880  0.06100  1.0000 0.2132373967
C   C8        1.0  0.16120  0.76770  0.39433  1.0000 0.2132373967
C   C9        1.0  0.23230  0.39350  0.72767  1.0000 0.2132373967
C   C10       1.0  0.76770  0.16120  0.60567  1.0000 0.2132373967
C   C11       1.0  0.39350  0.23230  0.27233  1.0000 0.2132373967
C   C12       1.0  0.83880  0.60650  0.93900  1.0000 0.2132373967
C   C13       1.0  0.46160  0.82650  0.25190  1.0000 0.5297219174
C   C14       1.0  0.17350  0.63510  0.58523  1.0000 0.5297219174
C   C15       1.0  0.36490  0.53840  0.91857  1.0000 0.5297219174
C   C16       1.0  0.63510  0.17350  0.41477  1.0000 0.5297219174
C   C17       1.0  0.53840  0.36490  0.08143  1.0000 0.5297219174
C   C18       1.0  0.82650  0.46160  0.74810  1.0000 0.5297219174
C   C19       1.0  0.68010  0.89080  0.98280  1.0000 0.5297219174
C   C20       1.0  0.10920  0.78930  0.31613  1.0000 0.5297219174
C   C21       1.0  0.21070  0.31990  0.64947  1.0000 0.5297219174
C   C22       1.0  0.78930  0.10920  0.68387  1.0000 0.5297219174
C   C23       1.0  0.31990  0.21070  0.35053  1.0000 0.5297219174
C   C24       1.0  0.89080  0.68010  0.01720  1.0000 0.5297219174
N   N1        1.0  0.57450  0.71950  0.07986  1.0000 -0.1985258952
N   N2        1.0  0.28050  0.85500  0.41319  1.0000 -0.1985258952
N   N3        1.0  0.14500  0.42550  0.74653  1.0000 -0.1985258952
N   N4        1.0  0.85500  0.28050  0.58681  1.0000 -0.1985258952
N   N5        1.0  0.42550  0.14500  0.25347  1.0000 -0.1985258952
N   N6        1.0  0.71950  0.57450  0.92014  1.0000 -0.1985258952
N   N7        1.0  0.57230  0.89520  0.11830  1.0000 -0.3440302692
N   N8        1.0  0.10480  0.67710  0.45163  1.0000 -0.3440302692
N   N9        1.0  0.32290  0.42770  0.78497  1.0000 -0.3440302692
N   N10       1.0  0.67710  0.10480  0.54837  1.0000 -0.3440302692
N   N11       1.0  0.42770  0.32290  0.21503  1.0000 -0.3440302692
N   N12       1.0  0.89520  0.57230  0.88170  1.0000 -0.3440302692
N   N13       1.0  0.51270  0.69090  0.15370  1.0000 -0.1985258952
N   N14       1.0  0.30910  0.82180  0.48703  1.0000 -0.1985258952
N   N15       1.0  0.17820  0.48730  0.82037  1.0000 -0.1985258952
N   N16       1.0  0.82180  0.30910  0.51297  1.0000 -0.1985258952
N   N17       1.0  0.48730  0.17820  0.17963  1.0000 -0.1985258952
N   N18       1.0  0.69090  0.51270  0.84630  1.0000 -0.1985258952
O   O1        1.0  0.45680  0.93190  0.24863  1.0000 -0.5538313074
O   O2        1.0  0.06810  0.52490  0.58196  1.0000 -0.5538313074
O   O3        1.0  0.47510  0.54320  0.91530  1.0000 -0.5538313074
O   O4        1.0  0.52490  0.06810  0.41804  1.0000 -0.5538313074
O   O5        1.0  0.54320  0.47510  0.08470  1.0000 -0.5538313074
O   O6        1.0  0.93190  0.45680  0.75137  1.0000 -0.5538313074
O   O7        1.0  0.69840  0.80940  0.94343  1.0000 -0.5176030976
O   O8        1.0  0.19060  0.88900  0.27676  1.0000 -0.5176030976
O   O9        1.0  0.11100  0.30160  0.61010  1.0000 -0.5176030976
O   O10       1.0  0.88900  0.19060  0.72324  1.0000 -0.5176030976
O   O11       1.0  0.30160  0.11100  0.38990  1.0000 -0.5176030976
O   O12       1.0  0.80940  0.69840  0.05657  1.0000 -0.5176030976
O   O13       1.0  0.43030  0.75320  0.31100  1.0000 -0.472688256
O   O14       1.0  0.24680  0.67710  0.64433  1.0000 -0.472688256
O   O15       1.0  0.32290  0.56970  0.97767  1.0000 -0.472688256
O   O16       1.0  0.67710  0.24680  0.35567  1.0000 -0.472688256
O   O17       1.0  0.56970  0.32290  0.02233  1.0000 -0.472688256
O   O18       1.0  0.75320  0.43030  0.68900  1.0000 -0.472688256
O   O19       1.0  0.71280  0.14830  0.20850  1.0000 -0.6082914504
O   O20       1.0  0.85170  0.56450  0.54183  1.0000 -0.6082914504
O   O21       1.0  0.43550  0.28720  0.87517  1.0000 -0.6082914504
O   O22       1.0  0.56450  0.85170  0.45817  1.0000 -0.6082914504
O   O23       1.0  0.28720  0.43550  0.12483  1.0000 -0.6082914504
O   O24       1.0  0.14830  0.71280  0.79150  1.0000 -0.6082914504
O   O25       1.0  0.37300  0.94870  0.07460  1.0000 -0.6082914504
O   O26       1.0  0.05130  0.42430  0.40793  1.0000 -0.6082914504
O   O27       1.0  0.57570  0.62700  0.74127  1.0000 -0.6082914504
O   O28       1.0  0.42430  0.05130  0.59207  1.0000 -0.6082914504
O   O29       1.0  0.62700  0.57570  0.25873  1.0000 -0.6082914504
O   O30       1.0  0.94870  0.37300  0.92540  1.0000 -0.6082914504
O   O31       1.0  0.64960  0.15290  0.04390  1.0000 -0.6535236222
O   O32       1.0  0.84710  0.49670  0.37723  1.0000 -0.6535236222
O   O33       1.0  0.50330  0.35040  0.71057  1.0000 -0.6535236222
O   O34       1.0  0.49670  0.84710  0.62277  1.0000 -0.6535236222
O   O35       1.0  0.35040  0.50330  0.28943  1.0000 -0.6535236222
O   O36       1.0  0.15290  0.64960  0.95610  1.0000 -0.6535236222
O   O37       1.0  0.71920  0.00450  0.96120  1.0000 -0.4932886494
O   O38       1.0  0.99550  0.71470  0.29453  1.0000 -0.4932886494
O   O39       1.0  0.28530  0.28080  0.62787  1.0000 -0.4932886494
O   O40       1.0  0.71470  0.99550  0.70547  1.0000 -0.4932886494
O   O41       1.0  0.28080  0.28530  0.37213  1.0000 -0.4932886494
O   O42       1.0  0.00450  0.71920  0.03880  1.0000 -0.4932886494
