# DDEC6 charges by PACMAN v1.1 (https://github.com/mtap-research/PACMAN-charge/)
data_2012[NiNd][scn]3[FSR]1
_chemical_formula_sum              "Nd2 Ni1 H22 C26 N6 O20"
_cell_length_a       7.2904
_cell_length_b       9.2414
_cell_length_c       14.014
_cell_angle_alpha    83.886
_cell_angle_beta     85.398
_cell_angle_gamma    72.647

_symmetry_space_group_name_H-M    "P 1"
_symmetry_Int_Tables_number       1

loop_
  _symmetry_equiv_pos_as_xyz
  'x, y, z'

loop_
  _atom_site_type_symbol
  _atom_site_label
  _atom_site_symmetry_multiplicity
  _atom_site_fract_x
  _atom_site_fract_y
  _atom_site_fract_z
  _atom_site_occupancy
  _atom_site_charge
Nd  Nd1       1.0  0.50473  0.28690  0.09549  1.0000 2.0321593676
Nd  Nd2       1.0  0.49527  0.71310  0.90451  1.0000 2.0321593676
Ni  Ni1       1.0  0.50000  0.50000  0.50000  1.0000 0.6778939758
H   H1        1.0  0.29050  0.09210  0.00680  1.0000 0.3229504769
H   H2        1.0  0.70950  0.90790  0.99320  1.0000 0.3229504769
H   H3        1.0  0.25470  0.08660  0.09530  1.0000 0.2921599393
H   H4        1.0  0.74530  0.91340  0.90470  1.0000 0.2921599393
H   H5        1.0  0.84030  0.35520  0.00530  1.0000 0.3894046788
H   H6        1.0  0.15970  0.64480  0.99470  1.0000 0.3894046788
H   H7        1.0  0.94290  0.22530  0.06380  1.0000 0.3894046788
H   H8        1.0  0.05710  0.77470  0.93620  1.0000 0.3894046788
H   H9        1.0  0.72830  0.67480  0.51350  1.0000 0.2791905199
H   H10       1.0  0.27170  0.32520  0.48650  1.0000 0.2791905199
H   H11       1.0  0.83640  0.52740  0.49780  1.0000 0.2509893422
H   H12       1.0  0.16360  0.47260  0.50220  1.0000 0.2509893422
H   H13       1.0  0.21720  0.88370  0.23760  1.0000 0.3261241113
H   H14       1.0  0.78280  0.11630  0.76240  1.0000 0.3261241113
H   H15       1.0  0.99210  0.44160  0.35680  1.0000 0.138938183
H   H16       1.0  0.00790  0.55840  0.64320  1.0000 0.138938183
H   H17       1.0  0.62210  0.85730  0.37130  1.0000 0.138938183
H   H18       1.0  0.37790  0.14270  0.62870  1.0000 0.138938183
H   H19       1.0  0.91930  0.73910  0.12310  1.0000 0.1308672224
H   H20       1.0  0.08070  0.26090  0.87690  1.0000 0.1308672224
H   H21       1.0  0.19070  0.83070  0.40150  1.0000 0.1308672224
H   H22       1.0  0.80930  0.16930  0.59850  1.0000 0.1308672224
C   C1        1.0  0.13170  0.45920  0.17780  1.0000 0.5528657829
C   C2        1.0  0.86830  0.54080  0.82220  1.0000 0.5528657829
C   C3        1.0  0.97770  0.57220  0.23120  1.0000 0.0144359866
C   C4        1.0  0.02230  0.42780  0.76880  1.0000 0.0144359866
C   C5        1.0  0.93150  0.53700  0.32710  1.0000 -0.2087823804
C   C6        1.0  0.06850  0.46300  0.67290  1.0000 -0.2087823804
C   C7        1.0  0.79610  0.64240  0.37910  1.0000 0.233381847
C   C8        1.0  0.20390  0.35760  0.62090  1.0000 0.233381847
C   C9        1.0  0.70990  0.78520  0.33590  1.0000 -0.2087823804
C   C10       1.0  0.29010  0.21480  0.66410  1.0000 -0.2087823804
C   C11       1.0  0.75370  0.82200  0.23970  1.0000 0.0007638108
C   C12       1.0  0.24630  0.17800  0.76030  1.0000 0.0007638108
C   C13       1.0  0.88890  0.71480  0.18730  1.0000 -0.1435932721
C   C14       1.0  0.11110  0.28520  0.81270  1.0000 -0.1435932721
C   C15       1.0  0.65630  0.97650  0.19220  1.0000 0.5528657829
C   C16       1.0  0.34370  0.02350  0.80780  1.0000 0.5528657829
C   C17       1.0  0.44440  0.68040  0.11850  1.0000 0.5667044912
C   C18       1.0  0.55560  0.31960  0.88150  1.0000 0.5667044912
C   C19       1.0  0.39320  0.66930  0.22320  1.0000 0.0144359866
C   C20       1.0  0.60680  0.33070  0.77680  1.0000 0.0144359866
C   C21       1.0  0.45100  0.56190  0.29910  1.0000 0.0007638108
C   C22       1.0  0.54900  0.43810  0.70090  1.0000 0.0007638108
C   C23       1.0  0.26340  0.76340  0.35830  1.0000 0.1576606129
C   C24       1.0  0.73660  0.23660  0.64170  1.0000 0.1576606129
C   C25       1.0  0.58380  0.40370  0.30960  1.0000 0.5988759194
C   C26       1.0  0.41620  0.59630  0.69040  1.0000 0.5988759194
N   N1        1.0  0.73570  0.60130  0.47590  1.0000 -0.5706110801
N   N2        1.0  0.26430  0.39870  0.52410  1.0000 -0.5706110801
N   N3        1.0  0.27460  0.79590  0.26320  1.0000 -0.1907966639
N   N4        1.0  0.72540  0.20410  0.73680  1.0000 -0.1907966639
N   N5        1.0  0.36840  0.62430  0.38270  1.0000 -0.3030788209
N   N6        1.0  0.63160  0.37570  0.61730  1.0000 -0.3030788209
O   O1        1.0  0.23180  0.34170  0.22440  1.0000 -0.5983276571
O   O2        1.0  0.76820  0.65830  0.77560  1.0000 -0.5983276571
O   O3        1.0  0.16620  0.48400  0.09000  1.0000 -0.5880109872
O   O4        1.0  0.83380  0.51600  0.91000  1.0000 -0.5880109872
O   O5        1.0  0.51520  0.06310  0.23370  1.0000 -0.5706110801
O   O6        1.0  0.48480  0.93690  0.76630  1.0000 -0.5706110801
O   O7        1.0  0.71910  0.01670  0.11010  1.0000 -0.6272550131
O   O8        1.0  0.28090  0.98330  0.88990  1.0000 -0.6272550131
O   O9        1.0  0.52460  0.56130  0.07760  1.0000 -0.6746963467
O   O10       1.0  0.47540  0.43870  0.92240  1.0000 -0.6746963467
O   O11       1.0  0.40490  0.80950  0.07510  1.0000 -0.5706110801
O   O12       1.0  0.59510  0.19050  0.92490  1.0000 -0.5706110801
O   O13       1.0  0.64750  0.33130  0.23780  1.0000 -0.6159651483
O   O14       1.0  0.35250  0.66870  0.76220  1.0000 -0.6159651483
O   O15       1.0  0.62590  0.35410  0.39500  1.0000 -0.5085284914
O   O16       1.0  0.37410  0.64590  0.60500  1.0000 -0.5085284914
O   O17       1.0  0.28560  0.14300  0.05190  1.0000 -0.7456895317
O   O18       1.0  0.71440  0.85700  0.94810  1.0000 -0.7456895317
O   O19       1.0  0.84180  0.28980  0.05000  1.0000 -0.7283550109
O   O20       1.0  0.15820  0.71020  0.95000  1.0000 -0.7283550109
