# DDEC6 charges by PACMAN v1.1 (https://github.com/mtap-research/PACMAN-charge/)
data_2012[Nd][nan]3[FSR]3
_chemical_formula_sum              "Nd4 H24 C20 O36"
_cell_length_a       6.1092
_cell_length_b       7.6866
_cell_length_c       22.6987
_cell_angle_alpha    90
_cell_angle_beta     91.657
_cell_angle_gamma    90

_symmetry_space_group_name_H-M    "P 1"
_symmetry_Int_Tables_number       1

loop_
  _symmetry_equiv_pos_as_xyz
  'x, y, z'

loop_
  _atom_site_type_symbol
  _atom_site_label
  _atom_site_symmetry_multiplicity
  _atom_site_fract_x
  _atom_site_fract_y
  _atom_site_fract_z
  _atom_site_occupancy
  _atom_site_charge
Nd  Nd1       1.0  0.45527  0.50320  0.85402  1.0000 2.0164890954
Nd  Nd2       1.0  0.54473  0.00320  0.64598  1.0000 2.0164890954
Nd  Nd3       1.0  0.54473  0.49680  0.14598  1.0000 2.0164890954
Nd  Nd4       1.0  0.45527  0.99680  0.35402  1.0000 2.0164890954
H   H1        1.0  0.30200  0.72300  0.76100  1.0000 0.3455073306
H   H2        1.0  0.69800  0.22300  0.73900  1.0000 0.3455073306
H   H3        1.0  0.69800  0.27700  0.23900  1.0000 0.3455073306
H   H4        1.0  0.30200  0.77700  0.26100  1.0000 0.3455073306
H   H5        1.0  0.42300  0.63300  0.61200  1.0000 0.3652162919
H   H6        1.0  0.57700  0.13300  0.88800  1.0000 0.3652162919
H   H7        1.0  0.57700  0.36700  0.38800  1.0000 0.3652162919
H   H8        1.0  0.42300  0.86700  0.11200  1.0000 0.3652162919
H   H9        1.0  0.04600  0.64900  0.87900  1.0000 0.3386378357
H   H10       1.0  0.95400  0.14900  0.62100  1.0000 0.3386378357
H   H11       1.0  0.95400  0.35100  0.12100  1.0000 0.3386378357
H   H12       1.0  0.04600  0.85100  0.37900  1.0000 0.3386378357
H   H13       1.0  0.14800  0.72400  0.92400  1.0000 0.3283667037
H   H14       1.0  0.85200  0.22400  0.57600  1.0000 0.3283667037
H   H15       1.0  0.85200  0.27600  0.07600  1.0000 0.3283667037
H   H16       1.0  0.14800  0.77600  0.42400  1.0000 0.3283667037
H   H17       1.0  0.04310  0.47840  0.71750  1.0000 0.1404225448
H   H18       1.0  0.95690  0.97840  0.78250  1.0000 0.1404225448
H   H19       1.0  0.95690  0.52160  0.28250  1.0000 0.1404225448
H   H20       1.0  0.04310  0.02160  0.21750  1.0000 0.1404225448
H   H21       1.0  0.12250  0.56910  0.62440  1.0000 0.1277321199
H   H22       1.0  0.87750  0.06910  0.87560  1.0000 0.1277321199
H   H23       1.0  0.87750  0.43090  0.37560  1.0000 0.1277321199
H   H24       1.0  0.12250  0.93090  0.12440  1.0000 0.1277321199
C   C1        1.0  0.36630  0.39480  0.71110  1.0000 0.6225474247
C   C2        1.0  0.63370  0.89480  0.78890  1.0000 0.6225474247
C   C3        1.0  0.63370  0.60520  0.28890  1.0000 0.6225474247
C   C4        1.0  0.36630  0.10520  0.21110  1.0000 0.6225474247
C   C5        1.0  0.18490  0.53710  0.71470  1.0000 0.015442286
C   C6        1.0  0.81510  0.03710  0.78530  1.0000 0.015442286
C   C7        1.0  0.81510  0.46290  0.28530  1.0000 0.015442286
C   C8        1.0  0.18490  0.96290  0.21470  1.0000 0.015442286
C   C9        1.0  0.18380  0.64230  0.65620  1.0000 0.0009802423
C   C10       1.0  0.81620  0.14230  0.84380  1.0000 0.0009802423
C   C11       1.0  0.81620  0.35770  0.34380  1.0000 0.0009802423
C   C12       1.0  0.18380  0.85770  0.15620  1.0000 0.0009802423
C   C13       1.0  0.04670  0.81150  0.65950  1.0000 0.6225474247
C   C14       1.0  0.95330  0.31150  0.84050  1.0000 0.6225474247
C   C15       1.0  0.95330  0.18850  0.34050  1.0000 0.6225474247
C   C16       1.0  0.04670  0.68850  0.15950  1.0000 0.6225474247
C   C17       1.0  0.58370  0.57590  0.99880  1.0000 0.5074801514
C   C18       1.0  0.41630  0.07590  0.50120  1.0000 0.5074801514
C   C19       1.0  0.41630  0.42410  0.00120  1.0000 0.5074801514
C   C20       1.0  0.58370  0.92410  0.49880  1.0000 0.5074801514
O   O1        1.0  0.51510  0.40110  0.75160  1.0000 -0.62780539
O   O2        1.0  0.48490  0.90110  0.74840  1.0000 -0.62780539
O   O3        1.0  0.48490  0.59890  0.24840  1.0000 -0.62780539
O   O4        1.0  0.51510  0.09890  0.25160  1.0000 -0.62780539
O   O5        1.0  0.35790  0.28580  0.67040  1.0000 -0.6019943288
O   O6        1.0  0.64210  0.78580  0.82960  1.0000 -0.6019943288
O   O7        1.0  0.64210  0.71420  0.32960  1.0000 -0.6019943288
O   O8        1.0  0.35790  0.21420  0.17040  1.0000 -0.6019943288
O   O9        1.0  0.21890  0.64080  0.76680  1.0000 -0.5259606173
O   O10       1.0  0.78110  0.14080  0.73320  1.0000 -0.5259606173
O   O11       1.0  0.78110  0.35920  0.23320  1.0000 -0.5259606173
O   O12       1.0  0.21890  0.85920  0.26680  1.0000 -0.5259606173
O   O13       1.0  0.40500  0.69140  0.64170  1.0000 -0.5128441831
O   O14       1.0  0.59500  0.19140  0.85830  1.0000 -0.5128441831
O   O15       1.0  0.59500  0.30860  0.35830  1.0000 -0.5128441831
O   O16       1.0  0.40500  0.80860  0.14170  1.0000 -0.5128441831
O   O17       1.0  0.14880  0.95320  0.65390  1.0000 -0.62780539
O   O18       1.0  0.85120  0.45320  0.84610  1.0000 -0.62780539
O   O19       1.0  0.85120  0.04680  0.34610  1.0000 -0.62780539
O   O20       1.0  0.14880  0.54680  0.15390  1.0000 -0.62780539
O   O21       1.0  0.84530  0.79560  0.66620  1.0000 -0.6098972142
O   O22       1.0  0.15470  0.29560  0.83380  1.0000 -0.6098972142
O   O23       1.0  0.15470  0.20440  0.33380  1.0000 -0.6098972142
O   O24       1.0  0.84530  0.70440  0.16620  1.0000 -0.6098972142
O   O25       1.0  0.62340  0.63260  0.94720  1.0000 -0.6098972142
O   O26       1.0  0.37660  0.13260  0.55280  1.0000 -0.6098972142
O   O27       1.0  0.37660  0.36740  0.05280  1.0000 -0.6098972142
O   O28       1.0  0.62340  0.86740  0.44720  1.0000 -0.6098972142
O   O29       1.0  0.66440  0.63110  0.04710  1.0000 -0.6098972142
O   O30       1.0  0.33560  0.13110  0.45290  1.0000 -0.6098972142
O   O31       1.0  0.33560  0.36890  0.95290  1.0000 -0.6098972142
O   O32       1.0  0.66440  0.86890  0.54710  1.0000 -0.6098972142
O   O33       1.0  0.15500  0.70450  0.88900  1.0000 -0.7052678993
O   O34       1.0  0.84500  0.20450  0.61100  1.0000 -0.7052678993
O   O35       1.0  0.84500  0.29550  0.11100  1.0000 -0.7052678993
O   O36       1.0  0.15500  0.79550  0.38900  1.0000 -0.7052678993
