# DDEC6 charges by PACMAN v1.1 (https://github.com/mtap-research/PACMAN-charge/)
data_2012[Zn][jph]3[FSR]1
_chemical_formula_sum              "Zn6 H108 C128 N40 O16"
_cell_length_a       18.571
_cell_length_b       18.571
_cell_length_c       25.171
_cell_angle_alpha    52.497
_cell_angle_beta     127.503
_cell_angle_gamma    149.37

_symmetry_space_group_name_H-M    "P 1"
_symmetry_Int_Tables_number       1

loop_
  _symmetry_equiv_pos_as_xyz
  'x, y, z'

loop_
  _atom_site_type_symbol
  _atom_site_label
  _atom_site_symmetry_multiplicity
  _atom_site_fract_x
  _atom_site_fract_y
  _atom_site_fract_z
  _atom_site_occupancy
  _atom_site_charge
Zn  Zn1       1.0  0.33786  0.91696  0.82101  1.0000 0.6755214857
Zn  Zn2       1.0  0.91696  0.33786  0.67899  1.0000 0.6755214857
Zn  Zn3       1.0  0.66214  0.08304  0.17899  1.0000 0.6755214857
Zn  Zn4       1.0  0.08304  0.66214  0.32101  1.0000 0.6755214857
Zn  Zn5       1.0  0.99111  0.99111  0.25000  1.0000 0.7447563933
Zn  Zn6       1.0  0.00889  0.00889  0.75000  1.0000 0.7447563933
H   H1        1.0  0.83340  0.70820  0.88820  1.0000 0.2834817098
H   H2        1.0  0.70820  0.83340  0.61180  1.0000 0.2834817098
H   H3        1.0  0.16660  0.29180  0.11180  1.0000 0.2834817098
H   H4        1.0  0.29180  0.16660  0.38820  1.0000 0.2834817098
H   H5        1.0  0.09940  0.35100  0.19930  1.0000 0.1084626792
H   H6        1.0  0.35100  0.09940  0.30070  1.0000 0.1084626792
H   H7        1.0  0.90060  0.64900  0.80070  1.0000 0.1084626792
H   H8        1.0  0.64900  0.90060  0.69930  1.0000 0.1084626792
H   H9        1.0  0.10730  0.47830  0.20740  1.0000 0.100453213
H   H10       1.0  0.47830  0.10730  0.29260  1.0000 0.100453213
H   H11       1.0  0.89270  0.52170  0.79260  1.0000 0.100453213
H   H12       1.0  0.52170  0.89270  0.70740  1.0000 0.100453213
H   H13       1.0  0.25860  0.54980  0.23600  1.0000 0.0905503316
H   H14       1.0  0.54980  0.25860  0.26400  1.0000 0.0905503316
H   H15       1.0  0.74140  0.45020  0.76400  1.0000 0.0905503316
H   H16       1.0  0.45020  0.74140  0.73600  1.0000 0.0905503316
H   H17       1.0  0.21290  0.53610  0.31310  1.0000 0.0905503316
H   H18       1.0  0.53610  0.21290  0.18690  1.0000 0.0905503316
H   H19       1.0  0.78710  0.46390  0.68690  1.0000 0.0905503316
H   H20       1.0  0.46390  0.78710  0.81310  1.0000 0.0905503316
H   H21       1.0  0.07020  0.36780  0.32010  1.0000 0.1084626792
H   H22       1.0  0.36780  0.07020  0.17990  1.0000 0.1084626792
H   H23       1.0  0.92980  0.63220  0.67990  1.0000 0.1084626792
H   H24       1.0  0.63220  0.92980  0.82010  1.0000 0.1084626792
H   H25       1.0  0.25240  0.41920  0.41420  1.0000 0.100453213
H   H26       1.0  0.41920  0.25240  0.08580  1.0000 0.100453213
H   H27       1.0  0.74760  0.58080  0.58580  1.0000 0.100453213
H   H28       1.0  0.58080  0.74760  0.91420  1.0000 0.100453213
H   H29       1.0  0.35100  0.51560  0.36570  1.0000 0.100453213
H   H30       1.0  0.51560  0.35100  0.13430  1.0000 0.100453213
H   H31       1.0  0.64900  0.48440  0.63430  1.0000 0.100453213
H   H32       1.0  0.48440  0.64900  0.86570  1.0000 0.100453213
H   H33       1.0  0.09100  0.21160  0.38310  1.0000 0.1084626792
H   H34       1.0  0.21160  0.09100  0.11690  1.0000 0.1084626792
H   H35       1.0  0.90900  0.78840  0.61690  1.0000 0.1084626792
H   H36       1.0  0.78840  0.90900  0.88310  1.0000 0.1084626792
H   H37       1.0  0.24590  0.29210  0.40700  1.0000 0.100453213
H   H38       1.0  0.29210  0.24590  0.09300  1.0000 0.100453213
H   H39       1.0  0.75410  0.70790  0.59300  1.0000 0.100453213
H   H40       1.0  0.70790  0.75410  0.90700  1.0000 0.100453213
H   H41       1.0  0.26890  0.39110  0.29460  1.0000 0.1084626792
H   H42       1.0  0.39110  0.26890  0.20540  1.0000 0.1084626792
H   H43       1.0  0.73110  0.60890  0.70540  1.0000 0.1084626792
H   H44       1.0  0.60890  0.73110  0.79460  1.0000 0.1084626792
H   H45       1.0  0.57360  0.07860  0.93660  1.0000 0.100453213
H   H46       1.0  0.07860  0.57360  0.56340  1.0000 0.100453213
H   H47       1.0  0.42640  0.92140  0.06340  1.0000 0.100453213
H   H48       1.0  0.92140  0.42640  0.43660  1.0000 0.100453213
H   H49       1.0  0.71680  0.27380  0.96750  1.0000 0.1492360496
H   H50       1.0  0.27380  0.71680  0.53250  1.0000 0.1492360496
H   H51       1.0  0.28320  0.72620  0.03250  1.0000 0.1492360496
H   H52       1.0  0.72620  0.28320  0.46750  1.0000 0.1492360496
H   H53       1.0  0.51290  0.33670  0.79510  1.0000 0.1403072379
H   H54       1.0  0.33670  0.51290  0.70490  1.0000 0.1403072379
H   H55       1.0  0.48710  0.66330  0.20490  1.0000 0.1403072379
H   H56       1.0  0.66330  0.48710  0.29510  1.0000 0.1403072379
H   H57       1.0  0.37040  0.13520  0.77090  1.0000 0.1084626792
H   H58       1.0  0.13520  0.37040  0.72910  1.0000 0.1084626792
H   H59       1.0  0.62960  0.86480  0.22910  1.0000 0.1084626792
H   H60       1.0  0.86480  0.62960  0.27090  1.0000 0.1084626792
H   H61       1.0  0.98150  0.82150  0.97660  1.0000 0.1403072379
H   H62       1.0  0.82150  0.98150  0.52340  1.0000 0.1403072379
H   H63       1.0  0.01850  0.17850  0.02340  1.0000 0.1403072379
H   H64       1.0  0.17850  0.01850  0.47660  1.0000 0.1403072379
H   H65       1.0  0.15720  0.94680  0.06350  1.0000 0.1084626792
H   H66       1.0  0.94680  0.15720  0.43650  1.0000 0.1084626792
H   H67       1.0  0.84280  0.05320  0.93650  1.0000 0.1084626792
H   H68       1.0  0.05320  0.84280  0.56350  1.0000 0.1084626792
H   H69       1.0  0.21750  0.73930  0.15360  1.0000 0.0905503316
H   H70       1.0  0.73930  0.21750  0.34640  1.0000 0.0905503316
H   H71       1.0  0.78250  0.26070  0.84640  1.0000 0.0905503316
H   H72       1.0  0.26070  0.78250  0.65360  1.0000 0.0905503316
H   H73       1.0  0.04230  0.60390  0.07120  1.0000 0.1403072379
H   H74       1.0  0.60390  0.04230  0.42880  1.0000 0.1403072379
H   H75       1.0  0.95770  0.39610  0.92880  1.0000 0.1403072379
H   H76       1.0  0.39610  0.95770  0.57120  1.0000 0.1403072379
H   H77       1.0  0.86520  0.07320  0.14030  1.0000 0.116811488
H   H78       1.0  0.07320  0.86520  0.35970  1.0000 0.116811488
H   H79       1.0  0.13480  0.92680  0.85970  1.0000 0.116811488
H   H80       1.0  0.92680  0.13480  0.64030  1.0000 0.116811488
H   H81       1.0  0.69570  0.01570  0.04070  1.0000 0.1286959277
H   H82       1.0  0.01570  0.69570  0.45930  1.0000 0.1286959277
H   H83       1.0  0.30430  0.98430  0.95930  1.0000 0.1286959277
H   H84       1.0  0.98430  0.30430  0.54070  1.0000 0.1286959277
H   H85       1.0  0.56200  0.67180  0.07840  1.0000 0.1403072379
H   H86       1.0  0.67180  0.56200  0.42160  1.0000 0.1403072379
H   H87       1.0  0.43800  0.32820  0.92160  1.0000 0.1403072379
H   H88       1.0  0.32820  0.43800  0.57840  1.0000 0.1403072379
H   H89       1.0  0.74190  0.74410  0.17570  1.0000 0.1084626792
H   H90       1.0  0.74410  0.74190  0.32430  1.0000 0.1084626792
H   H91       1.0  0.25810  0.25590  0.82430  1.0000 0.1084626792
H   H92       1.0  0.25590  0.25810  0.67570  1.0000 0.1084626792
H   H93       1.0  0.23790  0.47930  0.90670  1.0000 0.1403072379
H   H94       1.0  0.47930  0.23790  0.59330  1.0000 0.1403072379
H   H95       1.0  0.76210  0.52070  0.09330  1.0000 0.1403072379
H   H96       1.0  0.52070  0.76210  0.40670  1.0000 0.1403072379
H   H97       1.0  0.08090  0.34190  0.82890  1.0000 0.116811488
H   H98       1.0  0.34190  0.08090  0.67110  1.0000 0.116811488
H   H99       1.0  0.91910  0.65810  0.17110  1.0000 0.116811488
H   H100      1.0  0.65810  0.91910  0.32890  1.0000 0.116811488
H   H101      1.0  0.00470  0.54330  0.70390  1.0000 0.100453213
H   H102      1.0  0.54330  0.00470  0.79610  1.0000 0.100453213
H   H103      1.0  0.99530  0.45670  0.29610  1.0000 0.100453213
H   H104      1.0  0.45670  0.99530  0.20390  1.0000 0.100453213
H   H105      1.0  0.16400  0.68860  0.77910  1.0000 0.1403072379
H   H106      1.0  0.68860  0.16400  0.72090  1.0000 0.1403072379
H   H107      1.0  0.83600  0.31140  0.22090  1.0000 0.1403072379
H   H108      1.0  0.31140  0.83600  0.27910  1.0000 0.1403072379
C   C1        1.0  0.93070  0.20270  0.24110  1.0000 0.5801211374
C   C2        1.0  0.20270  0.93070  0.25890  1.0000 0.5801211374
C   C3        1.0  0.06930  0.79730  0.75890  1.0000 0.5801211374
C   C4        1.0  0.79730  0.06930  0.74110  1.0000 0.5801211374
C   C5        1.0  0.09000  0.33140  0.24200  1.0000 -0.1370530499
C   C6        1.0  0.33140  0.09000  0.25800  1.0000 -0.1370530499
C   C7        1.0  0.91000  0.66860  0.75800  1.0000 -0.1370530499
C   C8        1.0  0.66860  0.91000  0.74200  1.0000 -0.1370530499
C   C9        1.0  0.16150  0.46510  0.24380  1.0000 -0.1893773032
C   C10       1.0  0.46510  0.16150  0.25620  1.0000 -0.1893773032
C   C11       1.0  0.83850  0.53490  0.75620  1.0000 -0.1893773032
C   C12       1.0  0.53490  0.83850  0.74380  1.0000 -0.1893773032
C   C13       1.0  0.16760  0.45020  0.31320  1.0000 -0.1571942467
C   C14       1.0  0.45020  0.16760  0.18680  1.0000 -0.1571942467
C   C15       1.0  0.83240  0.54980  0.68680  1.0000 -0.1571942467
C   C16       1.0  0.54980  0.83240  0.81320  1.0000 -0.1571942467
C   C17       1.0  0.25180  0.43040  0.37090  1.0000 -0.1571942467
C   C18       1.0  0.43040  0.25180  0.12910  1.0000 -0.1571942467
C   C19       1.0  0.74820  0.56960  0.62910  1.0000 -0.1571942467
C   C20       1.0  0.56960  0.74820  0.87090  1.0000 -0.1571942467
C   C21       1.0  0.18540  0.29800  0.37180  1.0000 -0.171903841
C   C22       1.0  0.29800  0.18540  0.12820  1.0000 -0.171903841
C   C23       1.0  0.81460  0.70200  0.62820  1.0000 -0.171903841
C   C24       1.0  0.70200  0.81460  0.87180  1.0000 -0.171903841
C   C25       1.0  0.16990  0.30410  0.30190  1.0000 -0.1571942467
C   C26       1.0  0.30410  0.16990  0.19810  1.0000 -0.1571942467
C   C27       1.0  0.83010  0.69590  0.69810  1.0000 -0.1571942467
C   C28       1.0  0.69590  0.83010  0.80190  1.0000 -0.1571942467
C   C29       1.0  0.11760  0.18380  0.30230  1.0000 0.5930744933
C   C30       1.0  0.18380  0.11760  0.19770  1.0000 0.5930744933
C   C31       1.0  0.88240  0.81620  0.69770  1.0000 0.5930744933
C   C32       1.0  0.81620  0.88240  0.80230  1.0000 0.5930744933
C   C33       1.0  0.56170  0.13190  0.90780  1.0000 0.0717582547
C   C34       1.0  0.13190  0.56170  0.59220  1.0000 0.0717582547
C   C35       1.0  0.43830  0.86810  0.09220  1.0000 0.0717582547
C   C36       1.0  0.86810  0.43830  0.40780  1.0000 0.0717582547
C   C37       1.0  0.64840  0.24940  0.92660  1.0000 -0.1793648096
C   C38       1.0  0.24940  0.64840  0.57340  1.0000 -0.1793648096
C   C39       1.0  0.35160  0.75060  0.07340  1.0000 -0.1793648096
C   C40       1.0  0.75060  0.35160  0.42660  1.0000 -0.1793648096
C   C41       1.0  0.63440  0.33240  0.88460  1.0000 0.0905503316
C   C42       1.0  0.33240  0.63440  0.61540  1.0000 0.0905503316
C   C43       1.0  0.36560  0.66760  0.11540  1.0000 0.0905503316
C   C44       1.0  0.66760  0.36560  0.38460  1.0000 0.0905503316
C   C45       1.0  0.52720  0.28540  0.82520  1.0000 -0.1893773032
C   C46       1.0  0.28540  0.52720  0.67480  1.0000 -0.1893773032
C   C47       1.0  0.47280  0.71460  0.17480  1.0000 -0.1893773032
C   C48       1.0  0.71460  0.47280  0.32520  1.0000 -0.1893773032
C   C49       1.0  0.44300  0.16540  0.81040  1.0000 0.0622900092
C   C50       1.0  0.16540  0.44300  0.68960  1.0000 0.0622900092
C   C51       1.0  0.55700  0.83460  0.18960  1.0000 0.0622900092
C   C52       1.0  0.83460  0.55700  0.31040  1.0000 0.0622900092
C   C53       1.0  0.72450  0.45630  0.90410  1.0000 0.2320593225
C   C54       1.0  0.45630  0.72450  0.59590  1.0000 0.2320593225
C   C55       1.0  0.27550  0.54370  0.09590  1.0000 0.2320593225
C   C56       1.0  0.54370  0.27550  0.40410  1.0000 0.2320593225
C   C57       1.0  0.87870  0.61170  0.96010  1.0000 0.2575925814
C   C58       1.0  0.61170  0.87870  0.53990  1.0000 0.2575925814
C   C59       1.0  0.12130  0.38830  0.03990  1.0000 0.2575925814
C   C60       1.0  0.38830  0.12130  0.46010  1.0000 0.2575925814
C   C61       1.0  0.99190  0.69750  0.01420  1.0000 0.0622900092
C   C62       1.0  0.69750  0.99190  0.48580  1.0000 0.0622900092
C   C63       1.0  0.00810  0.30250  0.98580  1.0000 0.0622900092
C   C64       1.0  0.30250  0.00810  0.51420  1.0000 0.0622900092
C   C65       1.0  0.02730  0.80210  0.01220  1.0000 -0.1893773032
C   C66       1.0  0.80210  0.02730  0.48780  1.0000 -0.1893773032
C   C67       1.0  0.97270  0.19790  0.98780  1.0000 -0.1893773032
C   C68       1.0  0.19790  0.97270  0.51220  1.0000 -0.1893773032
C   C69       1.0  0.13340  0.87660  0.06500  1.0000 0.0717582547
C   C70       1.0  0.87660  0.13340  0.43500  1.0000 0.0717582547
C   C71       1.0  0.86660  0.12340  0.93500  1.0000 0.0717582547
C   C72       1.0  0.12340  0.86660  0.56500  1.0000 0.0717582547
C   C73       1.0  0.16850  0.75510  0.11790  1.0000 0.0717582547
C   C74       1.0  0.75510  0.16850  0.38210  1.0000 0.0717582547
C   C75       1.0  0.83150  0.24490  0.88210  1.0000 0.0717582547
C   C76       1.0  0.24490  0.83150  0.61790  1.0000 0.0717582547
C   C77       1.0  0.06380  0.67340  0.06820  1.0000 -0.1893773032
C   C78       1.0  0.67340  0.06380  0.43180  1.0000 -0.1893773032
C   C79       1.0  0.93620  0.32660  0.93180  1.0000 -0.1893773032
C   C80       1.0  0.32660  0.93620  0.56820  1.0000 -0.1893773032
C   C81       1.0  0.80460  0.99240  0.12740  1.0000 0.0717582547
C   C82       1.0  0.99240  0.80460  0.37260  1.0000 0.0717582547
C   C83       1.0  0.19540  0.00760  0.87260  1.0000 0.0717582547
C   C84       1.0  0.00760  0.19540  0.62740  1.0000 0.0717582547
C   C85       1.0  0.70270  0.95830  0.06750  1.0000 -0.1793648096
C   C86       1.0  0.95830  0.70270  0.43250  1.0000 -0.1793648096
C   C87       1.0  0.29730  0.04170  0.93250  1.0000 -0.1793648096
C   C88       1.0  0.04170  0.29730  0.56750  1.0000 -0.1793648096
C   C89       1.0  0.61060  0.83880  0.04680  1.0000 0.0794846745
C   C90       1.0  0.83880  0.61060  0.45320  1.0000 0.0794846745
C   C91       1.0  0.38940  0.16120  0.95320  1.0000 0.0794846745
C   C92       1.0  0.16120  0.38940  0.54680  1.0000 0.0794846745
C   C93       1.0  0.62390  0.75510  0.08940  1.0000 -0.171903841
C   C94       1.0  0.75510  0.62390  0.41060  1.0000 -0.171903841
C   C95       1.0  0.37610  0.24490  0.91060  1.0000 -0.171903841
C   C96       1.0  0.24490  0.37610  0.58940  1.0000 -0.171903841
C   C97       1.0  0.73140  0.79860  0.14840  1.0000 0.0717582547
C   C98       1.0  0.79860  0.73140  0.35160  1.0000 0.0717582547
C   C99       1.0  0.26860  0.20140  0.85160  1.0000 0.0794846745
C   C100      1.0  0.20140  0.26860  0.64840  1.0000 0.0794846745
C   C101      1.0  0.49980  0.79840  0.98290  1.0000 0.2575925814
C   C102      1.0  0.79840  0.49980  0.51710  1.0000 0.2575925814
C   C103      1.0  0.50020  0.20160  0.01710  1.0000 0.2575925814
C   C104      1.0  0.20160  0.50020  0.48290  1.0000 0.2575925814
C   C105      1.0  0.33390  0.69990  0.89920  1.0000 0.2575925814
C   C106      1.0  0.69990  0.33390  0.60080  1.0000 0.2575925814
C   C107      1.0  0.66610  0.30010  0.10080  1.0000 0.2575925814
C   C108      1.0  0.30010  0.66610  0.39920  1.0000 0.2575925814
C   C109      1.0  0.22390  0.60430  0.85150  1.0000 0.0717582547
C   C110      1.0  0.60430  0.22390  0.64850  1.0000 0.0717582547
C   C111      1.0  0.77610  0.39570  0.14850  1.0000 0.0717582547
C   C112      1.0  0.39570  0.77610  0.35150  1.0000 0.0717582547
C   C113      1.0  0.19320  0.49580  0.86530  1.0000 -0.171903841
C   C114      1.0  0.49580  0.19320  0.63470  1.0000 -0.171903841
C   C115      1.0  0.80680  0.50420  0.13470  1.0000 -0.171903841
C   C116      1.0  0.50420  0.80680  0.36530  1.0000 -0.171903841
C   C117      1.0  0.09780  0.41260  0.81850  1.0000 0.0717582547
C   C118      1.0  0.41260  0.09780  0.68150  1.0000 0.0717582547
C   C119      1.0  0.90220  0.58740  0.18150  1.0000 0.0717582547
C   C120      1.0  0.58740  0.90220  0.31850  1.0000 0.0717582547
C   C121      1.0  0.05320  0.53100  0.74490  1.0000 0.0794846745
C   C122      1.0  0.53100  0.05320  0.75510  1.0000 0.0794846745
C   C123      1.0  0.94680  0.46900  0.25510  1.0000 0.0794846745
C   C124      1.0  0.46900  0.94680  0.24490  1.0000 0.0794846745
C   C125      1.0  0.14950  0.61930  0.79010  1.0000 -0.1893773032
C   C126      1.0  0.61930  0.14950  0.70990  1.0000 -0.1893773032
C   C127      1.0  0.85050  0.38070  0.20990  1.0000 -0.1893773032
C   C128      1.0  0.38070  0.85050  0.29010  1.0000 -0.1893773032
N   N1        1.0  0.46120  0.08980  0.85060  1.0000 -0.2185724003
N   N2        1.0  0.08980  0.46120  0.64940  1.0000 -0.2185724003
N   N3        1.0  0.53880  0.91020  0.14940  1.0000 -0.2185724003
N   N4        1.0  0.91020  0.53880  0.35060  1.0000 -0.2185724003
N   N5        1.0  0.82780  0.49980  0.96290  1.0000 -0.4086302592
N   N6        1.0  0.49980  0.82780  0.53710  1.0000 -0.4086302592
N   N7        1.0  0.17220  0.50020  0.03710  1.0000 -0.4086302592
N   N8        1.0  0.50020  0.17220  0.46290  1.0000 -0.4086302592
N   N9        1.0  0.81170  0.63410  0.90390  1.0000 -0.1202153636
N   N10       1.0  0.63410  0.81170  0.59610  1.0000 -0.1202153636
N   N11       1.0  0.18830  0.36590  0.09610  1.0000 -0.1202153636
N   N12       1.0  0.36590  0.18830  0.40390  1.0000 -0.1202153636
N   N13       1.0  0.71180  0.53540  0.86660  1.0000 -0.2426861299
N   N14       1.0  0.53540  0.71180  0.63340  1.0000 -0.2426861299
N   N15       1.0  0.28820  0.46460  0.13340  1.0000 -0.2426861299
N   N16       1.0  0.46460  0.28820  0.36660  1.0000 -0.2426861299
N   N17       1.0  0.20360  0.85480  0.11780  1.0000 -0.2511303051
N   N18       1.0  0.85480  0.20360  0.38220  1.0000 -0.2511303051
N   N19       1.0  0.79640  0.14520  0.88220  1.0000 -0.2511303051
N   N20       1.0  0.14520  0.79640  0.61780  1.0000 -0.2511303051
N   N21       1.0  0.82080  0.91420  0.16850  1.0000 -0.2426861299
N   N22       1.0  0.91420  0.82080  0.33150  1.0000 -0.2426861299
N   N23       1.0  0.17920  0.08580  0.83150  1.0000 -0.2426861299
N   N24       1.0  0.08580  0.17920  0.66850  1.0000 -0.2426861299
N   N25       1.0  0.40990  0.68770  0.95780  1.0000 -0.4248304142
N   N26       1.0  0.68770  0.40990  0.54220  1.0000 -0.4248304142
N   N27       1.0  0.59010  0.31230  0.04220  1.0000 -0.4248304142
N   N28       1.0  0.31230  0.59010  0.45780  1.0000 -0.4248304142
N   N29       1.0  0.48530  0.87790  0.94470  1.0000 -0.2899184672
N   N30       1.0  0.87790  0.48530  0.55530  1.0000 -0.2899184672
N   N31       1.0  0.51470  0.12210  0.05530  1.0000 -0.2899184672
N   N32       1.0  0.12210  0.51470  0.44470  1.0000 -0.2899184672
N   N33       1.0  0.37630  0.81250  0.88940  1.0000 -0.2558235003
N   N34       1.0  0.81250  0.37630  0.61060  1.0000 -0.2558235003
N   N35       1.0  0.62370  0.18750  0.11060  1.0000 -0.2558235003
N   N36       1.0  0.18750  0.62370  0.38940  1.0000 -0.2558235003
N   N37       1.0  0.02700  0.42900  0.75790  1.0000 -0.2426861299
N   N38       1.0  0.42900  0.02700  0.74210  1.0000 -0.2426861299
N   N39       1.0  0.97300  0.57100  0.24210  1.0000 -0.2426861299
N   N40       1.0  0.57100  0.97300  0.25790  1.0000 -0.2426861299
O   O1        1.0  0.86360  0.22520  0.19060  1.0000 -0.5665091349
O   O2        1.0  0.22520  0.86360  0.30940  1.0000 -0.5665091349
O   O3        1.0  0.13640  0.77480  0.80940  1.0000 -0.5665091349
O   O4        1.0  0.77480  0.13640  0.69060  1.0000 -0.5665091349
O   O5        1.0  0.86880  0.08900  0.28250  1.0000 -0.5454604698
O   O6        1.0  0.08900  0.86880  0.21750  1.0000 -0.5454604698
O   O7        1.0  0.13120  0.91100  0.71750  1.0000 -0.5454604698
O   O8        1.0  0.91100  0.13120  0.78250  1.0000 -0.5446488334
O   O9        1.0  0.04917  0.14543  0.24490  1.0000 -0.5565030052
O   O10       1.0  0.14543  0.04917  0.25510  1.0000 -0.5565030052
O   O11       1.0  0.95083  0.85457  0.75510  1.0000 -0.5565030052
O   O12       1.0  0.85457  0.95083  0.74490  1.0000 -0.5565030052
O   O13       1.0  0.14070  0.12270  0.35570  1.0000 -0.5812799407
O   O14       1.0  0.12270  0.14070  0.14430  1.0000 -0.5812799407
O   O15       1.0  0.85930  0.87730  0.64430  1.0000 -0.5812799407
O   O16       1.0  0.87730  0.85930  0.85570  1.0000 -0.5812799407
