# DDEC6 charges by PACMAN v1.1 (https://github.com/mtap-research/PACMAN-charge/)
data_2012[Co][ecu]3[FSR]5
_chemical_formula_sum              "Co8 H72 C96 N16 O36"
_cell_length_a       11.379
_cell_length_b       13.386
_cell_length_c       25.904
_cell_angle_alpha    90
_cell_angle_beta     90
_cell_angle_gamma    90

_symmetry_space_group_name_H-M    "P 1"
_symmetry_Int_Tables_number       1

loop_
  _symmetry_equiv_pos_as_xyz
  'x, y, z'

loop_
  _atom_site_type_symbol
  _atom_site_label
  _atom_site_symmetry_multiplicity
  _atom_site_fract_x
  _atom_site_fract_y
  _atom_site_fract_z
  _atom_site_occupancy
  _atom_site_charge
Co  Co1       1.0  0.84432  0.44353  0.42199  1.0000 0.8838078197
Co  Co2       1.0  0.65568  0.55647  0.92199  1.0000 0.8838078197
Co  Co3       1.0  0.34432  0.05647  0.57801  1.0000 0.8838078197
Co  Co4       1.0  0.15568  0.94353  0.07801  1.0000 0.8838078197
Co  Co5       1.0  0.09813  0.55392  0.36133  1.0000 0.8916646358
Co  Co6       1.0  0.40187  0.44608  0.86133  1.0000 0.8916646358
Co  Co7       1.0  0.59813  0.94608  0.63867  1.0000 0.8916646358
Co  Co8       1.0  0.90187  0.05392  0.13867  1.0000 0.8916646358
H   H1        1.0  0.91120  0.63040  0.40900  1.0000 0.3795018833
H   H2        1.0  0.58880  0.36960  0.90900  1.0000 0.3795018833
H   H3        1.0  0.41120  0.86960  0.59100  1.0000 0.3795018833
H   H4        1.0  0.08880  0.13040  0.09100  1.0000 0.3795018833
H   H5        1.0  0.86830  0.58900  0.35420  1.0000 0.3893798631
H   H6        1.0  0.63170  0.41100  0.85420  1.0000 0.3893798631
H   H7        1.0  0.36830  0.91100  0.64580  1.0000 0.3893798631
H   H8        1.0  0.13170  0.08900  0.14580  1.0000 0.3893798631
H   H9        1.0  0.29490  0.39590  0.34780  1.0000 0.1094170224
H   H10       1.0  0.20510  0.60410  0.84780  1.0000 0.1094170224
H   H11       1.0  0.79490  0.10410  0.65220  1.0000 0.1094170224
H   H12       1.0  0.70510  0.89590  0.15220  1.0000 0.1094170224
H   H13       1.0  0.34470  0.15700  0.47400  1.0000 0.101260858
H   H14       1.0  0.15530  0.84300  0.97400  1.0000 0.101260858
H   H15       1.0  0.84470  0.34300  0.52600  1.0000 0.101260858
H   H16       1.0  0.65530  0.65700  0.02600  1.0000 0.101260858
H   H17       1.0  0.02540  0.25360  0.16300  1.0000 0.1094170224
H   H18       1.0  0.47460  0.74640  0.66300  1.0000 0.1094170224
H   H19       1.0  0.52540  0.24640  0.83700  1.0000 0.1094170224
H   H20       1.0  0.97460  0.75360  0.33700  1.0000 0.1094170224
H   H21       1.0  0.24890  0.28480  0.42660  1.0000 0.135887083
H   H22       1.0  0.25110  0.71520  0.92660  1.0000 0.135887083
H   H23       1.0  0.74890  0.21520  0.57340  1.0000 0.135887083
H   H24       1.0  0.75110  0.78480  0.07340  1.0000 0.135887083
H   H25       1.0  0.59350  0.50240  0.45840  1.0000 0.101260858
H   H26       1.0  0.90650  0.49760  0.95840  1.0000 0.101260858
H   H27       1.0  0.09350  0.99760  0.54160  1.0000 0.101260858
H   H28       1.0  0.40650  0.00240  0.04160  1.0000 0.101260858
H   H29       1.0  0.05430  0.36670  0.22910  1.0000 0.1321261864
H   H30       1.0  0.44570  0.63330  0.72910  1.0000 0.1321261864
H   H31       1.0  0.55430  0.13330  0.77090  1.0000 0.1321261864
H   H32       1.0  0.94570  0.86670  0.27090  1.0000 0.1321261864
H   H33       1.0  0.84530  0.07520  0.25500  1.0000 0.101260858
H   H34       1.0  0.65470  0.92480  0.75500  1.0000 0.101260858
H   H35       1.0  0.34530  0.42480  0.74500  1.0000 0.101260858
H   H36       1.0  0.15470  0.57520  0.24500  1.0000 0.101260858
H   H37       1.0  0.30830  0.68870  0.33620  1.0000 0.101260858
H   H38       1.0  0.19170  0.31130  0.83620  1.0000 0.101260858
H   H39       1.0  0.80830  0.81130  0.66380  1.0000 0.101260858
H   H40       1.0  0.69170  0.18870  0.16380  1.0000 0.101260858
H   H41       1.0  0.81130  0.72270  0.55630  1.0000 0.1321261864
H   H42       1.0  0.68870  0.27730  0.05630  1.0000 0.1321261864
H   H43       1.0  0.31130  0.77730  0.44370  1.0000 0.1321261864
H   H44       1.0  0.18870  0.22270  0.94370  1.0000 0.1321261864
H   H45       1.0  0.16930  0.22800  0.59960  1.0000 0.1094170224
H   H46       1.0  0.33070  0.77200  0.09960  1.0000 0.1094170224
H   H47       1.0  0.66930  0.27200  0.40040  1.0000 0.1094170224
H   H48       1.0  0.83070  0.72800  0.90040  1.0000 0.1094170224
H   H49       1.0  0.90230  0.59870  0.50650  1.0000 0.1094170224
H   H50       1.0  0.59770  0.40130  0.00650  1.0000 0.1094170224
H   H51       1.0  0.40230  0.90130  0.49350  1.0000 0.1094170224
H   H52       1.0  0.09770  0.09870  0.99350  1.0000 0.1094170224
H   H53       1.0  0.06620  0.35290  0.55630  1.0000 0.1321261864
H   H54       1.0  0.43380  0.64710  0.05630  1.0000 0.1321261864
H   H55       1.0  0.56620  0.14710  0.44370  1.0000 0.1321261864
H   H56       1.0  0.93380  0.85290  0.94370  1.0000 0.1321261864
H   H57       1.0  0.49580  0.62830  0.50300  1.0000 0.1321261864
H   H58       1.0  0.00420  0.37170  0.00300  1.0000 0.1321261864
H   H59       1.0  0.99580  0.87170  0.49700  1.0000 0.1321261864
H   H60       1.0  0.50420  0.12830  0.99700  1.0000 0.1321261864
H   H61       1.0  0.86850  0.18760  0.32410  1.0000 0.1321261864
H   H62       1.0  0.63150  0.81240  0.82410  1.0000 0.1321261864
H   H63       1.0  0.36850  0.31240  0.67590  1.0000 0.1321261864
H   H64       1.0  0.13150  0.68760  0.17590  1.0000 0.1321261864
H   H65       1.0  0.51490  0.68430  0.33600  1.0000 0.1321261864
H   H66       1.0  0.98510  0.31570  0.83600  1.0000 0.1321261864
H   H67       1.0  0.01490  0.81570  0.66400  1.0000 0.1321261864
H   H68       1.0  0.48510  0.18430  0.16400  1.0000 0.1321261864
H   H69       1.0  0.49500  0.38500  0.35350  1.0000 0.1321261864
H   H70       1.0  0.00500  0.61500  0.85350  1.0000 0.1321261864
H   H71       1.0  0.99500  0.11500  0.64650  1.0000 0.1321261864
H   H72       1.0  0.50500  0.88500  0.14650  1.0000 0.1321261864
C   C1        1.0  0.34000  0.45560  0.34660  1.0000 0.0742769376
C   C2        1.0  0.16000  0.54440  0.84660  1.0000 0.0742769376
C   C3        1.0  0.84000  0.04440  0.65340  1.0000 0.0742769376
C   C4        1.0  0.66000  0.95560  0.15340  1.0000 0.0742769376
C   C5        1.0  0.28860  0.19820  0.49090  1.0000 0.0788902241
C   C6        1.0  0.21140  0.80180  0.99090  1.0000 0.0788902241
C   C7        1.0  0.78860  0.30180  0.50910  1.0000 0.0788902241
C   C8        1.0  0.71140  0.69820  0.00910  1.0000 0.0788902241
C   C9        1.0  0.99300  0.23960  0.19600  1.0000 0.0788902241
C   C10       1.0  0.50700  0.76040  0.69600  1.0000 0.0788902241
C   C11       1.0  0.49300  0.26040  0.80400  1.0000 0.0788902241
C   C12       1.0  0.00700  0.73960  0.30400  1.0000 0.0788902241
C   C13       1.0  0.23220  0.27490  0.46210  1.0000 -0.1666467
C   C14       1.0  0.26780  0.72510  0.96210  1.0000 -0.1666467
C   C15       1.0  0.73220  0.22510  0.53790  1.0000 -0.1666467
C   C16       1.0  0.76780  0.77490  0.03790  1.0000 -0.1666467
C   C17       1.0  0.63820  0.54960  0.47760  1.0000 0.0580827579
C   C18       1.0  0.86180  0.45040  0.97760  1.0000 0.0580827579
C   C19       1.0  0.13820  0.95040  0.52240  1.0000 0.0580827579
C   C20       1.0  0.36180  0.04960  0.02240  1.0000 0.0580827579
C   C21       1.0  0.64240  0.68660  0.53530  1.0000 0.0287624922
C   C22       1.0  0.85760  0.31340  0.03530  1.0000 0.0287624922
C   C23       1.0  0.14240  0.81340  0.46470  1.0000 0.0287624922
C   C24       1.0  0.35760  0.18660  0.96470  1.0000 0.0287624922
C   C25       1.0  0.98050  0.36540  0.32683  1.0000 0.5872256052
C   C26       1.0  0.51950  0.63460  0.82683  1.0000 0.5872256052
C   C27       1.0  0.48050  0.13460  0.67317  1.0000 0.5872256052
C   C28       1.0  0.01950  0.86540  0.17317  1.0000 0.5872256052
C   C29       1.0  0.15050  0.33540  0.48830  1.0000 0.0354027864
C   C30       1.0  0.34950  0.66460  0.98830  1.0000 0.0354027864
C   C31       1.0  0.65050  0.16460  0.51170  1.0000 0.0354027864
C   C32       1.0  0.84950  0.83540  0.01170  1.0000 0.0354027864
C   C33       1.0  0.01080  0.30740  0.23550  1.0000 -0.1497692102
C   C34       1.0  0.48920  0.69260  0.73550  1.0000 -0.1497692102
C   C35       1.0  0.51080  0.19260  0.76450  1.0000 -0.1497692102
C   C36       1.0  0.98920  0.80740  0.26450  1.0000 -0.1497692102
C   C37       1.0  0.88760  0.13550  0.24960  1.0000 0.0788902241
C   C38       1.0  0.61240  0.86450  0.74960  1.0000 0.0788902241
C   C39       1.0  0.38760  0.36450  0.75040  1.0000 0.0788902241
C   C40       1.0  0.11240  0.63550  0.25040  1.0000 0.0788902241
C   C41       1.0  0.34720  0.62620  0.33910  1.0000 0.0920893814
C   C42       1.0  0.15280  0.37380  0.83910  1.0000 0.0920893814
C   C43       1.0  0.84720  0.87380  0.66090  1.0000 0.0920893814
C   C44       1.0  0.65280  0.12620  0.16090  1.0000 0.0920893814
C   C45       1.0  0.76530  0.67860  0.53590  1.0000 -0.1497692102
C   C46       1.0  0.73470  0.32140  0.03590  1.0000 -0.1497692102
C   C47       1.0  0.26530  0.82140  0.46410  1.0000 -0.1497692102
C   C48       1.0  0.23470  0.17860  0.96410  1.0000 -0.1497692102
C   C49       1.0  0.18570  0.23930  0.56410  1.0000 0.0920893814
C   C50       1.0  0.31430  0.76070  0.06410  1.0000 0.0920893814
C   C51       1.0  0.68570  0.26070  0.43590  1.0000 0.0920893814
C   C52       1.0  0.81430  0.73930  0.93590  1.0000 0.0920893814
C   C53       1.0  0.08650  0.41510  0.45779  1.0000 0.5872256052
C   C54       1.0  0.41350  0.58490  0.95779  1.0000 0.5872256052
C   C55       1.0  0.58650  0.08490  0.54221  1.0000 0.5872256052
C   C56       1.0  0.91350  0.91510  0.04221  1.0000 0.5872256052
C   C57       1.0  0.96620  0.28980  0.28350  1.0000 0.0287624922
C   C58       1.0  0.53380  0.71020  0.78350  1.0000 0.0287624922
C   C59       1.0  0.46620  0.21020  0.71650  1.0000 0.0287624922
C   C60       1.0  0.03380  0.78980  0.21650  1.0000 0.0287624922
C   C61       1.0  0.57950  0.76780  0.56560  1.0000 0.5672033395
C   C62       1.0  0.92050  0.23220  0.06560  1.0000 0.5672033395
C   C63       1.0  0.07950  0.73220  0.43440  1.0000 0.5672033395
C   C64       1.0  0.42050  0.26780  0.93440  1.0000 0.5672033395
C   C65       1.0  0.81910  0.60450  0.50590  1.0000 0.1094170224
C   C66       1.0  0.68090  0.39550  0.00590  1.0000 0.1094170224
C   C67       1.0  0.31910  0.89550  0.49410  1.0000 0.1094170224
C   C68       1.0  0.18090  0.10450  0.99410  1.0000 0.1094170224
C   C69       1.0  0.12480  0.31550  0.53870  1.0000 -0.161363009
C   C70       1.0  0.37520  0.68450  0.03870  1.0000 -0.161363009
C   C71       1.0  0.62480  0.18450  0.46130  1.0000 -0.161363009
C   C72       1.0  0.87520  0.81550  0.96130  1.0000 -0.161363009
C   C73       1.0  0.57890  0.62270  0.50510  1.0000 -0.1497692102
C   C74       1.0  0.92110  0.37730  0.00510  1.0000 -0.1497692102
C   C75       1.0  0.07890  0.87730  0.49490  1.0000 -0.1497692102
C   C76       1.0  0.42110  0.12270  0.99490  1.0000 -0.1497692102
C   C77       1.0  0.90190  0.20210  0.29130  1.0000 -0.161363009
C   C78       1.0  0.59810  0.79790  0.79130  1.0000 -0.161363009
C   C79       1.0  0.40190  0.29790  0.70870  1.0000 -0.161363009
C   C80       1.0  0.09810  0.70210  0.20870  1.0000 -0.161363009
C   C81       1.0  0.47090  0.62430  0.33940  1.0000 -0.161363009
C   C82       1.0  0.02910  0.37570  0.83940  1.0000 -0.161363009
C   C83       1.0  0.97090  0.87570  0.66060  1.0000 -0.161363009
C   C84       1.0  0.52910  0.12430  0.16060  1.0000 -0.161363009
C   C85       1.0  0.45870  0.44830  0.34897  1.0000 -0.161363009
C   C86       1.0  0.04130  0.55170  0.84897  1.0000 -0.161363009
C   C87       1.0  0.95870  0.05170  0.65103  1.0000 -0.161363009
C   C88       1.0  0.54130  0.94830  0.15103  1.0000 -0.161363009
C   C89       1.0  0.52690  0.53370  0.34475  1.0000 0.0172814526
C   C90       1.0  0.97310  0.46630  0.84475  1.0000 0.0172814526
C   C91       1.0  0.02690  0.96630  0.65525  1.0000 0.0172814526
C   C92       1.0  0.47310  0.03370  0.15525  1.0000 0.0172814526
C   C93       1.0  0.65860  0.53020  0.35149  1.0000 0.5672033395
C   C94       1.0  0.84140  0.46980  0.85149  1.0000 0.5672033395
C   C95       1.0  0.15860  0.96980  0.64851  1.0000 0.5672033395
C   C96       1.0  0.34140  0.03020  0.14851  1.0000 0.5672033395
N   N1        1.0  0.26570  0.18200  0.54101  1.0000 -0.2398417216
N   N2        1.0  0.23430  0.81800  0.04101  1.0000 -0.2398417216
N   N3        1.0  0.76570  0.31800  0.45899  1.0000 -0.2398417216
N   N4        1.0  0.73430  0.68200  0.95899  1.0000 -0.2398417216
N   N5        1.0  0.93170  0.15440  0.20251  1.0000 -0.259312648
N   N6        1.0  0.56830  0.84560  0.70251  1.0000 -0.259312648
N   N7        1.0  0.43170  0.34560  0.79749  1.0000 -0.259312648
N   N8        1.0  0.06830  0.65440  0.29749  1.0000 -0.259312648
N   N9        1.0  0.75750  0.54210  0.47677  1.0000 -0.259312648
N   N10       1.0  0.74250  0.45790  0.97677  1.0000 -0.259312648
N   N11       1.0  0.25750  0.95790  0.52323  1.0000 -0.259312648
N   N12       1.0  0.24250  0.04210  0.02323  1.0000 -0.259312648
N   N13       1.0  0.28260  0.54360  0.34269  1.0000 -0.2328117598
N   N14       1.0  0.21740  0.45640  0.84269  1.0000 -0.2328117598
N   N15       1.0  0.78260  0.95640  0.65731  1.0000 -0.2328117598
N   N16       1.0  0.71740  0.04360  0.15731  1.0000 -0.2328117598
O   O1        1.0  0.91630  0.57300  0.38498  1.0000 -0.7910051826
O   O2        1.0  0.58370  0.42700  0.88498  1.0000 -0.7910051826
O   O3        1.0  0.41630  0.92700  0.61502  1.0000 -0.7910051826
O   O4        1.0  0.08370  0.07300  0.11502  1.0000 -0.7910051826
O   O5        1.0  0.47150  0.76950  0.56333  1.0000 -0.5410927195
O   O6        1.0  0.02850  0.23050  0.06333  1.0000 -0.5410927195
O   O7        1.0  0.97150  0.73050  0.43667  1.0000 -0.5410927195
O   O8        1.0  0.52850  0.26950  0.93667  1.0000 -0.5410927195
O   O9        1.0  0.71960  0.60330  0.33633  1.0000 -0.5494809184
O   O10       1.0  0.78040  0.39670  0.83633  1.0000 -0.5494809184
O   O11       1.0  0.21960  0.89670  0.66367  1.0000 -0.5494809184
O   O12       1.0  0.28040  0.10330  0.16367  1.0000 -0.5494809184
O   O13       1.0  0.69850  0.45100  0.37352  1.0000 -0.5905169431
O   O14       1.0  0.80150  0.54900  0.87352  1.0000 -0.5905169431
O   O15       1.0  0.19850  0.04900  0.62648  1.0000 -0.5905169431
O   O16       1.0  0.30150  0.95100  0.12648  1.0000 -0.5905169431
O   O17       1.0  0.64600  0.82620  0.59254  1.0000 -0.5905169431
O   O18       1.0  0.85400  0.17380  0.09254  1.0000 -0.5905169431
O   O19       1.0  0.14600  0.67380  0.40746  1.0000 -0.5905169431
O   O20       1.0  0.35400  0.32620  0.90746  1.0000 -0.5905169431
O   O21       1.0  0.92560  0.34950  0.36743  1.0000 -0.5410927195
O   O22       1.0  0.57440  0.65050  0.86743  1.0000 -0.5410927195
O   O23       1.0  0.42560  0.15050  0.63257  1.0000 -0.5410927195
O   O24       1.0  0.07440  0.84950  0.13257  1.0000 -0.5410927195
O   O25       1.0  0.04920  0.43630  0.31623  1.0000 -0.5618289445
O   O26       1.0  0.45080  0.56370  0.81623  1.0000 -0.5618289445
O   O27       1.0  0.54920  0.06370  0.68377  1.0000 -0.5618289445
O   O28       1.0  0.95080  0.93630  0.18377  1.0000 -0.5618289445
O   O29       1.0  0.14070  0.45350  0.42034  1.0000 -0.5494809184
O   O30       1.0  0.35930  0.54650  0.92034  1.0000 -0.5494809184
O   O31       1.0  0.64070  0.04650  0.57966  1.0000 -0.5494809184
O   O32       1.0  0.85930  0.95350  0.07966  1.0000 -0.5494809184
O   O33       1.0  0.98420  0.43630  0.47309  1.0000 -0.5618289445
O   O34       1.0  0.51580  0.56370  0.97309  1.0000 -0.5618289445
O   O35       1.0  0.48420  0.06370  0.52691  1.0000 -0.5618289445
O   O36       1.0  0.01580  0.93630  0.02691  1.0000 -0.5618289445
