# DDEC6 charges by PACMAN v1.1 (https://github.com/mtap-research/PACMAN-charge/)
data_2012[Zn][pcu]3[FSR]9
_chemical_formula_sum              "Zn4 H64 C100 N4 O24"
_cell_length_a       13.289
_cell_length_b       16.467
_cell_length_c       13.711
_cell_angle_alpha    90
_cell_angle_beta     117.02
_cell_angle_gamma    90

_symmetry_space_group_name_H-M    "P 1"
_symmetry_Int_Tables_number       1

loop_
  _symmetry_equiv_pos_as_xyz
  'x, y, z'

loop_
  _atom_site_type_symbol
  _atom_site_label
  _atom_site_symmetry_multiplicity
  _atom_site_fract_x
  _atom_site_fract_y
  _atom_site_fract_z
  _atom_site_occupancy
  _atom_site_charge
Zn  Zn1       1.0  0.09252  0.50296  0.11422  1.0000 0.8359748168
Zn  Zn2       1.0  0.90748  0.00296  0.38578  1.0000 0.8359748168
Zn  Zn3       1.0  0.90748  0.49704  0.88578  1.0000 0.8359748168
Zn  Zn4       1.0  0.09252  0.99704  0.61422  1.0000 0.8359748168
H   H1        1.0  0.33550  0.52030  0.18590  1.0000 0.1200991896
H   H2        1.0  0.66450  0.02030  0.31410  1.0000 0.1200991896
H   H3        1.0  0.66450  0.47970  0.81410  1.0000 0.1200991896
H   H4        1.0  0.33550  0.97970  0.68590  1.0000 0.1200991896
H   H5        1.0  0.50670  0.51930  0.34020  1.0000 0.1301615902
H   H6        1.0  0.49330  0.01930  0.15980  1.0000 0.1301615902
H   H7        1.0  0.49330  0.48070  0.65980  1.0000 0.1301615902
H   H8        1.0  0.50670  0.98070  0.84020  1.0000 0.1301615902
H   H9        1.0  0.34180  0.47880  0.51890  1.0000 0.1301615902
H   H10       1.0  0.65820  0.97880  0.98110  1.0000 0.1301615902
H   H11       1.0  0.65820  0.52120  0.48110  1.0000 0.1301615902
H   H12       1.0  0.34180  0.02120  0.01890  1.0000 0.1301615902
H   H13       1.0  0.17540  0.47910  0.35900  1.0000 0.1200991896
H   H14       1.0  0.82460  0.97910  0.14100  1.0000 0.1200991896
H   H15       1.0  0.82460  0.52090  0.64100  1.0000 0.1200991896
H   H16       1.0  0.17540  0.02090  0.85900  1.0000 0.1200991896
H   H17       1.0  0.92500  0.34690  0.26550  1.0000 0.1200991896
H   H18       1.0  0.07500  0.84690  0.23450  1.0000 0.1200991896
H   H19       1.0  0.07500  0.65310  0.73450  1.0000 0.1200991896
H   H20       1.0  0.92500  0.15310  0.76550  1.0000 0.1200991896
H   H21       1.0  0.83750  0.23940  0.30740  1.0000 0.1200991896
H   H22       1.0  0.16250  0.73940  0.19260  1.0000 0.1200991896
H   H23       1.0  0.16250  0.76060  0.69260  1.0000 0.1200991896
H   H24       1.0  0.83750  0.26060  0.80740  1.0000 0.1200991896
H   H25       1.0  0.70570  0.15990  0.16910  1.0000 0.1200991896
H   H26       1.0  0.29430  0.65990  0.33090  1.0000 0.1200991896
H   H27       1.0  0.29430  0.84010  0.83090  1.0000 0.1200991896
H   H28       1.0  0.70570  0.34010  0.66910  1.0000 0.1200991896
H   H29       1.0  0.74530  0.29560  0.94450  1.0000 0.1301615902
H   H30       1.0  0.25470  0.79560  0.55550  1.0000 0.1301615902
H   H31       1.0  0.25470  0.70440  0.05550  1.0000 0.1301615902
H   H32       1.0  0.74530  0.20440  0.44450  1.0000 0.1301615902
H   H33       1.0  0.50940  0.29030  0.88000  1.0000 0.1371639376
H   H34       1.0  0.49060  0.79030  0.62000  1.0000 0.1371639376
H   H35       1.0  0.49060  0.70970  0.12000  1.0000 0.1371639376
H   H36       1.0  0.50940  0.20970  0.38000  1.0000 0.1371639376
H   H37       1.0  0.42490  0.33190  0.69770  1.0000 0.1301615902
H   H38       1.0  0.57510  0.83190  0.80230  1.0000 0.1301615902
H   H39       1.0  0.57510  0.66810  0.30230  1.0000 0.1301615902
H   H40       1.0  0.42490  0.16810  0.19770  1.0000 0.1301615902
H   H41       1.0  0.56630  0.14230  0.62110  1.0000 0.1371639376
H   H42       1.0  0.43370  0.64230  0.87890  1.0000 0.1371639376
H   H43       1.0  0.43370  0.85770  0.37890  1.0000 0.1371639376
H   H44       1.0  0.56630  0.35770  0.12110  1.0000 0.1371639376
H   H45       1.0  0.65150  0.10090  0.80350  1.0000 0.1301615902
H   H46       1.0  0.34850  0.60090  0.69650  1.0000 0.1301615902
H   H47       1.0  0.34850  0.89910  0.19650  1.0000 0.1301615902
H   H48       1.0  0.65150  0.39910  0.30350  1.0000 0.1301615902
H   H49       1.0  0.33320  0.32110  0.34610  1.0000 0.1200991896
H   H50       1.0  0.66680  0.82110  0.15390  1.0000 0.1200991896
H   H51       1.0  0.66680  0.67890  0.65390  1.0000 0.1200991896
H   H52       1.0  0.33320  0.17890  0.84610  1.0000 0.1200991896
H   H53       1.0  0.14850  0.29290  0.22020  1.0000 0.1200991896
H   H54       1.0  0.85150  0.79290  0.27980  1.0000 0.1200991896
H   H55       1.0  0.85150  0.70710  0.77980  1.0000 0.1200991896
H   H56       1.0  0.14850  0.20710  0.72020  1.0000 0.1200991896
H   H57       1.0  0.04180  0.20170  0.26380  1.0000 0.1128488534
H   H58       1.0  0.95820  0.70170  0.23620  1.0000 0.1128488534
H   H59       1.0  0.95820  0.79830  0.73620  1.0000 0.1128488534
H   H60       1.0  0.04180  0.29830  0.76380  1.0000 0.1128488534
H   H61       1.0  0.30230  0.17200  0.56480  1.0000 0.1301615902
H   H62       1.0  0.69770  0.67200  0.93520  1.0000 0.1301615902
H   H63       1.0  0.69770  0.82800  0.43520  1.0000 0.1301615902
H   H64       1.0  0.30230  0.32800  0.06480  1.0000 0.1301615902
C   C1        1.0  0.33711  0.51184  0.25368  1.0000 0.0862273318
C   C2        1.0  0.66289  0.01184  0.24632  1.0000 0.0862273318
C   C3        1.0  0.66289  0.48816  0.74632  1.0000 0.0862273318
C   C4        1.0  0.33711  0.98816  0.75368  1.0000 0.0862273318
C   C5        1.0  0.44061  0.51153  0.34652  1.0000 -0.1895807194
C   C6        1.0  0.55939  0.01153  0.15348  1.0000 -0.1895807194
C   C7        1.0  0.55939  0.48847  0.65348  1.0000 -0.1895807194
C   C8        1.0  0.44061  0.98847  0.84652  1.0000 -0.1895807194
C   C9        1.0  0.44564  0.49961  0.44912  1.0000 0.1128488534
C   C10       1.0  0.55436  0.99961  0.05088  1.0000 0.1200991896
C   C11       1.0  0.55436  0.50039  0.55088  1.0000 0.1128488534
C   C12       1.0  0.44564  0.00039  0.94912  1.0000 0.1128488534
C   C13       1.0  0.34293  0.48728  0.45234  1.0000 -0.1816216814
C   C14       1.0  0.65707  0.98728  0.04766  1.0000 -0.1816216814
C   C15       1.0  0.65707  0.51272  0.54766  1.0000 -0.1816216814
C   C16       1.0  0.34293  0.01272  0.95234  1.0000 -0.1816216814
C   C17       1.0  0.24283  0.48789  0.35546  1.0000 0.0978816231
C   C18       1.0  0.75717  0.98789  0.14454  1.0000 0.0978816231
C   C19       1.0  0.75717  0.51211  0.64454  1.0000 0.0978816231
C   C20       1.0  0.24283  0.01211  0.85546  1.0000 0.0978816231
C   C21       1.0  0.90274  0.39774  0.07115  1.0000 0.5842382354
C   C22       1.0  0.09726  0.89774  0.42885  1.0000 0.5842382354
C   C23       1.0  0.09726  0.60226  0.92885  1.0000 0.5842382354
C   C24       1.0  0.90274  0.10226  0.57115  1.0000 0.5842382354
C   C25       1.0  0.84412  0.33153  0.10093  1.0000 -0.0027032557
C   C26       1.0  0.15588  0.83153  0.39907  1.0000 -0.0027032557
C   C27       1.0  0.15588  0.66847  0.89907  1.0000 -0.0053581352
C   C28       1.0  0.84412  0.16847  0.60093  1.0000 -0.0027032557
C   C29       1.0  0.87195  0.31512  0.20985  1.0000 -0.1359305451
C   C30       1.0  0.12805  0.81512  0.29015  1.0000 -0.1359305451
C   C31       1.0  0.12805  0.68488  0.79015  1.0000 -0.1359305451
C   C32       1.0  0.87195  0.18488  0.70985  1.0000 -0.1359305451
C   C33       1.0  0.81942  0.25048  0.23475  1.0000 -0.0642315731
C   C34       1.0  0.18058  0.75048  0.26525  1.0000 -0.0642315731
C   C35       1.0  0.18058  0.74952  0.76525  1.0000 -0.0642315731
C   C36       1.0  0.81942  0.24952  0.73475  1.0000 -0.0642315731
C   C37       1.0  0.74062  0.20270  0.15214  1.0000 -0.196807261
C   C38       1.0  0.25938  0.70270  0.34786  1.0000 -0.196807261
C   C39       1.0  0.25938  0.79730  0.84786  1.0000 -0.196807261
C   C40       1.0  0.74062  0.29730  0.65214  1.0000 -0.196807261
C   C41       1.0  0.71420  0.21936  0.04350  1.0000 0.2609996205
C   C42       1.0  0.28580  0.71936  0.45650  1.0000 0.2609996205
C   C43       1.0  0.28580  0.78064  0.95650  1.0000 0.2609996205
C   C44       1.0  0.71420  0.28064  0.54350  1.0000 0.2609996205
C   C45       1.0  0.76452  0.28406  0.01721  1.0000 -0.2467503822
C   C46       1.0  0.23548  0.78406  0.48279  1.0000 -0.2467503822
C   C47       1.0  0.23548  0.71594  0.98279  1.0000 -0.2467503822
C   C48       1.0  0.76452  0.21594  0.51721  1.0000 -0.2467503822
C   C49       1.0  0.58927  0.19275  0.85822  1.0000 0.2302878243
C   C50       1.0  0.41073  0.69275  0.64178  1.0000 0.2302878243
C   C51       1.0  0.41073  0.80725  0.14178  1.0000 0.2302878243
C   C52       1.0  0.58927  0.30725  0.35822  1.0000 0.2302878243
C   C53       1.0  0.52117  0.26120  0.82799  1.0000 -0.1895807194
C   C54       1.0  0.47883  0.76120  0.67201  1.0000 -0.1895807194
C   C55       1.0  0.47883  0.73880  0.17201  1.0000 -0.1895807194
C   C56       1.0  0.52117  0.23880  0.32799  1.0000 -0.1895807194
C   C57       1.0  0.47070  0.28598  0.71938  1.0000 -0.1895807194
C   C58       1.0  0.52930  0.78598  0.78062  1.0000 -0.1895807194
C   C59       1.0  0.52930  0.71402  0.28062  1.0000 -0.1895807194
C   C60       1.0  0.47070  0.21402  0.21938  1.0000 -0.1895807194
C   C61       1.0  0.48981  0.24105  0.64375  1.0000 0.224005763
C   C62       1.0  0.51019  0.74105  0.85625  1.0000 0.224005763
C   C63       1.0  0.51019  0.75895  0.35625  1.0000 0.224005763
C   C64       1.0  0.48981  0.25895  0.14375  1.0000 0.224005763
C   C65       1.0  0.55587  0.17200  0.67348  1.0000 -0.1816216814
C   C66       1.0  0.44413  0.67200  0.82652  1.0000 -0.1816216814
C   C67       1.0  0.44413  0.82800  0.32652  1.0000 -0.1816216814
C   C68       1.0  0.55587  0.32800  0.17348  1.0000 -0.1816216814
C   C69       1.0  0.60661  0.14723  0.78217  1.0000 -0.1895807194
C   C70       1.0  0.39339  0.64723  0.71783  1.0000 -0.1895807194
C   C71       1.0  0.39339  0.85277  0.21783  1.0000 -0.1895807194
C   C72       1.0  0.60661  0.35277  0.28217  1.0000 -0.1895807194
C   C73       1.0  0.33519  0.24923  0.46737  1.0000 0.2609996205
C   C74       1.0  0.66481  0.74923  0.03263  1.0000 0.2609996205
C   C75       1.0  0.66481  0.75077  0.53263  1.0000 0.2609996205
C   C76       1.0  0.33519  0.25077  0.96737  1.0000 0.2609996205
C   C77       1.0  0.28978  0.28555  0.36407  1.0000 -0.2130018281
C   C78       1.0  0.71022  0.78555  0.13593  1.0000 -0.2130018281
C   C79       1.0  0.71022  0.71445  0.63593  1.0000 -0.2130018281
C   C80       1.0  0.28978  0.21445  0.86407  1.0000 -0.2130018281
C   C81       1.0  0.17966  0.26817  0.28864  1.0000 -0.0679486277
C   C82       1.0  0.82034  0.76817  0.21136  1.0000 -0.0679486277
C   C83       1.0  0.82034  0.73183  0.71136  1.0000 -0.0679486277
C   C84       1.0  0.17966  0.23183  0.78864  1.0000 -0.0679486277
C   C85       1.0  0.11538  0.21371  0.31502  1.0000 -0.1278762626
C   C86       1.0  0.88462  0.71371  0.18498  1.0000 -0.1278762626
C   C87       1.0  0.88462  0.78629  0.68498  1.0000 -0.1278762626
C   C88       1.0  0.11538  0.28629  0.81502  1.0000 -0.1278762626
C   C89       1.0  0.16128  0.17727  0.41814  1.0000 -0.0027032557
C   C90       1.0  0.83872  0.67727  0.08186  1.0000 -0.0027032557
C   C91       1.0  0.83872  0.82273  0.58186  1.0000 -0.0027032557
C   C92       1.0  0.16128  0.32273  0.91814  1.0000 -0.0027032557
C   C93       1.0  0.27170  0.19542  0.49558  1.0000 -0.2467503822
C   C94       1.0  0.72830  0.69542  0.00442  1.0000 -0.2467503822
C   C95       1.0  0.72830  0.80458  0.50442  1.0000 -0.2467503822
C   C96       1.0  0.27170  0.30458  0.99558  1.0000 -0.2467503822
C   C97       1.0  0.09400  0.11665  0.44591  1.0000 0.5884603304
C   C98       1.0  0.90600  0.61665  0.05409  1.0000 0.5884603304
C   C99       1.0  0.90600  0.88335  0.55409  1.0000 0.5884603304
C   C100      1.0  0.09400  0.38335  0.94591  1.0000 0.5884603304
N   N1        1.0  0.23879  0.50043  0.25781  1.0000 -0.2257652836
N   N2        1.0  0.76121  0.00043  0.24219  1.0000 -0.2257652836
N   N3        1.0  0.76121  0.49957  0.74219  1.0000 -0.2257652836
N   N4        1.0  0.23879  0.99957  0.75781  1.0000 -0.2257652836
O   O1        1.0  0.99217  0.42611  0.14679  1.0000 -0.538216229
O   O2        1.0  0.00783  0.92611  0.35321  1.0000 -0.538216229
O   O3        1.0  0.00783  0.57389  0.85321  1.0000 -0.538216229
O   O4        1.0  0.99217  0.07389  0.64679  1.0000 -0.538216229
O   O5        1.0  0.85917  0.41882  0.97230  1.0000 -0.5549921351
O   O6        1.0  0.14083  0.91882  0.52770  1.0000 -0.5549921351
O   O7        1.0  0.14083  0.58118  0.02770  1.0000 -0.5549921351
O   O8        1.0  0.85917  0.08118  0.47230  1.0000 -0.5549921351
O   O9        1.0  0.63924  0.16676  0.96613  1.0000 -0.2228289092
O   O10       1.0  0.36076  0.66676  0.53387  1.0000 -0.2228289092
O   O11       1.0  0.36076  0.83324  0.03387  1.0000 -0.2228289092
O   O12       1.0  0.63924  0.33324  0.46613  1.0000 -0.2228289092
O   O13       1.0  0.44554  0.26847  0.53576  1.0000 -0.2228289092
O   O14       1.0  0.55446  0.76847  0.96424  1.0000 -0.2228289092
O   O15       1.0  0.55446  0.73153  0.46424  1.0000 -0.2228289092
O   O16       1.0  0.44554  0.23153  0.03576  1.0000 -0.2228289092
O   O17       1.0  0.13586  0.09129  0.54299  1.0000 -0.5627961712
O   O18       1.0  0.86414  0.59129  0.95701  1.0000 -0.5627961712
O   O19       1.0  0.86414  0.90871  0.45701  1.0000 -0.5627961712
O   O20       1.0  0.13586  0.40871  0.04299  1.0000 -0.5627961712
O   O21       1.0  0.00072  0.09490  0.36927  1.0000 -0.538216229
O   O22       1.0  0.99928  0.59490  0.13073  1.0000 -0.538216229
O   O23       1.0  0.99928  0.90510  0.63073  1.0000 -0.538216229
O   O24       1.0  0.00072  0.40510  0.86927  1.0000 -0.538216229
