# DDEC6 charges by PACMAN v1.1 (https://github.com/mtap-research/PACMAN-charge/)
data_2012[Zn][nan]3[FSR]12
_chemical_formula_sum              "Zn18 H54 C162 O108"
_cell_length_a       25.9376
_cell_length_b       25.9376
_cell_length_c       25.9376
_cell_angle_alpha    115.259
_cell_angle_beta     115.259
_cell_angle_gamma    115.259

_symmetry_space_group_name_H-M    "P 1"
_symmetry_Int_Tables_number       1

loop_
  _symmetry_equiv_pos_as_xyz
  'x, y, z'

loop_
  _atom_site_type_symbol
  _atom_site_label
  _atom_site_symmetry_multiplicity
  _atom_site_fract_x
  _atom_site_fract_y
  _atom_site_fract_z
  _atom_site_occupancy
  _atom_site_charge
Zn  Zn1       1.0  0.85756  0.67059  0.00078  1.0000 0.9481292478
Zn  Zn2       1.0  0.67059  0.00078  0.85756  1.0000 0.9481292478
Zn  Zn3       1.0  0.00078  0.85756  0.67059  1.0000 0.9481292478
Zn  Zn4       1.0  0.14244  0.32941  0.99922  1.0000 0.9481292478
Zn  Zn5       1.0  0.32941  0.99922  0.14244  1.0000 0.9481292478
Zn  Zn6       1.0  0.99922  0.14244  0.32941  1.0000 0.9481292478
Zn  Zn7       1.0  0.64096  0.50482  0.84033  1.0000 0.9419866762
Zn  Zn8       1.0  0.50482  0.84033  0.64096  1.0000 0.9419866762
Zn  Zn9       1.0  0.84033  0.64096  0.50482  1.0000 0.9419866762
Zn  Zn10      1.0  0.35904  0.49518  0.15967  1.0000 0.9419866762
Zn  Zn11      1.0  0.49518  0.15967  0.35904  1.0000 0.9419866762
Zn  Zn12      1.0  0.15967  0.35904  0.49518  1.0000 0.9419866762
Zn  Zn13      1.0  0.47744  0.73851  0.99114  1.0000 0.9481292478
Zn  Zn14      1.0  0.73851  0.99114  0.47744  1.0000 0.9481292478
Zn  Zn15      1.0  0.99114  0.47744  0.73851  1.0000 0.9481292478
Zn  Zn16      1.0  0.52256  0.26149  0.00886  1.0000 0.9481292478
Zn  Zn17      1.0  0.26149  0.00886  0.52256  1.0000 0.9481292478
Zn  Zn18      1.0  0.00886  0.52256  0.26149  1.0000 0.9481292478
H   H1        1.0  0.61580  0.65020  0.93830  1.0000 0.139476022
H   H2        1.0  0.65020  0.93830  0.61580  1.0000 0.139476022
H   H3        1.0  0.93830  0.61580  0.65020  1.0000 0.139476022
H   H4        1.0  0.38420  0.34980  0.06170  1.0000 0.139476022
H   H5        1.0  0.34980  0.06170  0.38420  1.0000 0.139476022
H   H6        1.0  0.06170  0.38420  0.34980  1.0000 0.139476022
H   H7        1.0  0.73230  0.88510  0.12060  1.0000 0.139476022
H   H8        1.0  0.88510  0.12060  0.73230  1.0000 0.139476022
H   H9        1.0  0.12060  0.73230  0.88510  1.0000 0.139476022
H   H10       1.0  0.26770  0.11490  0.87940  1.0000 0.139476022
H   H11       1.0  0.11490  0.87940  0.26770  1.0000 0.139476022
H   H12       1.0  0.87940  0.26770  0.11490  1.0000 0.139476022
H   H13       1.0  0.86430  0.85430  0.10040  1.0000 0.139476022
H   H14       1.0  0.85430  0.10040  0.86430  1.0000 0.139476022
H   H15       1.0  0.10040  0.86430  0.85430  1.0000 0.139476022
H   H16       1.0  0.13570  0.14570  0.89960  1.0000 0.139476022
H   H17       1.0  0.14570  0.89960  0.13570  1.0000 0.139476022
H   H18       1.0  0.89960  0.13570  0.14570  1.0000 0.139476022
H   H19       1.0  0.87470  0.56550  0.08390  1.0000 0.139476022
H   H20       1.0  0.56550  0.08390  0.87470  1.0000 0.139476022
H   H21       1.0  0.08390  0.87470  0.56550  1.0000 0.139476022
H   H22       1.0  0.12530  0.43450  0.91610  1.0000 0.139476022
H   H23       1.0  0.43450  0.91610  0.12530  1.0000 0.139476022
H   H24       1.0  0.91610  0.12530  0.43450  1.0000 0.139476022
H   H25       1.0  0.76900  0.43420  0.11540  1.0000 0.1499579014
H   H26       1.0  0.43420  0.11540  0.76900  1.0000 0.1499579014
H   H27       1.0  0.11540  0.76900  0.43420  1.0000 0.1499579014
H   H28       1.0  0.23100  0.56580  0.88460  1.0000 0.1499579014
H   H29       1.0  0.56580  0.88460  0.23100  1.0000 0.1499579014
H   H30       1.0  0.88460  0.23100  0.56580  1.0000 0.1499579014
H   H31       1.0  0.63890  0.43930  0.96530  1.0000 0.139476022
H   H32       1.0  0.43930  0.96530  0.63890  1.0000 0.139476022
H   H33       1.0  0.96530  0.63890  0.43930  1.0000 0.139476022
H   H34       1.0  0.36110  0.56070  0.03470  1.0000 0.139476022
H   H35       1.0  0.56070  0.03470  0.36110  1.0000 0.139476022
H   H36       1.0  0.03470  0.36110  0.56070  1.0000 0.139476022
H   H37       1.0  0.87460  0.54960  0.85240  1.0000 0.139476022
H   H38       1.0  0.54960  0.85240  0.87460  1.0000 0.139476022
H   H39       1.0  0.85240  0.87460  0.54960  1.0000 0.139476022
H   H40       1.0  0.12540  0.45040  0.14760  1.0000 0.139476022
H   H41       1.0  0.45040  0.14760  0.12540  1.0000 0.139476022
H   H42       1.0  0.14760  0.12540  0.45040  1.0000 0.139476022
H   H43       1.0  0.74890  0.35860  0.61770  1.0000 0.139476022
H   H44       1.0  0.35860  0.61770  0.74890  1.0000 0.139476022
H   H45       1.0  0.61770  0.74890  0.35860  1.0000 0.139476022
H   H46       1.0  0.25110  0.64140  0.38230  1.0000 0.139476022
H   H47       1.0  0.64140  0.38230  0.25110  1.0000 0.139476022
H   H48       1.0  0.38230  0.25110  0.64140  1.0000 0.139476022
H   H49       1.0  0.62670  0.39490  0.65260  1.0000 0.139476022
H   H50       1.0  0.39490  0.65260  0.62670  1.0000 0.139476022
H   H51       1.0  0.65260  0.62670  0.39490  1.0000 0.139476022
H   H52       1.0  0.37330  0.60510  0.34740  1.0000 0.139476022
H   H53       1.0  0.60510  0.34740  0.37330  1.0000 0.139476022
H   H54       1.0  0.34740  0.37330  0.60510  1.0000 0.139476022
C   C1        1.0  0.74664  0.68726  0.97740  1.0000 0.608481309
C   C2        1.0  0.68726  0.97740  0.74664  1.0000 0.608481309
C   C3        1.0  0.97740  0.74664  0.68726  1.0000 0.608481309
C   C4        1.0  0.25336  0.31274  0.02260  1.0000 0.608481309
C   C5        1.0  0.31274  0.02260  0.25336  1.0000 0.608481309
C   C6        1.0  0.02260  0.25336  0.31274  1.0000 0.608481309
C   C7        1.0  0.74020  0.74333  0.01477  1.0000 -0.0304654378
C   C8        1.0  0.74333  0.01477  0.74020  1.0000 -0.0304654378
C   C9        1.0  0.01477  0.74020  0.74333  1.0000 -0.0304654378
C   C10       1.0  0.25980  0.25667  0.98523  1.0000 -0.0304654378
C   C11       1.0  0.25667  0.98523  0.25980  1.0000 -0.0304654378
C   C12       1.0  0.98523  0.25980  0.25667  1.0000 -0.0304654378
C   C13       1.0  0.66477  0.70904  0.98499  1.0000 -0.0794198178
C   C14       1.0  0.70904  0.98499  0.66477  1.0000 -0.0794198178
C   C15       1.0  0.98499  0.66477  0.70904  1.0000 -0.0794198178
C   C16       1.0  0.33523  0.29096  0.01501  1.0000 -0.0794198178
C   C17       1.0  0.29096  0.01501  0.33523  1.0000 -0.0794198178
C   C18       1.0  0.01501  0.33523  0.29096  1.0000 -0.0794198178
C   C19       1.0  0.66082  0.76168  0.02420  1.0000 0.0085561181
C   C20       1.0  0.76168  0.02420  0.66082  1.0000 0.0085561181
C   C21       1.0  0.02420  0.66082  0.76168  1.0000 0.0085561181
C   C22       1.0  0.33918  0.23832  0.97580  1.0000 0.0085561181
C   C23       1.0  0.23832  0.97580  0.33918  1.0000 0.0085561181
C   C24       1.0  0.97580  0.33918  0.23832  1.0000 0.0085561181
C   C25       1.0  0.73417  0.84985  0.09278  1.0000 -0.0794198178
C   C26       1.0  0.84985  0.09278  0.73417  1.0000 -0.0794198178
C   C27       1.0  0.09278  0.73417  0.84985  1.0000 -0.0794198178
C   C28       1.0  0.26583  0.15015  0.90722  1.0000 -0.0794198178
C   C29       1.0  0.15015  0.90722  0.26583  1.0000 -0.0794198178
C   C30       1.0  0.90722  0.26583  0.15015  1.0000 -0.0794198178
C   C31       1.0  0.81132  0.88621  0.12057  1.0000 -0.0304654378
C   C32       1.0  0.88621  0.12057  0.81132  1.0000 -0.0304654378
C   C33       1.0  0.12057  0.81132  0.88621  1.0000 -0.0304654378
C   C34       1.0  0.18868  0.11379  0.87943  1.0000 -0.0304654378
C   C35       1.0  0.11379  0.87943  0.18868  1.0000 -0.0304654378
C   C36       1.0  0.87943  0.18868  0.11379  1.0000 -0.0304654378
C   C37       1.0  0.81365  0.83180  0.08175  1.0000 -0.0794198178
C   C38       1.0  0.83180  0.08175  0.81365  1.0000 -0.0794198178
C   C39       1.0  0.08175  0.81365  0.83180  1.0000 -0.0794198178
C   C40       1.0  0.18635  0.16820  0.91825  1.0000 -0.0794198178
C   C41       1.0  0.16820  0.91825  0.18635  1.0000 -0.0794198178
C   C42       1.0  0.91825  0.18635  0.16820  1.0000 -0.0794198178
C   C43       1.0  0.57697  0.72390  0.99073  1.0000 0.5400811363
C   C44       1.0  0.72390  0.99073  0.57697  1.0000 0.5400811363
C   C45       1.0  0.99073  0.57697  0.72390  1.0000 0.5400811363
C   C46       1.0  0.42303  0.27610  0.00927  1.0000 0.5400811363
C   C47       1.0  0.27610  0.00927  0.42303  1.0000 0.5400811363
C   C48       1.0  0.00927  0.42303  0.27610  1.0000 0.5400811363
C   C49       1.0  0.88697  0.97960  0.19213  1.0000 0.5552445016
C   C50       1.0  0.97960  0.19213  0.88697  1.0000 0.5511901867
C   C51       1.0  0.19213  0.88697  0.97960  1.0000 0.5511901867
C   C52       1.0  0.11303  0.02040  0.80787  1.0000 0.5511901867
C   C53       1.0  0.02040  0.80787  0.11303  1.0000 0.5511901867
C   C54       1.0  0.80787  0.11303  0.02040  1.0000 0.5511901867
C   C55       1.0  0.74911  0.53260  0.97659  1.0000 0.608481309
C   C56       1.0  0.53260  0.97659  0.74911  1.0000 0.608481309
C   C57       1.0  0.97659  0.74911  0.53260  1.0000 0.608481309
C   C58       1.0  0.25089  0.46740  0.02341  1.0000 0.608481309
C   C59       1.0  0.46740  0.02341  0.25089  1.0000 0.608481309
C   C60       1.0  0.02341  0.25089  0.46740  1.0000 0.608481309
C   C61       1.0  0.75539  0.50543  0.01788  1.0000 -0.0165141238
C   C62       1.0  0.50543  0.01788  0.75539  1.0000 -0.0165141238
C   C63       1.0  0.01788  0.75539  0.50543  1.0000 -0.0165141238
C   C64       1.0  0.24461  0.49457  0.98212  1.0000 -0.0165141238
C   C65       1.0  0.49457  0.98212  0.24461  1.0000 -0.0165141238
C   C66       1.0  0.98212  0.24461  0.49457  1.0000 -0.0165141238
C   C67       1.0  0.82825  0.52945  0.07100  1.0000 -0.0875280137
C   C68       1.0  0.52945  0.07100  0.82825  1.0000 -0.0875280137
C   C69       1.0  0.07100  0.82825  0.52945  1.0000 -0.0875280137
C   C70       1.0  0.17175  0.47055  0.92900  1.0000 -0.0875280137
C   C71       1.0  0.47055  0.92900  0.17175  1.0000 -0.0875280137
C   C72       1.0  0.92900  0.17175  0.47055  1.0000 -0.0875280137
C   C73       1.0  0.83332  0.50096  0.10522  1.0000 0.0085561181
C   C74       1.0  0.50096  0.10522  0.83332  1.0000 0.0085561181
C   C75       1.0  0.10522  0.83332  0.50096  1.0000 0.0085561181
C   C76       1.0  0.16668  0.49904  0.89478  1.0000 0.0085561181
C   C77       1.0  0.49904  0.89478  0.16668  1.0000 0.0085561181
C   C78       1.0  0.89478  0.16668  0.49904  1.0000 0.0085561181
C   C79       1.0  0.76547  0.45205  0.09088  1.0000 -0.0875280137
C   C80       1.0  0.45205  0.09088  0.76547  1.0000 -0.0875280137
C   C81       1.0  0.09088  0.76547  0.45205  1.0000 -0.0875280137
C   C82       1.0  0.23453  0.54795  0.90912  1.0000 -0.0875280137
C   C83       1.0  0.54795  0.90912  0.23453  1.0000 -0.0875280137
C   C84       1.0  0.90912  0.23453  0.54795  1.0000 -0.0875280137
C   C85       1.0  0.69306  0.43031  0.04013  1.0000 0.0025441412
C   C86       1.0  0.43031  0.04013  0.69306  1.0000 0.0025441412
C   C87       1.0  0.04013  0.69306  0.43031  1.0000 0.0025441412
C   C88       1.0  0.30694  0.56969  0.95987  1.0000 0.0025441412
C   C89       1.0  0.56969  0.95987  0.30694  1.0000 0.0025441412
C   C90       1.0  0.95987  0.30694  0.56969  1.0000 0.0025441412
C   C91       1.0  0.68822  0.45603  0.00185  1.0000 -0.0875280137
C   C92       1.0  0.45603  0.00185  0.68822  1.0000 -0.0875280137
C   C93       1.0  0.00185  0.68822  0.45603  1.0000 -0.0875280137
C   C94       1.0  0.31178  0.54397  0.99815  1.0000 -0.0875280137
C   C95       1.0  0.54397  0.99815  0.31178  1.0000 -0.0875280137
C   C96       1.0  0.99815  0.31178  0.54397  1.0000 -0.0875280137
C   C97       1.0  0.91105  0.52341  0.15864  1.0000 0.5400811363
C   C98       1.0  0.52341  0.15864  0.91105  1.0000 0.5400811363
C   C99       1.0  0.15864  0.91105  0.52341  1.0000 0.5400811363
C   C100      1.0  0.08895  0.47659  0.84136  1.0000 0.5400811363
C   C101      1.0  0.47659  0.84136  0.08895  1.0000 0.5400811363
C   C102      1.0  0.84136  0.08895  0.47659  1.0000 0.5400811363
C   C103      1.0  0.62097  0.38019  0.02644  1.0000 0.5400811363
C   C104      1.0  0.38019  0.02644  0.62097  1.0000 0.5400811363
C   C105      1.0  0.02644  0.62097  0.38019  1.0000 0.5400811363
C   C106      1.0  0.37903  0.61981  0.97356  1.0000 0.5400811363
C   C107      1.0  0.61981  0.97356  0.37903  1.0000 0.5400811363
C   C108      1.0  0.97356  0.37903  0.61981  1.0000 0.5400811363
C   C109      1.0  0.75118  0.52590  0.82282  1.0000 0.6037361585
C   C110      1.0  0.52590  0.82282  0.75118  1.0000 0.6037361585
C   C111      1.0  0.82282  0.75118  0.52590  1.0000 0.6037361585
C   C112      1.0  0.24882  0.47410  0.17718  1.0000 0.6037361585
C   C113      1.0  0.47410  0.17718  0.24882  1.0000 0.6037361585
C   C114      1.0  0.17718  0.24882  0.47410  1.0000 0.6037361585
C   C115      1.0  0.75101  0.47891  0.76318  1.0000 -0.0165141238
C   C116      1.0  0.47891  0.76318  0.75101  1.0000 -0.0165141238
C   C117      1.0  0.76318  0.75101  0.47891  1.0000 -0.0165141238
C   C118      1.0  0.24899  0.52109  0.23682  1.0000 -0.0165141238
C   C119      1.0  0.52109  0.23682  0.24899  1.0000 -0.0165141238
C   C120      1.0  0.23682  0.24899  0.52109  1.0000 -0.0165141238
C   C121      1.0  0.82384  0.50201  0.79415  1.0000 -0.0875280137
C   C122      1.0  0.50201  0.79415  0.82384  1.0000 -0.0875280137
C   C123      1.0  0.79415  0.82384  0.50201  1.0000 -0.0875280137
C   C124      1.0  0.17616  0.49799  0.20585  1.0000 -0.0875280137
C   C125      1.0  0.49799  0.20585  0.17616  1.0000 -0.0875280137
C   C126      1.0  0.20585  0.17616  0.49799  1.0000 -0.0875280137
C   C127      1.0  0.82275  0.45682  0.74143  1.0000 0.0085561181
C   C128      1.0  0.45682  0.74143  0.82275  1.0000 0.0085561181
C   C129      1.0  0.74143  0.82275  0.45682  1.0000 0.0085561181
C   C130      1.0  0.17725  0.54318  0.25857  1.0000 0.0085561181
C   C131      1.0  0.54318  0.25857  0.17725  1.0000 0.0085561181
C   C132      1.0  0.25857  0.17725  0.54318  1.0000 0.0085561181
C   C133      1.0  0.67560  0.36440  0.62130  1.0000 -0.000619738
C   C134      1.0  0.36440  0.62130  0.67560  1.0000 -0.000619738
C   C135      1.0  0.62130  0.67560  0.36440  1.0000 -0.000619738
C   C136      1.0  0.32440  0.63560  0.37870  1.0000 -0.000619738
C   C137      1.0  0.63560  0.37870  0.32440  1.0000 -0.000619738
C   C138      1.0  0.37870  0.32440  0.63560  1.0000 -0.000619738
C   C139      1.0  0.74900  0.38840  0.65410  1.0000 -0.0794198178
C   C140      1.0  0.38840  0.65410  0.74900  1.0000 -0.0794198178
C   C141      1.0  0.65410  0.74900  0.38840  1.0000 -0.0794198178
C   C142      1.0  0.25100  0.61160  0.34590  1.0000 -0.0794198178
C   C143      1.0  0.61160  0.34590  0.25100  1.0000 -0.0794198178
C   C144      1.0  0.34590  0.25100  0.61160  1.0000 -0.0794198178
C   C145      1.0  0.67590  0.40990  0.67480  1.0000 -0.0875280137
C   C146      1.0  0.40990  0.67480  0.67590  1.0000 -0.0875280137
C   C147      1.0  0.67480  0.67590  0.40990  1.0000 -0.0875280137
C   C148      1.0  0.32410  0.59010  0.32520  1.0000 -0.0875280137
C   C149      1.0  0.59010  0.32520  0.32410  1.0000 -0.0875280137
C   C150      1.0  0.32520  0.32410  0.59010  1.0000 -0.0875280137
C   C151      1.0  0.59680  0.29380  0.52500  1.0000 0.5511901867
C   C152      1.0  0.29380  0.52500  0.59680  1.0000 0.5511901867
C   C153      1.0  0.52500  0.59680  0.29380  1.0000 0.5511901867
C   C154      1.0  0.40320  0.70620  0.47500  1.0000 0.5511901867
C   C155      1.0  0.70620  0.47500  0.40320  1.0000 0.5511901867
C   C156      1.0  0.47500  0.40320  0.70620  1.0000 0.5511901867
C   C157      1.0  0.90538  0.48453  0.77659  1.0000 0.5511901867
C   C158      1.0  0.48453  0.77659  0.90538  1.0000 0.5511901867
C   C159      1.0  0.77659  0.90538  0.48453  1.0000 0.5511901867
C   C160      1.0  0.09462  0.51547  0.22341  1.0000 0.5511901867
C   C161      1.0  0.51547  0.22341  0.09462  1.0000 0.5511901867
C   C162      1.0  0.22341  0.09462  0.51547  1.0000 0.5511901867
O   O1        1.0  0.81840  0.71925  0.01285  1.0000 -0.5275360128
O   O2        1.0  0.71925  0.01285  0.81840  1.0000 -0.5275360128
O   O3        1.0  0.01285  0.81840  0.71925  1.0000 -0.5275360128
O   O4        1.0  0.18160  0.28075  0.98715  1.0000 -0.5275360128
O   O5        1.0  0.28075  0.98715  0.18160  1.0000 -0.5275360128
O   O6        1.0  0.98715  0.18160  0.28075  1.0000 -0.5275360128
O   O7        1.0  0.67619  0.60871  0.90890  1.0000 -0.5357891955
O   O8        1.0  0.60871  0.90890  0.67619  1.0000 -0.5357891955
O   O9        1.0  0.90890  0.67619  0.60871  1.0000 -0.5275360128
O   O10       1.0  0.32381  0.39129  0.09110  1.0000 -0.5357891955
O   O11       1.0  0.39129  0.09110  0.32381  1.0000 -0.5357891955
O   O12       1.0  0.09110  0.32381  0.39129  1.0000 -0.5357891955
O   O13       1.0  0.50946  0.64904  0.92010  1.0000 -0.4128048309
O   O14       1.0  0.64904  0.92010  0.50946  1.0000 -0.4128048309
O   O15       1.0  0.92010  0.50946  0.64904  1.0000 -0.4128048309
O   O16       1.0  0.49054  0.35096  0.07990  1.0000 -0.4128048309
O   O17       1.0  0.35096  0.07990  0.49054  1.0000 -0.4128048309
O   O18       1.0  0.07990  0.49054  0.35096  1.0000 -0.4128048309
O   O19       1.0  0.58347  0.77464  0.04209  1.0000 -0.4757834313
O   O20       1.0  0.77464  0.04209  0.58347  1.0000 -0.4757834313
O   O21       1.0  0.04209  0.58347  0.77464  1.0000 -0.4757834313
O   O22       1.0  0.41653  0.22536  0.95791  1.0000 -0.4757834313
O   O23       1.0  0.22536  0.95791  0.41653  1.0000 -0.4757834313
O   O24       1.0  0.95791  0.41653  0.22536  1.0000 -0.4757834313
O   O25       1.0  0.89057  0.02327  0.24296  1.0000 -0.4610770808
O   O26       1.0  0.02327  0.24296  0.89057  1.0000 -0.4676177122
O   O27       1.0  0.24296  0.89057  0.02327  1.0000 -0.4676177122
O   O28       1.0  0.10943  0.97673  0.75704  1.0000 -0.4676177122
O   O29       1.0  0.97673  0.75704  0.10943  1.0000 -0.4676177122
O   O30       1.0  0.75704  0.10943  0.97673  1.0000 -0.4676177122
O   O31       1.0  0.94785  0.01584  0.20361  1.0000 -0.4361178913
O   O32       1.0  0.01584  0.20361  0.94785  1.0000 -0.4348115899
O   O33       1.0  0.20361  0.94785  0.01584  1.0000 -0.4348115899
O   O34       1.0  0.05215  0.98416  0.79639  1.0000 -0.4348115899
O   O35       1.0  0.98416  0.79639  0.05215  1.0000 -0.4348115899
O   O36       1.0  0.79639  0.05215  0.98416  1.0000 -0.4348115899
O   O37       1.0  0.67797  0.49316  0.91377  1.0000 -0.5007611352
O   O38       1.0  0.49316  0.91377  0.67797  1.0000 -0.5007611352
O   O39       1.0  0.91377  0.67797  0.49316  1.0000 -0.5007611352
O   O40       1.0  0.32203  0.50684  0.08623  1.0000 -0.5007611352
O   O41       1.0  0.50684  0.08623  0.32203  1.0000 -0.5007611352
O   O42       1.0  0.08623  0.32203  0.50684  1.0000 -0.5007611352
O   O43       1.0  0.81833  0.59620  0.01177  1.0000 -0.5235851644
O   O44       1.0  0.59620  0.01177  0.81833  1.0000 -0.5235851644
O   O45       1.0  0.01177  0.81833  0.59620  1.0000 -0.5235851644
O   O46       1.0  0.18167  0.40380  0.98823  1.0000 -0.5235851644
O   O47       1.0  0.40380  0.98823  0.18167  1.0000 -0.5235851644
O   O48       1.0  0.98823  0.18167  0.40380  1.0000 -0.5235851644
O   O49       1.0  0.90331  0.48070  0.17399  1.0000 -0.4757834313
O   O50       1.0  0.48070  0.17399  0.90331  1.0000 -0.4757834313
O   O51       1.0  0.17399  0.90331  0.48070  1.0000 -0.4757834313
O   O52       1.0  0.09669  0.51930  0.82601  1.0000 -0.4757834313
O   O53       1.0  0.51930  0.82601  0.09669  1.0000 -0.4757834313
O   O54       1.0  0.82601  0.09669  0.51930  1.0000 -0.4757834313
O   O55       1.0  0.97459  0.57627  0.18144  1.0000 -0.4014585327
O   O56       1.0  0.57627  0.18144  0.97459  1.0000 -0.3943084686
O   O57       1.0  0.18144  0.97459  0.57627  1.0000 -0.4014585327
O   O58       1.0  0.02541  0.42373  0.81856  1.0000 -0.4014585327
O   O59       1.0  0.42373  0.81856  0.02541  1.0000 -0.4014585327
O   O60       1.0  0.81856  0.02541  0.42373  1.0000 -0.4014585327
O   O61       1.0  0.55587  0.35873  0.97890  1.0000 -0.4014585327
O   O62       1.0  0.35873  0.97890  0.55587  1.0000 -0.4014585327
O   O63       1.0  0.97890  0.55587  0.35873  1.0000 -0.4014585327
O   O64       1.0  0.44413  0.64127  0.02110  1.0000 -0.4014585327
O   O65       1.0  0.64127  0.02110  0.44413  1.0000 -0.4014585327
O   O66       1.0  0.02110  0.44413  0.64127  1.0000 -0.4014585327
O   O67       1.0  0.63154  0.36162  0.06444  1.0000 -0.4541016631
O   O68       1.0  0.36162  0.06444  0.63154  1.0000 -0.4541016631
O   O69       1.0  0.06444  0.63154  0.36162  1.0000 -0.4541016631
O   O70       1.0  0.36846  0.63838  0.93556  1.0000 -0.4541016631
O   O71       1.0  0.63838  0.93556  0.36846  1.0000 -0.4541016631
O   O72       1.0  0.93556  0.36846  0.63838  1.0000 -0.4541016631
O   O73       1.0  0.68119  0.49325  0.79226  1.0000 -0.5235851644
O   O74       1.0  0.49325  0.79226  0.68119  1.0000 -0.5235851644
O   O75       1.0  0.79226  0.68119  0.49325  1.0000 -0.5235851644
O   O76       1.0  0.31881  0.50675  0.20774  1.0000 -0.5235851644
O   O77       1.0  0.50675  0.20774  0.31881  1.0000 -0.5235851644
O   O78       1.0  0.20774  0.31881  0.50675  1.0000 -0.5235851644
O   O79       1.0  0.82309  0.59669  0.89762  1.0000 -0.5235851644
O   O80       1.0  0.59669  0.89762  0.82309  1.0000 -0.5235851644
O   O81       1.0  0.89762  0.82309  0.59669  1.0000 -0.5235851644
O   O82       1.0  0.17691  0.40331  0.10238  1.0000 -0.5235851644
O   O83       1.0  0.40331  0.10238  0.17691  1.0000 -0.5235851644
O   O84       1.0  0.10238  0.17691  0.40331  1.0000 -0.5235851644
O   O85       1.0  0.53760  0.28380  0.49580  1.0000 -0.4128048309
O   O86       1.0  0.28380  0.49580  0.53760  1.0000 -0.4128048309
O   O87       1.0  0.49580  0.53760  0.28380  1.0000 -0.4128048309
O   O88       1.0  0.46240  0.71620  0.50420  1.0000 -0.4128048309
O   O89       1.0  0.71620  0.50420  0.46240  1.0000 -0.4128048309
O   O90       1.0  0.50420  0.46240  0.71620  1.0000 -0.4128048309
O   O91       1.0  0.59774  0.25136  0.48070  1.0000 -0.4541016631
O   O92       1.0  0.25136  0.48070  0.59774  1.0000 -0.4541016631
O   O93       1.0  0.48070  0.59774  0.25136  1.0000 -0.4541016631
O   O94       1.0  0.40226  0.74864  0.51930  1.0000 -0.4541016631
O   O95       1.0  0.74864  0.51930  0.40226  1.0000 -0.4541016631
O   O96       1.0  0.51930  0.40226  0.74864  1.0000 -0.4541016631
O   O97       1.0  0.89726  0.43732  0.72242  1.0000 -0.4610770808
O   O98       1.0  0.43732  0.72242  0.89726  1.0000 -0.4610770808
O   O99       1.0  0.72242  0.89726  0.43732  1.0000 -0.4610770808
O   O100      1.0  0.10274  0.56268  0.27758  1.0000 -0.4610770808
O   O101      1.0  0.56268  0.27758  0.10274  1.0000 -0.4610770808
O   O102      1.0  0.27758  0.10274  0.56268  1.0000 -0.4610770808
O   O103      1.0  0.97249  0.55019  0.85382  1.0000 -0.3943084686
O   O104      1.0  0.55019  0.85382  0.97249  1.0000 -0.3943084686
O   O105      1.0  0.85382  0.97249  0.55019  1.0000 -0.3943084686
O   O106      1.0  0.02751  0.44981  0.14618  1.0000 -0.3943084686
O   O107      1.0  0.44981  0.14618  0.02751  1.0000 -0.3943084686
O   O108      1.0  0.14618  0.02751  0.44981  1.0000 -0.3943084686
