# DDEC6 charges by PACMAN v1.1 (https://github.com/mtap-research/PACMAN-charge/)
data_2012[Zn][srs]3[FSR]1
_chemical_formula_sum              "Zn8 H176 C232 N24 O48"
_cell_length_a       21.1459
_cell_length_b       21.1459
_cell_length_c       21.1459
_cell_angle_alpha    99.5206
_cell_angle_beta     99.5206
_cell_angle_gamma    132.005

_symmetry_space_group_name_H-M    "P 1"
_symmetry_Int_Tables_number       1

loop_
  _symmetry_equiv_pos_as_xyz
  'x, y, z'

loop_
  _atom_site_type_symbol
  _atom_site_label
  _atom_site_symmetry_multiplicity
  _atom_site_fract_x
  _atom_site_fract_y
  _atom_site_fract_z
  _atom_site_occupancy
  _atom_site_charge
Zn  Zn1       1.0  0.98680  0.48279  0.21431  1.0000 0.737668304
Zn  Zn2       1.0  0.02249  0.73680  0.00401  1.0000 0.737668304
Zn  Zn3       1.0  0.26848  0.77249  0.78569  1.0000 0.737668304
Zn  Zn4       1.0  0.73279  0.01848  0.99599  1.0000 0.737668304
Zn  Zn5       1.0  0.26320  0.26721  0.28569  1.0000 0.737668304
Zn  Zn6       1.0  0.22751  0.01320  0.49599  1.0000 0.737668304
Zn  Zn7       1.0  0.98152  0.97751  0.71431  1.0000 0.737668304
Zn  Zn8       1.0  0.51721  0.73152  0.50401  1.0000 0.737668304
H   H1        1.0  0.97140  0.33990  0.20050  1.0000 0.3513614295
H   H2        1.0  0.02090  0.72140  0.13150  1.0000 0.3513614295
H   H3        1.0  0.13940  0.77090  0.79950  1.0000 0.3513614295
H   H4        1.0  0.58990  0.88940  0.86850  1.0000 0.3513614295
H   H5        1.0  0.88260  0.30490  0.18770  1.0000 0.3432008608
H   H6        1.0  0.94490  0.63260  0.07770  1.0000 0.3432008608
H   H7        1.0  0.11720  0.69490  0.81230  1.0000 0.3432008608
H   H8        1.0  0.55490  0.86720  0.92230  1.0000 0.3432008608
H   H9        1.0  0.26870  0.80720  0.25010  1.0000 0.1100946024
H   H10       1.0  0.26860  0.01870  0.96150  1.0000 0.1100946024
H   H11       1.0  0.55710  0.01860  0.74990  1.0000 0.1100946024
H   H12       1.0  0.05720  0.30710  0.03850  1.0000 0.1100946024
H   H13       1.0  0.42780  0.91830  0.27850  1.0000 0.128322494
H   H14       1.0  0.39930  0.17780  0.00950  1.0000 0.128322494
H   H15       1.0  0.63980  0.14930  0.72150  1.0000 0.128322494
H   H16       1.0  0.16830  0.38980  0.99050  1.0000 0.128322494
H   H17       1.0  0.43100  0.73830  0.28190  1.0000 0.128322494
H   H18       1.0  0.39910  0.18100  0.19270  1.0000 0.128322494
H   H19       1.0  0.45640  0.14910  0.71810  1.0000 0.128322494
H   H20       1.0  0.98830  0.20640  0.80730  1.0000 0.128322494
H   H21       1.0  0.27180  0.62320  0.25420  1.0000 0.128322494
H   H22       1.0  0.26760  0.02180  0.14860  1.0000 0.128322494
H   H23       1.0  0.36900  0.01760  0.74580  1.0000 0.128322494
H   H24       1.0  0.87320  0.11900  0.85140  1.0000 0.128322494
H   H25       1.0  0.46110  0.81670  0.17000  1.0000 0.120197779
H   H26       1.0  0.54110  0.21110  0.14440  1.0000 0.120197779
H   H27       1.0  0.64670  0.29110  0.83000  1.0000 0.120197779
H   H28       1.0  0.06670  0.39670  0.85560  1.0000 0.120197779
H   H29       1.0  0.53780  0.86360  0.09600  1.0000 0.120197779
H   H30       1.0  0.69180  0.28780  0.17420  1.0000 0.120197779
H   H31       1.0  0.76760  0.44180  0.90400  1.0000 0.120197779
H   H32       1.0  0.11360  0.51760  0.82580  1.0000 0.120197779
H   H33       1.0  0.76520  0.08520  0.25120  1.0000 0.120197779
H   H34       1.0  0.76400  0.51520  0.18000  1.0000 0.120197779
H   H35       1.0  0.83400  0.51400  0.74880  1.0000 0.120197779
H   H36       1.0  0.33520  0.58400  0.82000  1.0000 0.120197779
H   H37       1.0  0.69360  0.03960  0.32700  1.0000 0.1529698281
H   H38       1.0  0.61660  0.44360  0.15400  1.0000 0.1529698281
H   H39       1.0  0.71260  0.36660  0.67300  1.0000 0.1529698281
H   H40       1.0  0.28960  0.46260  0.84600  1.0000 0.1529698281
H   H41       1.0  0.94290  0.52580  0.09430  1.0000 0.1002595473
H   H42       1.0  0.09860  0.69290  0.91710  1.0000 0.1002595473
H   H43       1.0  0.43150  0.84860  0.90570  1.0000 0.1002595473
H   H44       1.0  0.77580  0.18150  0.08290  1.0000 0.1002595473
H   H45       1.0  0.91380  0.48650  0.98030  1.0000 0.128322494
H   H46       1.0  0.18350  0.66380  0.92730  1.0000 0.128322494
H   H47       1.0  0.50620  0.93350  0.01970  1.0000 0.128322494
H   H48       1.0  0.73650  0.25620  0.07270  1.0000 0.128322494
H   H49       1.0  0.92530  0.30720  0.99030  1.0000 0.128322494
H   H50       1.0  0.18500  0.67530  0.11810  1.0000 0.128322494
H   H51       1.0  0.31690  0.93500  0.00970  1.0000 0.128322494
H   H52       1.0  0.55720  0.06690  0.88190  1.0000 0.128322494
H   H53       1.0  0.95730  0.35400  0.10390  1.0000 0.1002595473
H   H54       1.0  0.10340  0.70730  0.10330  1.0000 0.1002595473
H   H55       1.0  0.25010  0.85340  0.89610  1.0000 0.1002595473
H   H56       1.0  0.60400  0.00010  0.89670  1.0000 0.1002595473
H   H57       1.0  0.95070  0.47700  0.88410  1.0000 0.128322494
H   H58       1.0  0.31660  0.70070  0.97370  1.0000 0.128322494
H   H59       1.0  0.59290  0.06660  0.11590  1.0000 0.128322494
H   H60       1.0  0.72700  0.34290  0.02630  1.0000 0.128322494
H   H61       1.0  0.92000  0.42700  0.76820  1.0000 0.1100946024
H   H62       1.0  0.40180  0.67000  0.99300  1.0000 0.1100946024
H   H63       1.0  0.65880  0.15180  0.23180  1.0000 0.1100946024
H   H64       1.0  0.67700  0.40880  0.00700  1.0000 0.1100946024
H   H65       1.0  0.79790  0.18820  0.76050  1.0000 0.1100946024
H   H66       1.0  0.28740  0.54790  0.10970  1.0000 0.1100946024
H   H67       1.0  0.42770  0.03740  0.23950  1.0000 0.1100946024
H   H68       1.0  0.43820  0.17770  0.89030  1.0000 0.1100946024
H   H69       1.0  0.82510  0.23080  0.87970  1.0000 0.128322494
H   H70       1.0  0.19540  0.57510  0.09430  1.0000 0.128322494
H   H71       1.0  0.35110  0.94540  0.12030  1.0000 0.128322494
H   H72       1.0  0.48080  0.10110  0.90570  1.0000 0.128322494
H   H73       1.0  0.01650  0.60900  0.32850  1.0000 0.120197779
H   H74       1.0  0.93800  0.76650  0.90750  1.0000 0.120197779
H   H75       1.0  0.28050  0.68800  0.67150  1.0000 0.120197779
H   H76       1.0  0.85900  0.03050  0.09250  1.0000 0.120197779
H   H77       1.0  0.06790  0.66730  0.44460  1.0000 0.128322494
H   H78       1.0  0.87330  0.81790  0.90060  1.0000 0.128322494
H   H79       1.0  0.22270  0.62330  0.55540  1.0000 0.128322494
H   H80       1.0  0.91730  0.97270  0.09940  1.0000 0.128322494
H   H81       1.0  0.12450  0.52310  0.44660  1.0000 0.1380118711
H   H82       1.0  0.92790  0.87450  0.10140  1.0000 0.1380118711
H   H83       1.0  0.07650  0.67790  0.55340  1.0000 0.1380118711
H   H84       1.0  0.77310  0.82650  0.89860  1.0000 0.1380118711
H   H85       1.0  0.06670  0.46830  0.33140  1.0000 0.1100946024
H   H86       1.0  0.98530  0.81670  0.09840  1.0000 0.1100946024
H   H87       1.0  0.13690  0.73530  0.66860  1.0000 0.1100946024
H   H88       1.0  0.71830  0.88690  0.90160  1.0000 0.1100946024
H   H89       1.0  0.27860  0.41010  0.29950  1.0000 0.3513614295
H   H90       1.0  0.22910  0.02860  0.36850  1.0000 0.3513614295
H   H91       1.0  0.11060  0.97910  0.70050  1.0000 0.3513614295
H   H92       1.0  0.66010  0.86060  0.63150  1.0000 0.3513614295
H   H93       1.0  0.36740  0.44510  0.31230  1.0000 0.3432008608
H   H94       1.0  0.30510  0.11740  0.42230  1.0000 0.3432008608
H   H95       1.0  0.13280  0.05510  0.68770  1.0000 0.3432008608
H   H96       1.0  0.69510  0.88280  0.57770  1.0000 0.3432008608
H   H97       1.0  0.98130  0.94280  0.24990  1.0000 0.1100946024
H   H98       1.0  0.98140  0.73130  0.53850  1.0000 0.1100946024
H   H99       1.0  0.69290  0.73140  0.75010  1.0000 0.1100946024
H   H100      1.0  0.19280  0.44290  0.46150  1.0000 0.1100946024
H   H101      1.0  0.82220  0.83170  0.22150  1.0000 0.128322494
H   H102      1.0  0.85070  0.57220  0.49050  1.0000 0.128322494
H   H103      1.0  0.61020  0.60070  0.77850  1.0000 0.128322494
H   H104      1.0  0.08170  0.36020  0.50950  1.0000 0.128322494
H   H105      1.0  0.81900  0.01170  0.21810  1.0000 0.128322494
H   H106      1.0  0.85090  0.56900  0.30730  1.0000 0.128322494
H   H107      1.0  0.79360  0.60090  0.78190  1.0000 0.128322494
H   H108      1.0  0.26170  0.54360  0.69270  1.0000 0.128322494
H   H109      1.0  0.97820  0.12680  0.24580  1.0000 0.128322494
H   H110      1.0  0.98240  0.72820  0.35140  1.0000 0.128322494
H   H111      1.0  0.88100  0.73240  0.75420  1.0000 0.128322494
H   H112      1.0  0.37680  0.63100  0.64860  1.0000 0.128322494
H   H113      1.0  0.78890  0.93330  0.33000  1.0000 0.120197779
H   H114      1.0  0.70890  0.53890  0.35560  1.0000 0.120197779
H   H115      1.0  0.60330  0.45890  0.67000  1.0000 0.120197779
H   H116      1.0  0.18330  0.35330  0.64440  1.0000 0.120197779
H   H117      1.0  0.71220  0.88640  0.40400  1.0000 0.120197779
H   H118      1.0  0.55820  0.46220  0.32580  1.0000 0.120197779
H   H119      1.0  0.48240  0.30820  0.59600  1.0000 0.120197779
H   H120      1.0  0.13640  0.23240  0.67420  1.0000 0.120197779
H   H121      1.0  0.48480  0.66480  0.24880  1.0000 0.120197779
H   H122      1.0  0.48600  0.23480  0.32000  1.0000 0.120197779
H   H123      1.0  0.41600  0.23600  0.75120  1.0000 0.120197779
H   H124      1.0  0.91480  0.16600  0.68000  1.0000 0.120197779
H   H125      1.0  0.55640  0.71040  0.17300  1.0000 0.1529698281
H   H126      1.0  0.63340  0.30640  0.34600  1.0000 0.1529698281
H   H127      1.0  0.53740  0.38340  0.82700  1.0000 0.1529698281
H   H128      1.0  0.96040  0.28740  0.65400  1.0000 0.1529698281
H   H129      1.0  0.30710  0.22420  0.40570  1.0000 0.1002595473
H   H130      1.0  0.15140  0.05710  0.58290  1.0000 0.1002595473
H   H131      1.0  0.81850  0.90140  0.59430  1.0000 0.1002595473
H   H132      1.0  0.47420  0.56850  0.41710  1.0000 0.1002595473
H   H133      1.0  0.33620  0.26350  0.51970  1.0000 0.128322494
H   H134      1.0  0.06650  0.08620  0.57270  1.0000 0.128322494
H   H135      1.0  0.74380  0.81650  0.48030  1.0000 0.128322494
H   H136      1.0  0.51350  0.49380  0.42730  1.0000 0.128322494
H   H137      1.0  0.32470  0.44280  0.50970  1.0000 0.128322494
H   H138      1.0  0.06500  0.07470  0.38190  1.0000 0.128322494
H   H139      1.0  0.93310  0.81500  0.49030  1.0000 0.128322494
H   H140      1.0  0.69280  0.68310  0.61810  1.0000 0.128322494
H   H141      1.0  0.29270  0.39600  0.39610  1.0000 0.1002595473
H   H142      1.0  0.14660  0.04270  0.39670  1.0000 0.1002595473
H   H143      1.0  0.99990  0.89660  0.60390  1.0000 0.1002595473
H   H144      1.0  0.64600  0.74990  0.60330  1.0000 0.1002595473
H   H145      1.0  0.29930  0.27300  0.61590  1.0000 0.128322494
H   H146      1.0  0.93340  0.04930  0.52630  1.0000 0.128322494
H   H147      1.0  0.65710  0.68340  0.38410  1.0000 0.128322494
H   H148      1.0  0.52300  0.40710  0.47370  1.0000 0.128322494
H   H149      1.0  0.33000  0.32300  0.73180  1.0000 0.1100946024
H   H150      1.0  0.84820  0.08000  0.50700  1.0000 0.1100946024
H   H151      1.0  0.59120  0.59820  0.26820  1.0000 0.1100946024
H   H152      1.0  0.57300  0.34120  0.49300  1.0000 0.1100946024
H   H153      1.0  0.45210  0.56180  0.73950  1.0000 0.1100946024
H   H154      1.0  0.96260  0.20210  0.39030  1.0000 0.1100946024
H   H155      1.0  0.82230  0.71260  0.26050  1.0000 0.1100946024
H   H156      1.0  0.81180  0.57230  0.60970  1.0000 0.1100946024
H   H157      1.0  0.42490  0.51920  0.62030  1.0000 0.128322494
H   H158      1.0  0.05460  0.17490  0.40570  1.0000 0.128322494
H   H159      1.0  0.89890  0.80460  0.37970  1.0000 0.128322494
H   H160      1.0  0.76920  0.64890  0.59430  1.0000 0.128322494
H   H161      1.0  0.23350  0.14100  0.17150  1.0000 0.120197779
H   H162      1.0  0.31200  0.98350  0.59250  1.0000 0.120197779
H   H163      1.0  0.96950  0.06200  0.82850  1.0000 0.120197779
H   H164      1.0  0.39100  0.71950  0.40750  1.0000 0.120197779
H   H165      1.0  0.18210  0.08270  0.05540  1.0000 0.128322494
H   H166      1.0  0.37670  0.93210  0.59940  1.0000 0.128322494
H   H167      1.0  0.02730  0.12670  0.94460  1.0000 0.128322494
H   H168      1.0  0.33270  0.77730  0.40060  1.0000 0.128322494
H   H169      1.0  0.12550  0.22690  0.05340  1.0000 0.1380118711
H   H170      1.0  0.32210  0.87550  0.39860  1.0000 0.1380118711
H   H171      1.0  0.17350  0.07210  0.94660  1.0000 0.1380118711
H   H172      1.0  0.47690  0.92350  0.60140  1.0000 0.1380118711
H   H173      1.0  0.18330  0.28170  0.16860  1.0000 0.1100946024
H   H174      1.0  0.26470  0.93330  0.40160  1.0000 0.1100946024
H   H175      1.0  0.11310  0.01470  0.83140  1.0000 0.1100946024
H   H176      1.0  0.53170  0.86310  0.59840  1.0000 0.1100946024
C   C1        1.0  0.15230  0.63080  0.23370  1.0000 0.5169270916
C   C2        1.0  0.16860  0.90230  0.02150  1.0000 0.5169270916
C   C3        1.0  0.39710  0.91860  0.76630  1.0000 0.5169270916
C   C4        1.0  0.88080  0.14710  0.97850  1.0000 0.5169270916
C   C5        1.0  0.25630  0.70530  0.25300  1.0000 -0.033806138
C   C6        1.0  0.25330  0.00630  0.05100  1.0000 -0.033806138
C   C7        1.0  0.45230  0.00330  0.74700  1.0000 -0.033806138
C   C8        1.0  0.95530  0.20230  0.94900  1.0000 -0.033806138
C   C9        1.0  0.30090  0.79210  0.25760  1.0000 -0.1155446029
C   C10       1.0  0.29330  0.05090  0.00880  1.0000 -0.1070372185
C   C11       1.0  0.53450  0.04330  0.74240  1.0000 -0.1155446029
C   C12       1.0  0.04210  0.28450  0.99120  1.0000 -0.1155446029
C   C13       1.0  0.39640  0.85840  0.27400  1.0000 -0.2002951221
C   C14       1.0  0.37240  0.14640  0.03800  1.0000 -0.2002951221
C   C15       1.0  0.58440  0.12240  0.72600  1.0000 -0.2002951221
C   C16       1.0  0.10840  0.33440  0.96200  1.0000 -0.2002951221
C   C17       1.0  0.43950  0.83690  0.28260  1.0000 0.2178463463
C   C18       1.0  0.40690  0.18950  0.10260  1.0000 0.2178463463
C   C19       1.0  0.55430  0.15690  0.71740  1.0000 0.2178463463
C   C20       1.0  0.08690  0.30430  0.89740  1.0000 0.2178463463
C   C21       1.0  0.39740  0.75210  0.27590  1.0000 -0.2103503875
C   C22       1.0  0.37150  0.14740  0.14530  1.0000 -0.2103503875
C   C23       1.0  0.47620  0.12150  0.72410  1.0000 -0.2103503875
C   C24       1.0  0.00210  0.22620  0.85470  1.0000 -0.2103503875
C   C25       1.0  0.30200  0.68300  0.25980  1.0000 -0.1019688843
C   C26       1.0  0.29220  0.05200  0.11900  1.0000 -0.1019688843
C   C27       1.0  0.42320  0.04220  0.74020  1.0000 -0.1019688843
C   C28       1.0  0.93300  0.17320  0.88100  1.0000 -0.1019688843
C   C29       1.0  0.57340  0.92560  0.25420  1.0000 0.2178463463
C   C30       1.0  0.56920  0.32340  0.14780  1.0000 0.2178463463
C   C31       1.0  0.67140  0.31920  0.74580  1.0000 0.2178463463
C   C32       1.0  0.17560  0.42140  0.85220  1.0000 0.2178463463
C   C33       1.0  0.52340  0.87080  0.18620  1.0000 -0.2002951221
C   C34       1.0  0.58720  0.27340  0.15260  1.0000 -0.2002951221
C   C35       1.0  0.68460  0.33720  0.81380  1.0000 -0.2002951221
C   C36       1.0  0.12080  0.43460  0.84740  1.0000 -0.2002951221
C   C37       1.0  0.56960  0.89980  0.14300  1.0000 -0.1070372185
C   C38       1.0  0.67660  0.31960  0.16980  1.0000 -0.1070372185
C   C39       1.0  0.75680  0.42660  0.85700  1.0000 -0.1070372185
C   C40       1.0  0.14980  0.50680  0.83020  1.0000 -0.1070372185
C   C41       1.0  0.65900  0.97820  0.16500  1.0000 -0.0606262816
C   C42       1.0  0.74400  0.40900  0.18080  1.0000 -0.0606262816
C   C43       1.0  0.81320  0.49400  0.83500  1.0000 -0.0606262816
C   C44       1.0  0.22820  0.56320  0.81920  1.0000 -0.0606262816
C   C45       1.0  0.70340  0.02980  0.23460  1.0000 -0.1070372185
C   C46       1.0  0.71880  0.45340  0.17360  1.0000 -0.1070372185
C   C47       1.0  0.79520  0.46880  0.76540  1.0000 -0.1070372185
C   C48       1.0  0.27980  0.54520  0.82640  1.0000 -0.1070372185
C   C49       1.0  0.66190  0.00410  0.27980  1.0000 -0.1707481386
C   C50       1.0  0.63210  0.41190  0.15780  1.0000 -0.1707481386
C   C51       1.0  0.72430  0.38210  0.72020  1.0000 -0.1707481386
C   C52       1.0  0.25410  0.47430  0.84220  1.0000 -0.1707481386
C   C53       1.0  0.70720  0.01010  0.11790  1.0000 0.5459922833
C   C54       1.0  0.83930  0.45720  0.19710  1.0000 0.5459922833
C   C55       1.0  0.89220  0.58930  0.88210  1.0000 0.5459922833
C   C56       1.0  0.26010  0.64220  0.80290  1.0000 0.5459922833
C   C57       1.0  0.94060  0.48190  0.07290  1.0000 0.0362438711
C   C58       1.0  0.11770  0.69060  0.95870  1.0000 0.0362438711
C   C59       1.0  0.40900  0.86770  0.92710  1.0000 0.0362438711
C   C60       1.0  0.73190  0.15900  0.04130  1.0000 0.0362438711
C   C61       1.0  0.92200  0.45790  0.00410  1.0000 -0.1894109222
C   C62       1.0  0.16790  0.67200  0.96410  1.0000 -0.1894109222
C   C63       1.0  0.45380  0.91790  0.99590  1.0000 -0.1894109222
C   C64       1.0  0.70790  0.20380  0.03590  1.0000 -0.1894109222
C   C65       1.0  0.91520  0.39160  0.96940  1.0000 0.1100946024
C   C66       1.0  0.19580  0.66520  0.02360  1.0000 0.1100946024
C   C67       1.0  0.42220  0.94580  0.03060  1.0000 0.1100946024
C   C68       1.0  0.64160  0.17220  0.97640  1.0000 0.1100946024
C   C69       1.0  0.92940  0.35280  0.01060  1.0000 -0.1894109222
C   C70       1.0  0.16880  0.67940  0.07660  1.0000 -0.1894109222
C   C71       1.0  0.34220  0.91880  0.98940  1.0000 -0.1894109222
C   C72       1.0  0.60280  0.09220  0.92340  1.0000 -0.1894109222
C   C73       1.0  0.94860  0.38140  0.07880  1.0000 0.0525219787
C   C74       1.0  0.11980  0.69860  0.06720  1.0000 0.0525219787
C   C75       1.0  0.30260  0.86980  0.92120  1.0000 0.0525219787
C   C76       1.0  0.63140  0.05260  0.93280  1.0000 0.0525219787
C   C77       1.0  0.89360  0.36060  0.89580  1.0000 0.0892183289
C   C78       1.0  0.24780  0.64360  0.03300  1.0000 0.0892183289
C   C79       1.0  0.46480  0.99780  0.10420  1.0000 0.0892183289
C   C80       1.0  0.61060  0.21480  0.96700  1.0000 0.0892183289
C   C81       1.0  0.91940  0.41660  0.86080  1.0000 -0.2002951221
C   C82       1.0  0.30860  0.66940  0.00280  1.0000 -0.2002951221
C   C83       1.0  0.55580  0.05860  0.13920  1.0000 -0.2002951221
C   C84       1.0  0.66667  0.30580  0.99720  1.0000 -0.2002951221
C   C85       1.0  0.90010  0.38580  0.79030  1.0000 0.0796197785
C   C86       1.0  0.35980  0.65010  0.01430  1.0000 0.0796197785
C   C87       1.0  0.59550  0.10980  0.20970  1.0000 0.0796197785
C   C88       1.0  0.63580  0.34550  0.98570  1.0000 0.0796197785
C   C89       1.0  0.82980  0.24830  0.78570  1.0000 0.0892183289
C   C90       1.0  0.29410  0.57980  0.08150  1.0000 0.0892183289
C   C91       1.0  0.46260  0.04410  0.21430  1.0000 0.0892183289
C   C92       1.0  0.49830  0.21260  0.91850  1.0000 0.0892183289
C   C93       1.0  0.84650  0.27360  0.85890  1.0000 -0.2103503875
C   C94       1.0  0.23760  0.59650  0.07290  1.0000 -0.2103503875
C   C95       1.0  0.41470  0.98760  0.14110  1.0000 -0.2103503875
C   C96       1.0  0.52360  0.16470  0.92710  1.0000 -0.2103503875
C   C97       1.0  0.03660  0.58920  0.35300  1.0000 0.1100946024
C   C98       1.0  0.93360  0.78660  0.94740  1.0000 0.1100946024
C   C99       1.0  0.23620  0.68360  0.64700  1.0000 0.1100946024
C   C100      1.0  0.83920  0.98620  0.05260  1.0000 0.1100946024
C   C101      1.0  0.07000  0.62710  0.42310  1.0000 -0.2103503875
C   C102      1.0  0.89690  0.82000  0.94290  1.0000 -0.2103503875
C   C103      1.0  0.20400  0.64690  0.57690  1.0000 -0.2103503875
C   C104      1.0  0.87710  0.95400  0.05710  1.0000 -0.2103503875
C   C105      1.0  0.10670  0.60530  0.46180  1.0000 0.1100946024
C   C106      1.0  0.89490  0.85670  0.00140  1.0000 0.1100946024
C   C107      1.0  0.14350  0.64490  0.53820  1.0000 0.1100946024
C   C108      1.0  0.85530  0.89350  0.99860  1.0000 0.1100946024
C   C109      1.0  0.10230  0.54260  0.42410  1.0000 -0.1894109222
C   C110      1.0  0.92820  0.85230  0.05970  1.0000 -0.1894109222
C   C111      1.0  0.11850  0.67820  0.57590  1.0000 -0.1894109222
C   C112      1.0  0.79260  0.86850  0.94030  1.0000 -0.1894109222
C   C113      1.0  0.06640  0.50920  0.35520  1.0000 0.0525219787
C   C114      1.0  0.96120  0.81640  0.05720  1.0000 0.0525219787
C   C115      1.0  0.15400  0.71120  0.64480  1.0000 0.0525219787
C   C116      1.0  0.75920  0.90400  0.94280  1.0000 0.0525219787
C   C117      1.0  0.09770  0.11920  0.26630  1.0000 0.5169270916
C   C118      1.0  0.08140  0.84770  0.47850  1.0000 0.5169270916
C   C119      1.0  0.85290  0.83140  0.73370  1.0000 0.5169270916
C   C120      1.0  0.36920  0.60290  0.52150  1.0000 0.5169270916
C   C121      1.0  0.99370  0.04470  0.24700  1.0000 -0.033806138
C   C122      1.0  0.99670  0.74370  0.44900  1.0000 -0.033806138
C   C123      1.0  0.79770  0.74670  0.75300  1.0000 -0.033806138
C   C124      1.0  0.29470  0.54770  0.55100  1.0000 -0.033806138
C   C125      1.0  0.94910  0.95790  0.24240  1.0000 -0.1155446029
C   C126      1.0  0.95670  0.69910  0.49120  1.0000 -0.1155446029
C   C127      1.0  0.71550  0.70670  0.75760  1.0000 -0.1155446029
C   C128      1.0  0.20790  0.46550  0.50880  1.0000 -0.1155446029
C   C129      1.0  0.85360  0.89160  0.22600  1.0000 -0.2002951221
C   C130      1.0  0.87760  0.60360  0.46200  1.0000 -0.2002951221
C   C131      1.0  0.66560  0.62760  0.77400  1.0000 -0.2002951221
C   C132      1.0  0.14160  0.41560  0.53800  1.0000 -0.2002951221
C   C133      1.0  0.81050  0.91310  0.21740  1.0000 0.2178463463
C   C134      1.0  0.84310  0.56050  0.39740  1.0000 0.2178463463
C   C135      1.0  0.69570  0.59310  0.78260  1.0000 0.2178463463
C   C136      1.0  0.16310  0.44570  0.60260  1.0000 0.2178463463
C   C137      1.0  0.85260  0.99790  0.22410  1.0000 -0.2103503875
C   C138      1.0  0.87850  0.60260  0.35470  1.0000 -0.2103503875
C   C139      1.0  0.77380  0.62850  0.77590  1.0000 -0.2103503875
C   C140      1.0  0.24790  0.52380  0.64530  1.0000 -0.2103503875
C   C141      1.0  0.94800  0.06700  0.24020  1.0000 -0.1019688843
C   C142      1.0  0.95780  0.69800  0.38100  1.0000 -0.1019688843
C   C143      1.0  0.82680  0.70780  0.75980  1.0000 -0.1019688843
C   C144      1.0  0.31700  0.57680  0.61900  1.0000 -0.1019688843
C   C145      1.0  0.67660  0.82440  0.24580  1.0000 0.2178463463
C   C146      1.0  0.68080  0.42660  0.35220  1.0000 0.2178463463
C   C147      1.0  0.57860  0.43080  0.75420  1.0000 0.2178463463
C   C148      1.0  0.07440  0.32860  0.64780  1.0000 0.2178463463
C   C149      1.0  0.72660  0.87920  0.31380  1.0000 -0.2002951221
C   C150      1.0  0.66280  0.47660  0.34740  1.0000 -0.2002951221
C   C151      1.0  0.56540  0.41280  0.68620  1.0000 -0.2002951221
C   C152      1.0  0.12920  0.31540  0.65260  1.0000 -0.2002951221
C   C153      1.0  0.68040  0.85020  0.35700  1.0000 -0.1070372185
C   C154      1.0  0.57340  0.43040  0.33020  1.0000 -0.1070372185
C   C155      1.0  0.49320  0.32340  0.64300  1.0000 -0.1070372185
C   C156      1.0  0.10020  0.24320  0.66980  1.0000 -0.1070372185
C   C157      1.0  0.59100  0.77180  0.33500  1.0000 -0.0606262816
C   C158      1.0  0.50600  0.34100  0.31920  1.0000 -0.0606262816
C   C159      1.0  0.43680  0.25600  0.66500  1.0000 -0.0606262816
C   C160      1.0  0.02180  0.18680  0.68080  1.0000 -0.0606262816
C   C161      1.0  0.54660  0.72020  0.26540  1.0000 -0.1070372185
C   C162      1.0  0.53120  0.29660  0.32640  1.0000 -0.1070372185
C   C163      1.0  0.45480  0.28120  0.73460  1.0000 -0.1070372185
C   C164      1.0  0.97020  0.20480  0.67360  1.0000 -0.1070372185
C   C165      1.0  0.58810  0.74590  0.22020  1.0000 -0.1707481386
C   C166      1.0  0.61790  0.33810  0.34220  1.0000 -0.1707481386
C   C167      1.0  0.52570  0.36790  0.77980  1.0000 -0.1707481386
C   C168      1.0  0.99590  0.27570  0.65780  1.0000 -0.1707481386
C   C169      1.0  0.54280  0.73990  0.38210  1.0000 0.5459922833
C   C170      1.0  0.41070  0.29280  0.30290  1.0000 0.5459922833
C   C171      1.0  0.35780  0.16070  0.61790  1.0000 0.5459922833
C   C172      1.0  0.98990  0.10780  0.69710  1.0000 0.5459922833
C   C173      1.0  0.30940  0.26810  0.42710  1.0000 0.0362438711
C   C174      1.0  0.13230  0.05940  0.54130  1.0000 0.0362438711
C   C175      1.0  0.84100  0.88230  0.57290  1.0000 0.0362438711
C   C176      1.0  0.51810  0.59100  0.45870  1.0000 0.0362438711
C   C177      1.0  0.32800  0.29210  0.49590  1.0000 -0.1894109222
C   C178      1.0  0.08210  0.07800  0.53590  1.0000 -0.1894109222
C   C179      1.0  0.79620  0.83210  0.50410  1.0000 -0.1894109222
C   C180      1.0  0.54210  0.54620  0.46410  1.0000 -0.1894109222
C   C181      1.0  0.33480  0.35840  0.53060  1.0000 0.1100946024
C   C182      1.0  0.05420  0.08480  0.47640  1.0000 0.1100946024
C   C183      1.0  0.82780  0.80420  0.46940  1.0000 0.1100946024
C   C184      1.0  0.60840  0.57780  0.52360  1.0000 0.1100946024
C   C185      1.0  0.32060  0.39720  0.48940  1.0000 -0.1894109222
C   C186      1.0  0.08120  0.07060  0.42340  1.0000 -0.1894109222
C   C187      1.0  0.90780  0.83120  0.51060  1.0000 -0.1894109222
C   C188      1.0  0.64720  0.65780  0.57660  1.0000 -0.1894109222
C   C189      1.0  0.30140  0.36860  0.42120  1.0000 0.0525219787
C   C190      1.0  0.13020  0.05140  0.43280  1.0000 0.0525219787
C   C191      1.0  0.94740  0.88020  0.57880  1.0000 0.0525219787
C   C192      1.0  0.61860  0.69740  0.56720  1.0000 0.0525219787
C   C193      1.0  0.35640  0.38940  0.60420  1.0000 0.0892183289
C   C194      1.0  0.00220  0.10640  0.46700  1.0000 0.0892183289
C   C195      1.0  0.78520  0.75220  0.39580  1.0000 0.0892183289
C   C196      1.0  0.63940  0.53520  0.53300  1.0000 0.0892183289
C   C197      1.0  0.33060  0.33340  0.63920  1.0000 -0.2002951221
C   C198      1.0  0.94140  0.08060  0.49720  1.0000 -0.2002951221
C   C199      1.0  0.69420  0.69140  0.36080  1.0000 -0.2002951221
C   C200      1.0  0.58340  0.44420  0.50280  1.0000 -0.2002951221
C   C201      1.0  0.34990  0.36420  0.70970  1.0000 0.0796197785
C   C202      1.0  0.89020  0.09990  0.48570  1.0000 0.0796197785
C   C203      1.0  0.65450  0.64020  0.29030  1.0000 0.0796197785
C   C204      1.0  0.61420  0.40450  0.51430  1.0000 0.0796197785
C   C205      1.0  0.42020  0.50170  0.71430  1.0000 0.0892183289
C   C206      1.0  0.95590  0.17020  0.41850  1.0000 0.0892183289
C   C207      1.0  0.78740  0.70590  0.28570  1.0000 0.0892183289
C   C208      1.0  0.75170  0.53740  0.58150  1.0000 0.0892183289
C   C209      1.0  0.40350  0.47640  0.64110  1.0000 -0.2103503875
C   C210      1.0  0.01240  0.15350  0.42710  1.0000 -0.2103503875
C   C211      1.0  0.83530  0.76240  0.35890  1.0000 -0.2103503875
C   C212      1.0  0.72640  0.58530  0.57290  1.0000 -0.2103503875
C   C213      1.0  0.21340  0.16080  0.14700  1.0000 0.1100946024
C   C214      1.0  0.31640  0.96340  0.55260  1.0000 0.1100946024
C   C215      1.0  0.01380  0.06640  0.85300  1.0000 0.1100946024
C   C216      1.0  0.41080  0.76380  0.44740  1.0000 0.1100946024
C   C217      1.0  0.18000  0.12290  0.07690  1.0000 -0.2103503875
C   C218      1.0  0.35310  0.93000  0.55710  1.0000 -0.2103503875
C   C219      1.0  0.04600  0.10310  0.92310  1.0000 -0.2103503875
C   C220      1.0  0.37290  0.79600  0.44290  1.0000 -0.2103503875
C   C221      1.0  0.14330  0.14470  0.03820  1.0000 0.1100946024
C   C222      1.0  0.35510  0.89330  0.49860  1.0000 0.1100946024
C   C223      1.0  0.10650  0.10510  0.96180  1.0000 0.1100946024
C   C224      1.0  0.39470  0.85650  0.50140  1.0000 0.1100946024
C   C225      1.0  0.14770  0.20740  0.07590  1.0000 -0.1894109222
C   C226      1.0  0.32180  0.89770  0.44030  1.0000 -0.1894109222
C   C227      1.0  0.13150  0.07180  0.92410  1.0000 -0.1894109222
C   C228      1.0  0.45740  0.88150  0.55970  1.0000 -0.1894109222
C   C229      1.0  0.18360  0.24080  0.14480  1.0000 0.0525219787
C   C230      1.0  0.28880  0.93360  0.44280  1.0000 0.0525219787
C   C231      1.0  0.09600  0.03880  0.85520  1.0000 0.0525219787
C   C232      1.0  0.49080  0.84600  0.55720  1.0000 0.0525219787
N   N1        1.0  0.95620  0.44610  0.11310  1.0000 -0.2416758442
N   N2        1.0  0.09310  0.70620  0.01010  1.0000 -0.2416758442
N   N3        1.0  0.33300  0.84310  0.88690  1.0000 -0.2416758442
N   N4        1.0  0.69610  0.08300  0.98990  1.0000 -0.2416758442
N   N5        1.0  0.85550  0.30210  0.75400  1.0000 -0.2308369295
N   N6        1.0  0.35150  0.60550  0.05340  1.0000 -0.2308369295
N   N7        1.0  0.54810  0.10150  0.24600  1.0000 -0.2308369295
N   N8        1.0  0.55210  0.29810  0.94660  1.0000 -0.2308369295
N   N9        1.0  0.03070  0.52990  0.31840  1.0000 -0.2002951221
N   N10       1.0  0.96230  0.78070  0.00080  1.0000 -0.2002951221
N   N11       1.0  0.21150  0.71230  0.68160  1.0000 -0.2002951221
N   N12       1.0  0.77990  0.96150  0.99920  1.0000 -0.2002951221
N   N13       1.0  0.29380  0.30390  0.38690  1.0000 -0.2416758442
N   N14       1.0  0.15690  0.04380  0.48990  1.0000 -0.2416758442
N   N15       1.0  0.91700  0.90690  0.61310  1.0000 -0.2416758442
N   N16       1.0  0.55390  0.66700  0.51010  1.0000 -0.2416758442
N   N17       1.0  0.39450  0.44790  0.74600  1.0000 -0.2308369295
N   N18       1.0  0.89850  0.14450  0.44660  1.0000 -0.2308369295
N   N19       1.0  0.70190  0.64850  0.25400  1.0000 -0.2308369295
N   N20       1.0  0.69790  0.45190  0.55340  1.0000 -0.2308369295
N   N21       1.0  0.21930  0.22010  0.18160  1.0000 -0.2002951221
N   N22       1.0  0.28770  0.96930  0.49920  1.0000 -0.2002951221
N   N23       1.0  0.03850  0.03770  0.81840  1.0000 -0.2002951221
N   N24       1.0  0.47010  0.78850  0.50080  1.0000 -0.2002951221
O   O1        1.0  0.11420  0.55410  0.22590  1.0000 -0.4728483872
O   O2        1.0  0.13830  0.86420  0.06010  1.0000 -0.4728483872
O   O3        1.0  0.32820  0.88830  0.77410  1.0000 -0.4728483872
O   O4        1.0  0.80410  0.07820  0.93990  1.0000 -0.4728483872
O   O5        1.0  0.11380  0.65500  0.22860  1.0000 -0.497825356
O   O6        1.0  0.13520  0.86380  0.95880  1.0000 -0.497825356
O   O7        1.0  0.42640  0.88520  0.77140  1.0000 -0.497825356
O   O8        1.0  0.90500  0.17640  0.04120  1.0000 -0.497825356
O   O9        1.0  0.53330  0.90380  0.30370  1.0000 -0.2103503875
O   O10       1.0  0.47960  0.28330  0.12950  1.0000 -0.2103503875
O   O11       1.0  0.60010  0.22960  0.69630  1.0000 -0.2103503875
O   O12       1.0  0.15380  0.35010  0.87050  1.0000 -0.2103503875
O   O13       1.0  0.66400  0.96210  0.05470  1.0000 -0.5336841063
O   O14       1.0  0.85930  0.41400  0.20190  1.0000 -0.5336841063
O   O15       1.0  0.90740  0.60930  0.94530  1.0000 -0.5336841063
O   O16       1.0  0.21210  0.65740  0.79810  1.0000 -0.5336841063
O   O17       1.0  0.79100  0.08610  0.13950  1.0000 -0.558541076
O   O18       1.0  0.90150  0.54100  0.20490  1.0000 -0.558541076
O   O19       1.0  0.94660  0.65150  0.86050  1.0000 -0.558541076
O   O20       1.0  0.33610  0.69660  0.79510  1.0000 -0.558541076
O   O21       1.0  0.94010  0.34520  0.21250  1.0000 -0.6577894406
O   O22       1.0  0.97760  0.69010  0.09490  1.0000 -0.6577894406
O   O23       1.0  0.13270  0.72760  0.78750  1.0000 -0.6577894406
O   O24       1.0  0.59520  0.88270  0.90510  1.0000 -0.6577894406
O   O25       1.0  0.13580  0.19590  0.27410  1.0000 -0.4728483872
O   O26       1.0  0.11170  0.88580  0.43990  1.0000 -0.4728483872
O   O27       1.0  0.92180  0.86170  0.72590  1.0000 -0.4728483872
O   O28       1.0  0.44590  0.67180  0.56010  1.0000 -0.4728483872
O   O29       1.0  0.13620  0.09500  0.27140  1.0000 -0.497825356
O   O30       1.0  0.11480  0.88620  0.54120  1.0000 -0.497825356
O   O31       1.0  0.82360  0.86480  0.72860  1.0000 -0.497825356
O   O32       1.0  0.34500  0.57360  0.45880  1.0000 -0.497825356
O   O33       1.0  0.71670  0.84620  0.19630  1.0000 -0.2103503875
O   O34       1.0  0.77040  0.46670  0.37050  1.0000 -0.2103503875
O   O35       1.0  0.64990  0.52040  0.80370  1.0000 -0.2103503875
O   O36       1.0  0.09620  0.39990  0.62950  1.0000 -0.2103503875
O   O37       1.0  0.58600  0.78790  0.44530  1.0000 -0.5336841063
O   O38       1.0  0.39070  0.33600  0.29810  1.0000 -0.5336841063
O   O39       1.0  0.34260  0.14070  0.55470  1.0000 -0.5336841063
O   O40       1.0  0.03790  0.09260  0.70190  1.0000 -0.5336841063
O   O41       1.0  0.45900  0.66390  0.36050  1.0000 -0.558541076
O   O42       1.0  0.34850  0.20900  0.29510  1.0000 -0.558541076
O   O43       1.0  0.30340  0.09850  0.63950  1.0000 -0.558541076
O   O44       1.0  0.91390  0.05340  0.70490  1.0000 -0.558541076
O   O45       1.0  0.30990  0.40480  0.28750  1.0000 -0.6577894406
O   O46       1.0  0.27240  0.05990  0.40510  1.0000 -0.6577894406
O   O47       1.0  0.11730  0.02240  0.71250  1.0000 -0.6577894406
O   O48       1.0  0.65480  0.86730  0.59490  1.0000 -0.6577894406
