# DDEC6 charges by PACMAN v1.1 (https://github.com/mtap-research/PACMAN-charge/)
data_2012[Cu][rtl]3[FSR]1
_chemical_formula_sum              "Cu4 H28 C52 N4 O16"
_cell_length_a       10.5385
_cell_length_b       10.7768
_cell_length_c       14.7694
_cell_angle_alpha    90
_cell_angle_beta     108.72
_cell_angle_gamma    90

_symmetry_space_group_name_H-M    "P 1"
_symmetry_Int_Tables_number       1

loop_
  _symmetry_equiv_pos_as_xyz
  'x, y, z'

loop_
  _atom_site_type_symbol
  _atom_site_label
  _atom_site_symmetry_multiplicity
  _atom_site_fract_x
  _atom_site_fract_y
  _atom_site_fract_z
  _atom_site_occupancy
  _atom_site_charge
Cu  Cu1       1.0  0.09349  0.08595  0.01114  1.0000 0.7792988453
Cu  Cu2       1.0  0.90651  0.58595  0.48886  1.0000 0.7792988453
Cu  Cu3       1.0  0.90651  0.91405  0.98886  1.0000 0.7792988453
Cu  Cu4       1.0  0.09349  0.41405  0.51114  1.0000 0.7792988453
H   H1        1.0  0.05330  0.72530  0.77400  1.0000 0.1372919973
H   H2        1.0  0.94670  0.22530  0.72600  1.0000 0.1372919973
H   H3        1.0  0.94670  0.27470  0.22600  1.0000 0.1372919973
H   H4        1.0  0.05330  0.77470  0.27400  1.0000 0.1372919973
H   H5        1.0  0.57560  0.46990  0.93290  1.0000 0.1174623897
H   H6        1.0  0.42440  0.96990  0.56710  1.0000 0.1174623897
H   H7        1.0  0.42440  0.53010  0.06710  1.0000 0.1174623897
H   H8        1.0  0.57560  0.03010  0.43290  1.0000 0.1174623897
H   H9        1.0  0.39230  0.55100  0.77890  1.0000 0.12870285
H   H10       1.0  0.60770  0.05100  0.72110  1.0000 0.12870285
H   H11       1.0  0.60770  0.44900  0.22110  1.0000 0.12870285
H   H12       1.0  0.39230  0.94900  0.27890  1.0000 0.12870285
H   H13       1.0  0.39750  0.80100  0.98150  1.0000 0.12870285
H   H14       1.0  0.60250  0.30100  0.51850  1.0000 0.12870285
H   H15       1.0  0.60250  0.19900  0.01850  1.0000 0.12870285
H   H16       1.0  0.39750  0.69900  0.48150  1.0000 0.12870285
H   H17       1.0  0.93050  0.63610  0.03880  1.0000 0.1122682053
H   H18       1.0  0.06950  0.13610  0.46120  1.0000 0.1122682053
H   H19       1.0  0.06950  0.36390  0.96120  1.0000 0.1122682053
H   H20       1.0  0.93050  0.86390  0.53880  1.0000 0.1122682053
H   H21       1.0  0.60970  0.83900  0.93960  1.0000 0.1174623897
H   H22       1.0  0.39030  0.33900  0.56040  1.0000 0.1174623897
H   H23       1.0  0.39030  0.16100  0.06040  1.0000 0.1174623897
H   H24       1.0  0.60970  0.66100  0.43960  1.0000 0.1174623897
H   H25       1.0  0.80580  0.45810  0.00590  1.0000 0.12870285
H   H26       1.0  0.19420  0.95810  0.49410  1.0000 0.12870285
H   H27       1.0  0.19420  0.54190  0.99410  1.0000 0.12870285
H   H28       1.0  0.80580  0.04190  0.50590  1.0000 0.12870285
C   C1        1.0  0.13820  0.85980  0.93008  1.0000 0.565669376
C   C2        1.0  0.86180  0.35980  0.56992  1.0000 0.565669376
C   C3        1.0  0.86180  0.14020  0.06992  1.0000 0.565669376
C   C4        1.0  0.13820  0.64020  0.43008  1.0000 0.565669376
C   C5        1.0  0.56640  0.65810  0.93041  1.0000 0.0221678802
C   C6        1.0  0.43360  0.15810  0.56959  1.0000 0.0221678802
C   C7        1.0  0.43360  0.34190  0.06959  1.0000 0.0221678802
C   C8        1.0  0.56640  0.84190  0.43041  1.0000 0.0221678802
C   C9        1.0  0.13800  0.57277  0.66616  1.0000 0.565669376
C   C10       1.0  0.86200  0.07277  0.83384  1.0000 0.565669376
C   C11       1.0  0.86200  0.42723  0.33384  1.0000 0.565669376
C   C12       1.0  0.13800  0.92723  0.16616  1.0000 0.565669376
C   C13       1.0  0.41820  0.67410  0.88591  1.0000 0.0678158957
C   C14       1.0  0.58180  0.17410  0.61409  1.0000 0.0678158957
C   C15       1.0  0.58180  0.32590  0.11409  1.0000 0.0678158957
C   C16       1.0  0.41820  0.82590  0.38591  1.0000 0.0678158957
C   C17       1.0  0.14480  0.71240  0.80217  1.0000 -0.1308266804
C   C18       1.0  0.85520  0.21240  0.69783  1.0000 -0.1308266804
C   C19       1.0  0.85520  0.28760  0.19783  1.0000 -0.1308266804
C   C20       1.0  0.14480  0.78760  0.30217  1.0000 -0.1308266804
C   C21       1.0  0.21290  0.77424  0.88555  1.0000 -0.0110189274
C   C22       1.0  0.78710  0.27424  0.61445  1.0000 -0.0110189274
C   C23       1.0  0.78710  0.22576  0.11445  1.0000 -0.0110189274
C   C24       1.0  0.21290  0.72576  0.38555  1.0000 -0.0110189274
C   C25       1.0  0.62690  0.54180  0.94872  1.0000 -0.097191621
C   C26       1.0  0.37310  0.04180  0.55128  1.0000 -0.097191621
C   C27       1.0  0.37310  0.45820  0.05128  1.0000 -0.097191621
C   C28       1.0  0.62690  0.95820  0.44872  1.0000 -0.097191621
C   C29       1.0  0.34810  0.60935  0.80428  1.0000 -0.1573331621
C   C30       1.0  0.65190  0.10935  0.69572  1.0000 -0.1573331621
C   C31       1.0  0.65190  0.39065  0.19572  1.0000 -0.1573331621
C   C32       1.0  0.34810  0.89065  0.30428  1.0000 -0.1573331621
C   C33       1.0  0.35070  0.75707  0.92674  1.0000 -0.1750827547
C   C34       1.0  0.64930  0.25707  0.57326  1.0000 -0.1750827547
C   C35       1.0  0.64930  0.24293  0.07326  1.0000 -0.1750827547
C   C36       1.0  0.35070  0.74293  0.42674  1.0000 -0.1750827547
C   C37       1.0  0.21170  0.63090  0.75961  1.0000 -0.0110189274
C   C38       1.0  0.78830  0.13090  0.74039  1.0000 -0.0110189274
C   C39       1.0  0.78830  0.36910  0.24039  1.0000 -0.0110189274
C   C40       1.0  0.21170  0.86910  0.25961  1.0000 -0.0110189274
C   C41       1.0  0.83820  0.64190  0.01011  1.0000 0.0836732328
C   C42       1.0  0.16180  0.14190  0.48989  1.0000 0.0836732328
C   C43       1.0  0.16180  0.35810  0.98989  1.0000 0.0836732328
C   C44       1.0  0.83820  0.85810  0.51011  1.0000 0.0836732328
C   C45       1.0  0.64910  0.76090  0.95184  1.0000 0.0348440666
C   C46       1.0  0.35090  0.26090  0.54816  1.0000 0.0348440666
C   C47       1.0  0.35090  0.23910  0.04816  1.0000 0.0348440666
C   C48       1.0  0.64910  0.73910  0.45184  1.0000 0.0348440666
C   C49       1.0  0.76400  0.53490  0.99080  1.0000 -0.1308266804
C   C50       1.0  0.23600  0.03490  0.50920  1.0000 -0.1308266804
C   C51       1.0  0.23600  0.46510  0.00920  1.0000 -0.1308266804
C   C52       1.0  0.76400  0.96510  0.49080  1.0000 -0.1308266804
N   N1        1.0  0.78272  0.75448  0.98922  1.0000 -0.2224313583
N   N2        1.0  0.21728  0.25448  0.51078  1.0000 -0.2224313583
N   N3        1.0  0.21728  0.24552  0.01078  1.0000 -0.2224313583
N   N4        1.0  0.78272  0.74552  0.48922  1.0000 -0.2224313583
O   O1        1.0  0.19149  0.96243  0.96089  1.0000 -0.4999783006
O   O2        1.0  0.80851  0.46243  0.53911  1.0000 -0.4999783006
O   O3        1.0  0.80851  0.03757  0.03911  1.0000 -0.4999783006
O   O4        1.0  0.19149  0.53757  0.46089  1.0000 -0.4999783006
O   O5        1.0  0.02568  0.82202  0.93227  1.0000 -0.5229526278
O   O6        1.0  0.97432  0.32202  0.56773  1.0000 -0.5229526278
O   O7        1.0  0.97432  0.17798  0.06773  1.0000 -0.5229526278
O   O8        1.0  0.02568  0.67798  0.43227  1.0000 -0.5229526278
O   O9        1.0  0.19010  0.47991  0.63911  1.0000 -0.4999783006
O   O10       1.0  0.80990  0.97991  0.86089  1.0000 -0.4999783006
O   O11       1.0  0.80990  0.52009  0.36089  1.0000 -0.4999783006
O   O12       1.0  0.19010  0.02009  0.13911  1.0000 -0.4999783006
O   O13       1.0  0.02801  0.62181  0.61923  1.0000 -0.5310928639
O   O14       1.0  0.97199  0.12181  0.88077  1.0000 -0.5310928639
O   O15       1.0  0.97199  0.37819  0.38077  1.0000 -0.5310928639
O   O16       1.0  0.02801  0.87819  0.11923  1.0000 -0.5310928639
