# DDEC6 charges by PACMAN v1.1 (https://github.com/mtap-research/PACMAN-charge/)
data_2012[Eu][tfz]3[FSR]1
_chemical_formula_sum              "Eu2 H62 C72 O22"
_cell_length_a       9.3824
_cell_length_b       13.6113
_cell_length_c       18.2701
_cell_angle_alpha    74.7319
_cell_angle_beta     86.3824
_cell_angle_gamma    88.5107

_symmetry_space_group_name_H-M    "P 1"
_symmetry_Int_Tables_number       1

loop_
  _symmetry_equiv_pos_as_xyz
  'x, y, z'

loop_
  _atom_site_type_symbol
  _atom_site_label
  _atom_site_symmetry_multiplicity
  _atom_site_fract_x
  _atom_site_fract_y
  _atom_site_fract_z
  _atom_site_occupancy
  _atom_site_charge
Eu  Eu1       1.0  0.77695  0.96799  0.00288  1.0000 2.1661303593
Eu  Eu2       1.0  0.22305  0.03201  0.99712  1.0000 2.1661303593
H   H1        1.0  0.66340  0.19050  0.97020  1.0000 0.4345048321
H   H2        1.0  0.33660  0.80950  0.02980  1.0000 0.4345048321
H   H3        1.0  0.24010  0.97820  0.81440  1.0000 0.1283911807
H   H4        1.0  0.75990  0.02180  0.18560  1.0000 0.1283911807
H   H5        1.0  0.32580  0.96840  0.69450  1.0000 0.1106883597
H   H6        1.0  0.67420  0.03160  0.30550  1.0000 0.1106883597
H   H7        1.0  0.01150  0.76970  0.69330  1.0000 0.1106883597
H   H8        1.0  0.98850  0.23030  0.30670  1.0000 0.1106883597
H   H9        1.0  0.92190  0.78580  0.81090  1.0000 0.121113568
H   H10       1.0  0.07810  0.21420  0.18910  1.0000 0.121113568
H   H11       1.0  0.49270  0.87840  0.47780  1.0000 0.1106883597
H   H12       1.0  0.50730  0.12160  0.52220  1.0000 0.1106883597
H   H13       1.0  0.01970  0.87690  0.56730  1.0000 0.1106883597
H   H14       1.0  0.98030  0.12310  0.43270  1.0000 0.1106883597
H   H15       1.0  0.50030  0.80240  0.37550  1.0000 0.121113568
H   H16       1.0  0.49970  0.19760  0.62450  1.0000 0.121113568
H   H17       1.0  0.58330  0.83900  0.24990  1.0000 0.121113568
H   H18       1.0  0.41670  0.16100  0.75010  1.0000 0.121113568
H   H19       1.0  0.26720  0.04730  0.19210  1.0000 0.1283911807
H   H20       1.0  0.73280  0.95270  0.80790  1.0000 0.1283911807
H   H21       1.0  0.18560  0.01350  0.31930  1.0000 0.1106883597
H   H22       1.0  0.81440  0.98650  0.68070  1.0000 0.1106883597
H   H23       1.0  0.98820  0.95410  0.40050  1.0000 0.1020775484
H   H24       1.0  0.01180  0.04590  0.59950  1.0000 0.1020775484
H   H25       1.0  0.05380  0.85390  0.38000  1.0000 0.1020775484
H   H26       1.0  0.94620  0.14610  0.62000  1.0000 0.1020775484
H   H27       1.0  0.71880  0.77900  0.45920  1.0000 0.1283911807
H   H28       1.0  0.28120  0.22100  0.54080  1.0000 0.1283911807
H   H29       1.0  0.81040  0.81240  0.38000  1.0000 0.121113568
H   H30       1.0  0.18960  0.18760  0.62000  1.0000 0.121113568
H   H31       1.0  0.74470  0.89720  0.41900  1.0000 0.121113568
H   H32       1.0  0.25530  0.10280  0.58100  1.0000 0.121113568
H   H33       1.0  0.53750  0.91250  0.62160  1.0000 0.1106883597
H   H34       1.0  0.46250  0.08750  0.37840  1.0000 0.1106883597
H   H35       1.0  0.45520  0.81700  0.67720  1.0000 0.1020775484
H   H36       1.0  0.54480  0.18300  0.32280  1.0000 0.1020775484
H   H37       1.0  0.78250  0.72830  0.61620  1.0000 0.1371478392
H   H38       1.0  0.21750  0.27170  0.38380  1.0000 0.1371478392
H   H39       1.0  0.69840  0.74330  0.69150  1.0000 0.121113568
H   H40       1.0  0.30160  0.25670  0.30850  1.0000 0.121113568
H   H41       1.0  0.75900  0.84010  0.62790  1.0000 0.121113568
H   H42       1.0  0.24100  0.15990  0.37210  1.0000 0.121113568
H   H43       1.0  0.81260  0.73470  0.20480  1.0000 0.1283911807
H   H44       1.0  0.18740  0.26530  0.79520  1.0000 0.1283911807
H   H45       1.0  0.80270  0.61900  0.32420  1.0000 0.1106883597
H   H46       1.0  0.19730  0.38100  0.67580  1.0000 0.1106883597
H   H47       1.0  0.21630  0.67600  0.34710  1.0000 0.121113568
H   H48       1.0  0.78370  0.32400  0.65290  1.0000 0.121113568
H   H49       1.0  0.22430  0.79420  0.22860  1.0000 0.121113568
H   H50       1.0  0.77570  0.20580  0.77140  1.0000 0.121113568
H   H51       1.0  0.08980  0.66410  0.47470  1.0000 0.121113568
H   H52       1.0  0.91020  0.33590  0.52530  1.0000 0.121113568
H   H53       1.0  0.94500  0.45410  0.32990  1.0000 0.0948096318
H   H54       1.0  0.05500  0.54590  0.67010  1.0000 0.0948096318
H   H55       1.0  0.92470  0.34590  0.39120  1.0000 0.1020775484
H   H56       1.0  0.07530  0.65410  0.60880  1.0000 0.1020775484
H   H57       1.0  0.59240  0.42840  0.31160  1.0000 0.1283911807
H   H58       1.0  0.40760  0.57160  0.68840  1.0000 0.1283911807
H   H59       1.0  0.69380  0.32970  0.32540  1.0000 0.1106883597
H   H60       1.0  0.30620  0.67030  0.67460  1.0000 0.1106883597
H   H61       1.0  0.74760  0.43480  0.26900  1.0000 0.1106883597
H   H62       1.0  0.25240  0.56520  0.73100  1.0000 0.1106883597
C   C1        1.0  0.00960  0.89830  0.89830  1.0000 0.6262797667
C   C2        1.0  0.99040  0.10170  0.10170  1.0000 0.6262797667
C   C3        1.0  0.07180  0.88360  0.82400  1.0000 -0.0198529158
C   C4        1.0  0.92820  0.11640  0.17600  1.0000 -0.0198529158
C   C5        1.0  0.19240  0.93700  0.78920  1.0000 -0.0732063623
C   C6        1.0  0.80760  0.06300  0.21080  1.0000 -0.0732063623
C   C7        1.0  0.24380  0.93070  0.71800  1.0000 -0.1689877044
C   C8        1.0  0.75620  0.06930  0.28200  1.0000 -0.1689877044
C   C9        1.0  0.17610  0.86890  0.67980  1.0000 0.0779866977
C   C10       1.0  0.82390  0.13110  0.32020  1.0000 0.0779866977
C   C11       1.0  0.05710  0.81380  0.71690  1.0000 -0.1788941966
C   C12       1.0  0.94290  0.18620  0.28310  1.0000 -0.1788941966
C   C13       1.0  0.00480  0.82230  0.78740  1.0000 -0.0887834961
C   C14       1.0  0.99520  0.17770  0.21260  1.0000 -0.0887834961
C   C15       1.0  0.22150  0.86980  0.59970  1.0000 0.022690638
C   C16       1.0  0.77850  0.13020  0.40030  1.0000 0.022690638
C   C17       1.0  0.36650  0.86680  0.57280  1.0000 0.0393053358
C   C18       1.0  0.63350  0.13320  0.42720  1.0000 0.0393053358
C   C19       1.0  0.39560  0.87810  0.49600  1.0000 -0.2031575637
C   C20       1.0  0.60440  0.12190  0.50400  1.0000 -0.2031575637
C   C21       1.0  0.28930  0.88930  0.44330  1.0000 0.0303337183
C   C22       1.0  0.71070  0.11070  0.55670  1.0000 0.0303337183
C   C23       1.0  0.14630  0.88530  0.47060  1.0000 0.0475010117
C   C24       1.0  0.85370  0.11470  0.52940  1.0000 0.0475010117
C   C25       1.0  0.11670  0.87720  0.54890  1.0000 -0.2079237746
C   C26       1.0  0.88330  0.12280  0.45110  1.0000 -0.2079237746
C   C27       1.0  0.33530  0.90580  0.36170  1.0000 0.0740417344
C   C28       1.0  0.66470  0.09420  0.63830  1.0000 0.0740417344
C   C29       1.0  0.45340  0.85330  0.33870  1.0000 -0.1689877044
C   C30       1.0  0.54660  0.14670  0.66130  1.0000 -0.1689877044
C   C31       1.0  0.50200  0.87460  0.26390  1.0000 -0.0995223755
C   C32       1.0  0.49800  0.12540  0.73610  1.0000 -0.0995223755
C   C33       1.0  0.43460  0.94700  0.20840  1.0000 -0.0276886793
C   C34       1.0  0.56540  0.05300  0.79160  1.0000 -0.0276886793
C   C35       1.0  0.31550  0.99820  0.22960  1.0000 -0.0887834961
C   C36       1.0  0.68450  0.00180  0.77040  1.0000 -0.0887834961
C   C37       1.0  0.26690  0.97780  0.30550  1.0000 -0.1689877044
C   C38       1.0  0.73310  0.02220  0.69450  1.0000 -0.1689877044
C   C39       1.0  0.48980  0.97200  0.12610  1.0000 0.6223350418
C   C40       1.0  0.51020  0.02800  0.87390  1.0000 0.6223350418
C   C41       1.0  0.02290  0.88380  0.42230  1.0000 -0.0818803283
C   C42       1.0  0.97710  0.11620  0.57770  1.0000 -0.0818803283
C   C43       1.0  0.78710  0.82870  0.42850  1.0000 -0.2407130944
C   C44       1.0  0.21290  0.17130  0.57150  1.0000 -0.2407130944
C   C45       1.0  0.49020  0.84750  0.62400  1.0000 -0.0818803283
C   C46       1.0  0.50980  0.15250  0.37600  1.0000 -0.0818803283
C   C47       1.0  0.71660  0.77270  0.63680  1.0000 -0.253410806
C   C48       1.0  0.28340  0.22730  0.36320  1.0000 -0.253410806
C   C49       1.0  0.02320  0.84960  0.12680  1.0000 0.6367026521
C   C50       1.0  0.97680  0.15040  0.87320  1.0000 0.6367026521
C   C51       1.0  0.01980  0.77480  0.20430  1.0000 -0.0198529158
C   C52       1.0  0.98020  0.22520  0.79570  1.0000 -0.0198529158
C   C53       1.0  0.89500  0.72280  0.23370  1.0000 -0.0995223755
C   C54       1.0  0.10500  0.27720  0.76630  1.0000 -0.0995223755
C   C55       1.0  0.88910  0.65380  0.30460  1.0000 -0.1689877044
C   C56       1.0  0.11090  0.34620  0.69540  1.0000 -0.1689877044
C   C57       1.0  0.01030  0.63520  0.34730  1.0000 0.0779866977
C   C58       1.0  0.98970  0.36480  0.65270  1.0000 0.0779866977
C   C59       1.0  0.13370  0.68780  0.31830  1.0000 -0.1579378592
C   C60       1.0  0.86630  0.31220  0.68170  1.0000 -0.1579378592
C   C61       1.0  0.13890  0.75780  0.24750  1.0000 -0.0887834961
C   C62       1.0  0.86110  0.24220  0.75250  1.0000 -0.0887834961
C   C63       1.0  0.05370  0.59700  0.48490  1.0000 -0.1854153471
C   C64       1.0  0.94630  0.40300  0.51510  1.0000 -0.1854153471
C   C65       1.0  0.00470  0.56330  0.42530  1.0000 0.0303337183
C   C66       1.0  0.99530  0.43670  0.57470  1.0000 0.0303337183
C   C67       1.0  0.94900  0.46480  0.44140  1.0000 0.0475010117
C   C68       1.0  0.05100  0.53520  0.55860  1.0000 0.0475010117
C   C69       1.0  0.89890  0.41910  0.37990  1.0000 -0.0732063623
C   C70       1.0  0.10110  0.58090  0.62010  1.0000 -0.0732063623
C   C71       1.0  0.69150  0.40390  0.31610  1.0000 -0.2641323852
C   C72       1.0  0.30850  0.59610  0.68390  1.0000 -0.265161668
O   O1        1.0  0.88240  0.87130  0.91790  1.0000 -0.5979279922
O   O2        1.0  0.11760  0.12870  0.08210  1.0000 -0.5979279922
O   O3        1.0  0.08430  0.93980  0.93650  1.0000 -0.6893392848
O   O4        1.0  0.91570  0.06020  0.06350  1.0000 -0.6893392848
O   O5        1.0  0.58620  0.78190  0.60030  1.0000 -0.1321296441
O   O6        1.0  0.41380  0.21810  0.39970  1.0000 -0.1321296441
O   O7        1.0  0.91280  0.82520  0.46780  1.0000 -0.1579378592
O   O8        1.0  0.08720  0.17480  0.53220  1.0000 -0.1579378592
O   O9        1.0  0.61030  0.93940  0.11120  1.0000 -0.5875296043
O   O10       1.0  0.38970  0.06060  0.88880  1.0000 -0.5875296043
O   O11       1.0  0.41180  0.02580  0.07810  1.0000 -0.573940401
O   O12       1.0  0.58820  0.97420  0.92190  1.0000 -0.5757831978
O   O13       1.0  0.13310  0.90340  0.10550  1.0000 -0.6533435332
O   O14       1.0  0.86690  0.09660  0.89450  1.0000 -0.6533435332
O   O15       1.0  0.91660  0.85130  0.08880  1.0000 -0.6235714602
O   O16       1.0  0.08340  0.14870  0.91120  1.0000 -0.6235714602
O   O17       1.0  0.75100  0.43160  0.37840  1.0000 -0.1418403881
O   O18       1.0  0.24900  0.56840  0.62160  1.0000 -0.1418403881
O   O19       1.0  0.66000  0.79270  0.03150  1.0000 -0.1689877044
O   O20       1.0  0.34000  0.20730  0.96850  1.0000 -0.1579378592
O   O21       1.0  0.64790  0.13060  0.99800  1.0000 -0.8902297365
O   O22       1.0  0.35210  0.86940  0.00200  1.0000 -0.8902297365
