# DDEC6 charges by PACMAN v1.1 (https://github.com/mtap-research/PACMAN-charge/)
data_2012[Cu][ths]3[FSR]2
_chemical_formula_sum              "Cu8 C24 O48"
_cell_length_a       8.6771
_cell_length_b       33.9886
_cell_length_c       8.7407
_cell_angle_alpha    90
_cell_angle_beta     107.725
_cell_angle_gamma    90

_symmetry_space_group_name_H-M    "P 1"
_symmetry_Int_Tables_number       1

loop_
  _symmetry_equiv_pos_as_xyz
  'x, y, z'

loop_
  _atom_site_type_symbol
  _atom_site_label
  _atom_site_symmetry_multiplicity
  _atom_site_fract_x
  _atom_site_fract_y
  _atom_site_fract_z
  _atom_site_occupancy
  _atom_site_charge
Cu  Cu1       1.0  0.51495  0.79642  0.24944  1.0000 0.9203368787
Cu  Cu2       1.0  0.98505  0.29642  0.75056  1.0000 0.9203368787
Cu  Cu3       1.0  0.48505  0.20358  0.75056  1.0000 0.9203368787
Cu  Cu4       1.0  0.01495  0.70358  0.24944  1.0000 0.9203368787
Cu  Cu5       1.0  0.50076  0.95427  0.26021  1.0000 0.9125151757
Cu  Cu6       1.0  0.99924  0.45427  0.73979  1.0000 0.9125151757
Cu  Cu7       1.0  0.49924  0.04573  0.73979  1.0000 0.9125151757
Cu  Cu8       1.0  0.00076  0.54573  0.26021  1.0000 0.9203368787
C   C1        1.0  0.43530  0.87655  0.18040  1.0000 0.5685898337
C   C2        1.0  0.06470  0.37655  0.81960  1.0000 0.5685898337
C   C3        1.0  0.56470  0.12345  0.81960  1.0000 0.5685898337
C   C4        1.0  0.93530  0.62345  0.18040  1.0000 0.5685898337
C   C5        1.0  0.59020  0.87405  0.32870  1.0000 0.5604581509
C   C6        1.0  0.90980  0.37405  0.67130  1.0000 0.5604581509
C   C7        1.0  0.40980  0.12595  0.67130  1.0000 0.5604581509
C   C8        1.0  0.09020  0.62595  0.32870  1.0000 0.5604581509
C   C9        1.0  0.27540  0.74118  0.18540  1.0000 0.5506775427
C   C10       1.0  0.22460  0.24118  0.81460  1.0000 0.5506775427
C   C11       1.0  0.72460  0.25882  0.81460  1.0000 0.5506775427
C   C12       1.0  0.77540  0.75882  0.18540  1.0000 0.5506775427
C   C13       1.0  0.26210  0.76341  0.33560  1.0000 0.5335211181
C   C14       1.0  0.23790  0.26341  0.66440  1.0000 0.5335211181
C   C15       1.0  0.73790  0.23659  0.66440  1.0000 0.5335211181
C   C16       1.0  0.76210  0.73659  0.33560  1.0000 0.5335211181
C   C17       1.0  0.57830  0.98899  0.99920  1.0000 0.5506775427
C   C18       1.0  0.92170  0.48899  0.00080  1.0000 0.5506775427
C   C19       1.0  0.42170  0.01101  0.00080  1.0000 0.5506775427
C   C20       1.0  0.07830  0.51101  0.99920  1.0000 0.5506775427
C   C21       1.0  0.42940  0.98814  0.51430  1.0000 0.5361157183
C   C22       1.0  0.07060  0.48814  0.48570  1.0000 0.5361157183
C   C23       1.0  0.57060  0.01186  0.48570  1.0000 0.5335211181
C   C24       1.0  0.92940  0.51186  0.51430  1.0000 0.5335211181
O   O1        1.0  0.38608  0.84579  0.10525  1.0000 -0.4186276841
O   O2        1.0  0.11392  0.34579  0.89475  1.0000 -0.4186276841
O   O3        1.0  0.61392  0.15421  0.89475  1.0000 -0.4186276841
O   O4        1.0  0.88608  0.65421  0.10525  1.0000 -0.4186276841
O   O5        1.0  0.37126  0.90984  0.14725  1.0000 -0.4307033483
O   O6        1.0  0.12874  0.40984  0.85275  1.0000 -0.4307033483
O   O7        1.0  0.62874  0.09016  0.85275  1.0000 -0.4307033483
O   O8        1.0  0.87126  0.59016  0.14725  1.0000 -0.4307033483
O   O9        1.0  0.63719  0.84001  0.37800  1.0000 -0.4399463352
O   O10       1.0  0.86281  0.34001  0.62200  1.0000 -0.4494300103
O   O11       1.0  0.36281  0.15999  0.62200  1.0000 -0.4494300103
O   O12       1.0  0.13719  0.65999  0.37800  1.0000 -0.4494300103
O   O13       1.0  0.65552  0.90519  0.38666  1.0000 -0.4186276841
O   O14       1.0  0.84448  0.40519  0.61334  1.0000 -0.4186276841
O   O15       1.0  0.34448  0.09481  0.61334  1.0000 -0.4186276841
O   O16       1.0  0.15552  0.59481  0.38666  1.0000 -0.4132859047
O   O17       1.0  0.35233  0.79339  0.37549  1.0000 -0.4494300103
O   O18       1.0  0.14767  0.29339  0.62451  1.0000 -0.4494300103
O   O19       1.0  0.64767  0.20661  0.62451  1.0000 -0.4494300103
O   O20       1.0  0.85233  0.70661  0.37549  1.0000 -0.4494300103
O   O21       1.0  0.16870  0.75115  0.40620  1.0000 -0.3861955505
O   O22       1.0  0.33130  0.25115  0.59380  1.0000 -0.3861955505
O   O23       1.0  0.83130  0.24885  0.59380  1.0000 -0.3861955505
O   O24       1.0  0.66870  0.74885  0.40620  1.0000 -0.3861955505
O   O25       1.0  0.37848  0.75396  0.12291  1.0000 -0.4494300103
O   O26       1.0  0.12152  0.25396  0.87709  1.0000 -0.4494300103
O   O27       1.0  0.62152  0.24604  0.87709  1.0000 -0.4494300103
O   O28       1.0  0.87848  0.74604  0.12291  1.0000 -0.4494300103
O   O29       1.0  0.18499  0.71241  0.13690  1.0000 -0.4132859047
O   O30       1.0  0.31501  0.21241  0.86310  1.0000 -0.4132859047
O   O31       1.0  0.81501  0.28759  0.86310  1.0000 -0.4132859047
O   O32       1.0  0.68499  0.78759  0.13690  1.0000 -0.4132859047
O   O33       1.0  0.61757  0.95954  0.09173  1.0000 -0.4494300103
O   O34       1.0  0.88243  0.45954  0.90827  1.0000 -0.4494300103
O   O35       1.0  0.38243  0.04046  0.90827  1.0000 -0.4494300103
O   O36       1.0  0.11757  0.54046  0.09173  1.0000 -0.4494300103
O   O37       1.0  0.65370  0.00100  0.90960  1.0000 -0.4014465537
O   O38       1.0  0.84630  0.50100  0.09040  1.0000 -0.4014465537
O   O39       1.0  0.34630  0.99900  0.09040  1.0000 -0.4014465537
O   O40       1.0  0.15370  0.49900  0.90960  1.0000 -0.4014465537
O   O41       1.0  0.38390  0.95835  0.42873  1.0000 -0.4307033483
O   O42       1.0  0.11610  0.45835  0.57127  1.0000 -0.4307033483
O   O43       1.0  0.61610  0.04165  0.57127  1.0000 -0.4307033483
O   O44       1.0  0.88390  0.54165  0.42873  1.0000 -0.4307033483
O   O45       1.0  0.37236  0.00071  0.62000  1.0000 -0.4399463352
O   O46       1.0  0.12764  0.50071  0.38000  1.0000 -0.4399463352
O   O47       1.0  0.62764  0.99929  0.38000  1.0000 -0.4399463352
O   O48       1.0  0.87236  0.49929  0.62000  1.0000 -0.4399463352
