# DDEC6 charges by PACMAN v1.1 (https://github.com/mtap-research/PACMAN-charge/)
data_2012[Zn][nan]3[FSR]25
_chemical_formula_sum              "Zn8 H60 C56 N4 O32"
_cell_length_a       10.334
_cell_length_b       11.672
_cell_length_c       20.341
_cell_angle_alpha    90
_cell_angle_beta     90
_cell_angle_gamma    90

_symmetry_space_group_name_H-M    "P 1"
_symmetry_Int_Tables_number       1

loop_
  _symmetry_equiv_pos_as_xyz
  'x, y, z'

loop_
  _atom_site_type_symbol
  _atom_site_label
  _atom_site_symmetry_multiplicity
  _atom_site_fract_x
  _atom_site_fract_y
  _atom_site_fract_z
  _atom_site_occupancy
  _atom_site_charge
Zn  Zn1       1.0  0.84731  0.32513  0.98854  1.0000 0.9503471571
Zn  Zn2       1.0  0.65269  0.67487  0.48854  1.0000 0.9503471571
Zn  Zn3       1.0  0.15269  0.82513  0.51146  1.0000 0.9503471571
Zn  Zn4       1.0  0.34731  0.17487  0.01146  1.0000 0.9503471571
Zn  Zn5       1.0  0.53438  0.41947  0.99283  1.0000 0.9638061392
Zn  Zn6       1.0  0.96562  0.58053  0.49283  1.0000 0.9638061392
Zn  Zn7       1.0  0.46562  0.91947  0.50717  1.0000 0.9638061392
Zn  Zn8       1.0  0.03438  0.08053  0.00717  1.0000 0.9638061392
H   H1        1.0  0.93590  0.43930  0.17810  1.0000 0.13048681
H   H2        1.0  0.56410  0.56070  0.67810  1.0000 0.13048681
H   H3        1.0  0.06410  0.93930  0.32190  1.0000 0.13048681
H   H4        1.0  0.43590  0.06070  0.82190  1.0000 0.13048681
H   H5        1.0  0.56000  0.52810  0.19200  1.0000 0.1089464341
H   H6        1.0  0.94000  0.47190  0.69200  1.0000 0.1089464341
H   H7        1.0  0.44000  0.02810  0.30800  1.0000 0.1089464341
H   H8        1.0  0.06000  0.97190  0.80800  1.0000 0.1089464341
H   H9        1.0  0.96520  0.48540  0.28860  1.0000 0.1248393374
H   H10       1.0  0.53480  0.51460  0.78860  1.0000 0.1248393374
H   H11       1.0  0.03480  0.98540  0.21140  1.0000 0.13048681
H   H12       1.0  0.46520  0.01460  0.71140  1.0000 0.1248393374
H   H13       1.0  0.58810  0.56800  0.30240  1.0000 0.13048681
H   H14       1.0  0.91190  0.43200  0.80240  1.0000 0.13048681
H   H15       1.0  0.41190  0.06800  0.19760  1.0000 0.13048681
H   H16       1.0  0.08810  0.93200  0.69760  1.0000 0.13048681
H   H17       1.0  0.75590  0.02770  0.01280  1.0000 0.0921631622
H   H18       1.0  0.74410  0.97230  0.51280  1.0000 0.0921631622
H   H19       1.0  0.24410  0.52770  0.48720  1.0000 0.0921631622
H   H20       1.0  0.25590  0.47230  0.98720  1.0000 0.0921631622
H   H21       1.0  0.84330  0.05330  0.11840  1.0000 0.1415805528
H   H22       1.0  0.65670  0.94670  0.61840  1.0000 0.1415805528
H   H23       1.0  0.15670  0.55330  0.38160  1.0000 0.1415805528
H   H24       1.0  0.34330  0.44670  0.88160  1.0000 0.1415805528
H   H25       1.0  0.69180  0.05330  0.12180  1.0000 0.13048681
H   H26       1.0  0.80820  0.94670  0.62180  1.0000 0.13048681
H   H27       1.0  0.30820  0.55330  0.37820  1.0000 0.13048681
H   H28       1.0  0.19180  0.44670  0.87820  1.0000 0.13048681
H   H29       1.0  0.76810  0.16920  0.12560  1.0000 0.1415805528
H   H30       1.0  0.73190  0.83080  0.62560  1.0000 0.1415805528
H   H31       1.0  0.23190  0.66920  0.37440  1.0000 0.1415805528
H   H32       1.0  0.26810  0.33080  0.87440  1.0000 0.1415805528
H   H33       1.0  0.54330  0.64000  0.07200  1.0000 0.099580733
H   H34       1.0  0.95670  0.36000  0.57200  1.0000 0.099580733
H   H35       1.0  0.45670  0.14000  0.42800  1.0000 0.099580733
H   H36       1.0  0.04330  0.86000  0.92800  1.0000 0.099580733
H   H37       1.0  0.54530  0.81220  0.12060  1.0000 0.13048681
H   H38       1.0  0.95470  0.18780  0.62060  1.0000 0.13048681
H   H39       1.0  0.45470  0.31220  0.37940  1.0000 0.13048681
H   H40       1.0  0.04530  0.68780  0.87940  1.0000 0.13048681
H   H41       1.0  0.40660  0.86660  0.12000  1.0000 0.1415805528
H   H42       1.0  0.09340  0.13340  0.62000  1.0000 0.1415805528
H   H43       1.0  0.59340  0.36660  0.38000  1.0000 0.1415805528
H   H44       1.0  0.90660  0.63340  0.88000  1.0000 0.1415805528
H   H45       1.0  0.51460  0.91510  0.07360  1.0000 0.1586962918
H   H46       1.0  0.98540  0.08490  0.57360  1.0000 0.1586962918
H   H47       1.0  0.48540  0.41510  0.42640  1.0000 0.1586962918
H   H48       1.0  0.01460  0.58490  0.92640  1.0000 0.1586962918
H   H49       1.0  0.32390  0.74370  0.96360  1.0000 0.1415805528
H   H50       1.0  0.17610  0.25630  0.46360  1.0000 0.1415805528
H   H51       1.0  0.67610  0.24370  0.53640  1.0000 0.1415805528
H   H52       1.0  0.82390  0.75630  0.03640  1.0000 0.1415805528
H   H53       1.0  0.37090  0.87060  0.97190  1.0000 0.1480903717
H   H54       1.0  0.12910  0.12940  0.47190  1.0000 0.1480903717
H   H55       1.0  0.62910  0.37060  0.52810  1.0000 0.1480903717
H   H56       1.0  0.87090  0.62940  0.02810  1.0000 0.1480903717
H   H57       1.0  0.26280  0.82160  0.01820  1.0000 0.1415805528
H   H58       1.0  0.23720  0.17840  0.51820  1.0000 0.1415805528
H   H59       1.0  0.73720  0.32160  0.48180  1.0000 0.1415805528
H   H60       1.0  0.76280  0.67840  0.98180  1.0000 0.1415805528
C   C1        1.0  0.72370  0.44360  0.10387  1.0000 0.5807375478
C   C2        1.0  0.77630  0.55640  0.60387  1.0000 0.5807375478
C   C3        1.0  0.27630  0.94360  0.39613  1.0000 0.5807375478
C   C4        1.0  0.22370  0.05640  0.89613  1.0000 0.5807375478
C   C5        1.0  0.74390  0.47580  0.17451  1.0000 -0.0353931339
C   C6        1.0  0.75610  0.52420  0.67451  1.0000 -0.0353931339
C   C7        1.0  0.25610  0.97580  0.32549  1.0000 -0.0353931339
C   C8        1.0  0.24390  0.02420  0.82549  1.0000 -0.0353931339
C   C9        1.0  0.86630  0.46480  0.20312  1.0000 -0.1046494303
C   C10       1.0  0.63370  0.53520  0.70312  1.0000 -0.1089736599
C   C11       1.0  0.13370  0.96480  0.29688  1.0000 -0.1089736599
C   C12       1.0  0.36630  0.03520  0.79688  1.0000 -0.1089736599
C   C13       1.0  0.64050  0.51730  0.21160  1.0000 -0.1159944256
C   C14       1.0  0.85950  0.48270  0.71160  1.0000 -0.1159944256
C   C15       1.0  0.35950  0.01730  0.28840  1.0000 -0.1159944256
C   C16       1.0  0.14050  0.98270  0.78840  1.0000 -0.1159944256
C   C17       1.0  0.88390  0.49210  0.26940  1.0000 -0.1089736599
C   C18       1.0  0.61610  0.50790  0.76940  1.0000 -0.1089736599
C   C19       1.0  0.11610  0.99210  0.23060  1.0000 -0.1089736599
C   C20       1.0  0.38390  0.00790  0.73060  1.0000 -0.1089736599
C   C21       1.0  0.65760  0.54240  0.27736  1.0000 -0.1089736599
C   C22       1.0  0.84240  0.45760  0.77736  1.0000 -0.1089736599
C   C23       1.0  0.34240  0.04240  0.22264  1.0000 -0.1089736599
C   C24       1.0  0.15760  0.95760  0.72264  1.0000 -0.1089736599
C   C25       1.0  0.77900  0.52930  0.30636  1.0000 -0.0254675053
C   C26       1.0  0.72100  0.47070  0.80636  1.0000 -0.0254675053
C   C27       1.0  0.22100  0.02930  0.19364  1.0000 -0.0254675053
C   C28       1.0  0.27900  0.97070  0.69364  1.0000 -0.0254675053
C   C29       1.0  0.79480  0.55410  0.37917  1.0000 0.5807375478
C   C30       1.0  0.70520  0.44590  0.87917  1.0000 0.5807375478
C   C31       1.0  0.20520  0.05410  0.12083  1.0000 0.5807375478
C   C32       1.0  0.29480  0.94590  0.62083  1.0000 0.5807375478
C   C33       1.0  0.63750  0.16880  0.01257  1.0000 0.5872903186
C   C34       1.0  0.86250  0.83120  0.51257  1.0000 0.5872903186
C   C35       1.0  0.36250  0.66880  0.48743  1.0000 0.5872903186
C   C36       1.0  0.13750  0.33120  0.98743  1.0000 0.5872903186
C   C37       1.0  0.76000  0.10490  0.03165  1.0000 0.1089464341
C   C38       1.0  0.74000  0.89510  0.53165  1.0000 0.1089464341
C   C39       1.0  0.24000  0.60490  0.46835  1.0000 0.1089464341
C   C40       1.0  0.26000  0.39510  0.96835  1.0000 0.1089464341
C   C41       1.0  0.76640  0.09420  0.10628  1.0000 -0.4676096273
C   C42       1.0  0.73360  0.90580  0.60628  1.0000 -0.4676096273
C   C43       1.0  0.23360  0.59420  0.39372  1.0000 -0.4676096273
C   C44       1.0  0.26640  0.40580  0.89372  1.0000 -0.4676096273
C   C45       1.0  0.48460  0.66110  0.03948  1.0000 0.2833044547
C   C46       1.0  0.01540  0.33890  0.53948  1.0000 0.2833044547
C   C47       1.0  0.51540  0.16110  0.46052  1.0000 0.2833044547
C   C48       1.0  0.98460  0.83890  0.96052  1.0000 0.2833044547
C   C49       1.0  0.48020  0.84700  0.09350  1.0000 -0.3523801101
C   C50       1.0  0.01980  0.15300  0.59350  1.0000 -0.3523801101
C   C51       1.0  0.51980  0.34700  0.40650  1.0000 -0.3523801101
C   C52       1.0  0.98020  0.65300  0.90650  1.0000 -0.3523801101
C   C53       1.0  0.34090  0.80360  0.99470  1.0000 -0.3402527703
C   C54       1.0  0.15910  0.19640  0.49470  1.0000 -0.3402527703
C   C55       1.0  0.65910  0.30360  0.50530  1.0000 -0.3402527703
C   C56       1.0  0.84090  0.69640  0.00530  1.0000 -0.3402527703
N   N1        1.0  0.44030  0.76550  0.04140  1.0000 0.0389121192
N   N2        1.0  0.05970  0.23450  0.54140  1.0000 0.0389121192
N   N3        1.0  0.55970  0.26550  0.45860  1.0000 0.0389121192
N   N4        1.0  0.94030  0.73450  0.95860  1.0000 0.0389121192
O   O1        1.0  0.82340  0.41710  0.07101  1.0000 -0.5512232241
O   O2        1.0  0.67660  0.58290  0.57101  1.0000 -0.5512232241
O   O3        1.0  0.17660  0.91710  0.42899  1.0000 -0.5512232241
O   O4        1.0  0.32340  0.08290  0.92899  1.0000 -0.5512232241
O   O5        1.0  0.60910  0.44620  0.08297  1.0000 -0.5678293539
O   O6        1.0  0.89090  0.55380  0.58297  1.0000 -0.5678293539
O   O7        1.0  0.39090  0.94620  0.41703  1.0000 -0.5678293539
O   O8        1.0  0.10910  0.05380  0.91703  1.0000 -0.5678293539
O   O9        1.0  0.90520  0.53990  0.40334  1.0000 -0.543810649
O   O10       1.0  0.59480  0.46010  0.90334  1.0000 -0.543810649
O   O11       1.0  0.09480  0.03990  0.09666  1.0000 -0.543810649
O   O12       1.0  0.40520  0.96010  0.59666  1.0000 -0.543810649
O   O13       1.0  0.69440  0.58380  0.40903  1.0000 -0.5512232241
O   O14       1.0  0.80560  0.41620  0.90903  1.0000 -0.5512232241
O   O15       1.0  0.30560  0.08380  0.09097  1.0000 -0.5512232241
O   O16       1.0  0.19440  0.91620  0.59097  1.0000 -0.5512232241
O   O17       1.0  0.64960  0.26876  0.99016  1.0000 -0.5759936852
O   O18       1.0  0.85040  0.73124  0.49016  1.0000 -0.5759936852
O   O19       1.0  0.35040  0.76876  0.50984  1.0000 -0.5759936852
O   O20       1.0  0.14960  0.23124  0.00984  1.0000 -0.5759936852
O   O21       1.0  0.53130  0.11970  0.02414  1.0000 -0.5267699195
O   O22       1.0  0.96870  0.88030  0.52414  1.0000 -0.5267699195
O   O23       1.0  0.46870  0.61970  0.47586  1.0000 -0.5267699195
O   O24       1.0  0.03130  0.38030  0.97586  1.0000 -0.5267699195
O   O25       1.0  0.87070  0.16134  0.00579  1.0000 -0.6265865547
O   O26       1.0  0.62930  0.83866  0.50579  1.0000 -0.6265865547
O   O27       1.0  0.12930  0.66134  0.49421  1.0000 -0.6265865547
O   O28       1.0  0.37070  0.33866  0.99421  1.0000 -0.6265865547
O   O29       1.0  0.45550  0.58719  0.99823  1.0000 -0.451285815
O   O30       1.0  0.04450  0.41281  0.49823  1.0000 -0.451285815
O   O31       1.0  0.54450  0.08719  0.50177  1.0000 -0.451285815
O   O32       1.0  0.95550  0.91281  0.00177  1.0000 -0.451285815
