# DDEC6 charges by PACMAN v1.1 (https://github.com/mtap-research/PACMAN-charge/)
data_2012[Gd][pcu]3[FSR]3
_chemical_formula_sum              "Gd8 H160 C216 N64 O160"
_cell_length_a       13.307
_cell_length_b       30.217
_cell_length_c       25.693
_cell_angle_alpha    90
_cell_angle_beta     112.688
_cell_angle_gamma    90

_symmetry_space_group_name_H-M    "P 1"
_symmetry_Int_Tables_number       1

loop_
  _symmetry_equiv_pos_as_xyz
  'x, y, z'

loop_
  _atom_site_type_symbol
  _atom_site_label
  _atom_site_symmetry_multiplicity
  _atom_site_fract_x
  _atom_site_fract_y
  _atom_site_fract_z
  _atom_site_occupancy
  _atom_site_charge
Gd  Gd1       1.0  0.87484  0.22873  0.72965  1.0000 1.9908425016
Gd  Gd2       1.0  0.12516  0.72873  0.77035  1.0000 1.9908425016
Gd  Gd3       1.0  0.12516  0.77127  0.27035  1.0000 1.9908425016
Gd  Gd4       1.0  0.87484  0.27127  0.22965  1.0000 1.9908425016
Gd  Gd5       1.0  0.63834  0.25145  0.79020  1.0000 1.9908425016
Gd  Gd6       1.0  0.36166  0.75145  0.70980  1.0000 1.9908425016
Gd  Gd7       1.0  0.36166  0.74855  0.20980  1.0000 1.9908425016
Gd  Gd8       1.0  0.63834  0.24855  0.29020  1.0000 1.9908425016
H   H1        1.0  0.47330  0.27740  0.65330  1.0000 0.149422721
H   H2        1.0  0.52670  0.77740  0.84670  1.0000 0.149422721
H   H3        1.0  0.52670  0.72260  0.34670  1.0000 0.149422721
H   H4        1.0  0.47330  0.22260  0.15330  1.0000 0.149422721
H   H5        1.0  0.55870  0.20250  0.54930  1.0000 0.1402651062
H   H6        1.0  0.44130  0.70250  0.95070  1.0000 0.1402651062
H   H7        1.0  0.44130  0.79750  0.45070  1.0000 0.1402651062
H   H8        1.0  0.55870  0.29750  0.04930  1.0000 0.1402651062
H   H9        1.0  0.96040  0.20630  0.46160  1.0000 0.1402651062
H   H10       1.0  0.03960  0.70630  0.03840  1.0000 0.1402651062
H   H11       1.0  0.03960  0.79370  0.53840  1.0000 0.1402651062
H   H12       1.0  0.96040  0.29370  0.96160  1.0000 0.1402651062
H   H13       1.0  0.04360  0.29320  0.36570  1.0000 0.149422721
H   H14       1.0  0.95640  0.79320  0.13430  1.0000 0.149422721
H   H15       1.0  0.95640  0.70680  0.63430  1.0000 0.149422721
H   H16       1.0  0.04360  0.20680  0.86570  1.0000 0.149422721
H   H17       1.0  0.84710  0.60980  0.68170  1.0000 0.1402651062
H   H18       1.0  0.15290  0.10980  0.81830  1.0000 0.1402651062
H   H19       1.0  0.15290  0.39020  0.31830  1.0000 0.1402651062
H   H20       1.0  0.84710  0.89020  0.18170  1.0000 0.1402651062
H   H21       1.0  0.05270  0.58790  0.83980  1.0000 0.1402651062
H   H22       1.0  0.94730  0.08790  0.66020  1.0000 0.1402651062
H   H23       1.0  0.94730  0.41210  0.16020  1.0000 0.1402651062
H   H24       1.0  0.05270  0.91210  0.33980  1.0000 0.1402651062
H   H25       1.0  0.90390  0.37350  0.70700  1.0000 0.1402651062
H   H26       1.0  0.09610  0.87350  0.79300  1.0000 0.1402651062
H   H27       1.0  0.09610  0.62650  0.29300  1.0000 0.1402651062
H   H28       1.0  0.90390  0.12650  0.20700  1.0000 0.1402651062
H   H29       1.0  0.71250  0.39960  0.78910  1.0000 0.149422721
H   H30       1.0  0.28750  0.89960  0.71090  1.0000 0.149422721
H   H31       1.0  0.28750  0.60040  0.21090  1.0000 0.149422721
H   H32       1.0  0.71250  0.10040  0.28910  1.0000 0.149422721
H   H33       1.0  0.79740  0.08260  0.72480  1.0000 0.149422721
H   H34       1.0  0.20260  0.58260  0.77520  1.0000 0.149422721
H   H35       1.0  0.20260  0.91740  0.27520  1.0000 0.149422721
H   H36       1.0  0.79740  0.41740  0.22480  1.0000 0.149422721
H   H37       1.0  0.58890  0.10570  0.79860  1.0000 0.1402651062
H   H38       1.0  0.41110  0.60570  0.70140  1.0000 0.1402651062
H   H39       1.0  0.41110  0.89430  0.20140  1.0000 0.1402651062
H   H40       1.0  0.58890  0.39430  0.29860  1.0000 0.1402651062
H   H41       1.0  0.43820  0.89780  0.64450  1.0000 0.149422721
H   H42       1.0  0.56180  0.39780  0.85550  1.0000 0.149422721
H   H43       1.0  0.56180  0.10220  0.35550  1.0000 0.149422721
H   H44       1.0  0.43820  0.60220  0.14450  1.0000 0.149422721
H   H45       1.0  0.63480  0.86710  0.80180  1.0000 0.1402651062
H   H46       1.0  0.36520  0.36710  0.69820  1.0000 0.1402651062
H   H47       1.0  0.36520  0.13290  0.19820  1.0000 0.1402651062
H   H48       1.0  0.63480  0.63290  0.30180  1.0000 0.1402651062
H   H49       1.0  0.87270  0.23970  0.59490  1.0000 0.1103803072
H   H50       1.0  0.12730  0.73970  0.90510  1.0000 0.1103803072
H   H51       1.0  0.12730  0.76030  0.40510  1.0000 0.1103803072
H   H52       1.0  0.87270  0.26030  0.09490  1.0000 0.1103803072
H   H53       1.0  0.84080  0.27600  0.51110  1.0000 0.1207098223
H   H54       1.0  0.15920  0.77600  0.98890  1.0000 0.1207098223
H   H55       1.0  0.15920  0.72400  0.48890  1.0000 0.1207098223
H   H56       1.0  0.84080  0.22400  0.01110  1.0000 0.1207098223
H   H57       1.0  0.88420  0.32450  0.51360  1.0000 0.1402651062
H   H58       1.0  0.11580  0.82450  0.98640  1.0000 0.1402651062
H   H59       1.0  0.11580  0.67550  0.48640  1.0000 0.1402651062
H   H60       1.0  0.88420  0.17550  0.01360  1.0000 0.1402651062
H   H61       1.0  0.96010  0.28430  0.51560  1.0000 0.1207098223
H   H62       1.0  0.03990  0.78430  0.98440  1.0000 0.1207098223
H   H63       1.0  0.03990  0.71570  0.48440  1.0000 0.1207098223
H   H64       1.0  0.96010  0.21570  0.01560  1.0000 0.1207098223
H   H65       1.0  0.03350  0.32670  0.65760  1.0000 0.1303266218
H   H66       1.0  0.96650  0.82670  0.84240  1.0000 0.1303266218
H   H67       1.0  0.96650  0.67330  0.34240  1.0000 0.1303266218
H   H68       1.0  0.03350  0.17330  0.15760  1.0000 0.1303266218
H   H69       1.0  0.06880  0.33400  0.60660  1.0000 0.1207098223
H   H70       1.0  0.93120  0.83400  0.89340  1.0000 0.1207098223
H   H71       1.0  0.93120  0.66600  0.39340  1.0000 0.1207098223
H   H72       1.0  0.06880  0.16600  0.10660  1.0000 0.1207098223
H   H73       1.0  0.96490  0.35780  0.60760  1.0000 0.1303266218
H   H74       1.0  0.03510  0.85780  0.89240  1.0000 0.1303266218
H   H75       1.0  0.03510  0.64220  0.39240  1.0000 0.1303266218
H   H76       1.0  0.96490  0.14220  0.10760  1.0000 0.1303266218
H   H77       1.0  0.03260  0.31740  0.79250  1.0000 0.149422721
H   H78       1.0  0.96740  0.81740  0.70750  1.0000 0.149422721
H   H79       1.0  0.96740  0.68260  0.20750  1.0000 0.149422721
H   H80       1.0  0.03260  0.18260  0.29250  1.0000 0.149422721
H   H81       1.0  0.22570  0.25990  0.78380  1.0000 0.1402651062
H   H82       1.0  0.77430  0.75990  0.71620  1.0000 0.1402651062
H   H83       1.0  0.77430  0.74010  0.21620  1.0000 0.1402651062
H   H84       1.0  0.22570  0.24010  0.28380  1.0000 0.1402651062
H   H85       1.0  0.28360  0.30100  0.77050  1.0000 0.1402651062
H   H86       1.0  0.71640  0.80100  0.72950  1.0000 0.1402651062
H   H87       1.0  0.71640  0.69900  0.22950  1.0000 0.1402651062
H   H88       1.0  0.28360  0.19900  0.27050  1.0000 0.1402651062
H   H89       1.0  0.31360  0.28610  0.83310  1.0000 0.1303266218
H   H90       1.0  0.68640  0.78610  0.66690  1.0000 0.1303266218
H   H91       1.0  0.68640  0.71390  0.16690  1.0000 0.1303266218
H   H92       1.0  0.31360  0.21390  0.33310  1.0000 0.1303266218
H   H93       1.0  0.14100  0.38280  0.79340  1.0000 0.1207098223
H   H94       1.0  0.85900  0.88280  0.70660  1.0000 0.1207098223
H   H95       1.0  0.85900  0.61720  0.20660  1.0000 0.1207098223
H   H96       1.0  0.14100  0.11720  0.29340  1.0000 0.1207098223
H   H97       1.0  0.24040  0.36940  0.84820  1.0000 0.1402651062
H   H98       1.0  0.75960  0.86940  0.65180  1.0000 0.1402651062
H   H99       1.0  0.75960  0.63060  0.15180  1.0000 0.1402651062
H   H100      1.0  0.24040  0.13060  0.34820  1.0000 0.1402651062
H   H101      1.0  0.25150  0.36900  0.78960  1.0000 0.1303266218
H   H102      1.0  0.74850  0.86900  0.71040  1.0000 0.1303266218
H   H103      1.0  0.74850  0.63100  0.21040  1.0000 0.1303266218
H   H104      1.0  0.25150  0.13100  0.28960  1.0000 0.1303266218
H   H105      1.0  0.45210  0.16830  0.69780  1.0000 0.1207098223
H   H106      1.0  0.54790  0.66830  0.80220  1.0000 0.1207098223
H   H107      1.0  0.54790  0.83170  0.30220  1.0000 0.1207098223
H   H108      1.0  0.45210  0.33170  0.19780  1.0000 0.1207098223
H   H109      1.0  0.23980  0.22180  0.69280  1.0000 0.1303266218
H   H110      1.0  0.76020  0.72180  0.80720  1.0000 0.1303266218
H   H111      1.0  0.76020  0.77820  0.30720  1.0000 0.1303266218
H   H112      1.0  0.23980  0.27820  0.19280  1.0000 0.1303266218
H   H113      1.0  0.17240  0.17780  0.68290  1.0000 0.1402651062
H   H114      1.0  0.82760  0.67780  0.81710  1.0000 0.1402651062
H   H115      1.0  0.82760  0.82220  0.31710  1.0000 0.1402651062
H   H116      1.0  0.17240  0.32220  0.18290  1.0000 0.1402651062
H   H117      1.0  0.23190  0.19620  0.74420  1.0000 0.1402651062
H   H118      1.0  0.76810  0.69620  0.75580  1.0000 0.1402651062
H   H119      1.0  0.76810  0.80380  0.25580  1.0000 0.1402651062
H   H120      1.0  0.23190  0.30380  0.24420  1.0000 0.1402651062
H   H121      1.0  0.22770  0.12750  0.65850  1.0000 0.1303266218
H   H122      1.0  0.77230  0.62750  0.84150  1.0000 0.1303266218
H   H123      1.0  0.77230  0.87250  0.34150  1.0000 0.1303266218
H   H124      1.0  0.22770  0.37250  0.15850  1.0000 0.1303266218
H   H125      1.0  0.34900  0.11200  0.67790  1.0000 0.1303266218
H   H126      1.0  0.65100  0.61200  0.82210  1.0000 0.1303266218
H   H127      1.0  0.65100  0.88800  0.32210  1.0000 0.1303266218
H   H128      1.0  0.34900  0.38800  0.17790  1.0000 0.1303266218
H   H129      1.0  0.28660  0.10620  0.71820  1.0000 0.1402651062
H   H130      1.0  0.71340  0.60620  0.78180  1.0000 0.1402651062
H   H131      1.0  0.71340  0.89380  0.28180  1.0000 0.1402651062
H   H132      1.0  0.28660  0.39380  0.21820  1.0000 0.1402651062
H   H133      1.0  0.63340  0.24860  0.91970  1.0000 0.1103803072
H   H134      1.0  0.36660  0.74860  0.58030  1.0000 0.1103803072
H   H135      1.0  0.36660  0.75140  0.08030  1.0000 0.1103803072
H   H136      1.0  0.63340  0.25140  0.41970  1.0000 0.1103803072
H   H137      1.0  0.57660  0.12260  0.93080  1.0000 0.1303266218
H   H138      1.0  0.42340  0.62260  0.56920  1.0000 0.1303266218
H   H139      1.0  0.42340  0.87740  0.06920  1.0000 0.1303266218
H   H140      1.0  0.57660  0.37740  0.43080  1.0000 0.1303266218
H   H141      1.0  0.45940  0.14290  0.91130  1.0000 0.1207098223
H   H142      1.0  0.54060  0.64290  0.58870  1.0000 0.1207098223
H   H143      1.0  0.54060  0.85710  0.08870  1.0000 0.1207098223
H   H144      1.0  0.45940  0.35710  0.41130  1.0000 0.1207098223
H   H145      1.0  0.52390  0.14540  0.87160  1.0000 0.1303266218
H   H146      1.0  0.47610  0.64540  0.62840  1.0000 0.1303266218
H   H147      1.0  0.47610  0.85460  0.12840  1.0000 0.1303266218
H   H148      1.0  0.52390  0.35460  0.37160  1.0000 0.1303266218
H   H149      1.0  0.54870  0.20200  0.00950  1.0000 0.1207098223
H   H150      1.0  0.45130  0.70200  0.49050  1.0000 0.1207098223
H   H151      1.0  0.45130  0.79800  0.99050  1.0000 0.1207098223
H   H152      1.0  0.54870  0.29800  0.50950  1.0000 0.1207098223
H   H153      1.0  0.65210  0.17240  0.02170  1.0000 0.1303266218
H   H154      1.0  0.34790  0.67240  0.47830  1.0000 0.1303266218
H   H155      1.0  0.34790  0.82760  0.97830  1.0000 0.1303266218
H   H156      1.0  0.65210  0.32760  0.52170  1.0000 0.1303266218
H   H157      1.0  0.65840  0.22360  0.01320  1.0000 0.1103803072
H   H158      1.0  0.34160  0.72360  0.48680  1.0000 0.1103803072
H   H159      1.0  0.34160  0.77640  0.98680  1.0000 0.1103803072
H   H160      1.0  0.65840  0.27640  0.51320  1.0000 0.1103803072
C   C1        1.0  0.64580  0.23420  0.65260  1.0000 0.6048212452
C   C2        1.0  0.35420  0.73420  0.84740  1.0000 0.6048212452
C   C3        1.0  0.35420  0.76580  0.34740  1.0000 0.6048212452
C   C4        1.0  0.64580  0.26580  0.15260  1.0000 0.6048212452
C   C5        1.0  0.53360  0.23880  0.60890  1.0000 0.0098490354
C   C6        1.0  0.46640  0.73880  0.89110  1.0000 0.0098490354
C   C7        1.0  0.46640  0.76120  0.39110  1.0000 0.0098490354
C   C8        1.0  0.53360  0.26120  0.10890  1.0000 0.0098490354
C   C9        1.0  0.45610  0.26270  0.61910  1.0000 -0.1394122191
C   C10       1.0  0.54390  0.76270  0.88090  1.0000 -0.1394122191
C   C11       1.0  0.54390  0.73730  0.38090  1.0000 -0.1394122191
C   C12       1.0  0.45610  0.23730  0.11910  1.0000 -0.1394122191
C   C13       1.0  0.34900  0.26500  0.57710  1.0000 0.020453793
C   C14       1.0  0.65100  0.76500  0.92290  1.0000 0.020453793
C   C15       1.0  0.65100  0.73500  0.42290  1.0000 0.020453793
C   C16       1.0  0.34900  0.23500  0.07710  1.0000 0.020453793
C   C17       1.0  0.32120  0.24370  0.52590  1.0000 -0.0202557649
C   C18       1.0  0.67880  0.74370  0.97410  1.0000 -0.0202557649
C   C19       1.0  0.67880  0.75630  0.47410  1.0000 -0.0202557649
C   C20       1.0  0.32120  0.25630  0.02590  1.0000 -0.0202557649
C   C21       1.0  0.40070  0.22010  0.51840  1.0000 0.0312186891
C   C22       1.0  0.59930  0.72010  0.98160  1.0000 0.0312186891
C   C23       1.0  0.59930  0.77990  0.48160  1.0000 0.0312186891
C   C24       1.0  0.40070  0.27990  0.01840  1.0000 0.0312186891
C   C25       1.0  0.50620  0.21800  0.55750  1.0000 -0.1394122191
C   C26       1.0  0.49380  0.71800  0.94250  1.0000 -0.1394122191
C   C27       1.0  0.49380  0.78200  0.44250  1.0000 -0.1394122191
C   C28       1.0  0.50620  0.28200  0.05750  1.0000 -0.1394122191
C   C29       1.0  0.20380  0.24550  0.48200  1.0000 -0.0337276887
C   C30       1.0  0.79620  0.74550  0.01800  1.0000 -0.0337276887
C   C31       1.0  0.79620  0.75450  0.51800  1.0000 -0.0337276887
C   C32       1.0  0.20380  0.25450  0.98200  1.0000 -0.0337276887
C   C33       1.0  0.11910  0.22170  0.48970  1.0000 0.0405026714
C   C34       1.0  0.88090  0.72170  0.01030  1.0000 0.0405026714
C   C35       1.0  0.88090  0.77830  0.51030  1.0000 0.0405026714
C   C36       1.0  0.11910  0.27830  0.98970  1.0000 0.0405026714
C   C37       1.0  0.01230  0.22280  0.45410  1.0000 -0.1394122191
C   C38       1.0  0.98770  0.72280  0.04590  1.0000 -0.1394122191
C   C39       1.0  0.98770  0.77720  0.54590  1.0000 -0.1394122191
C   C40       1.0  0.01230  0.27720  0.95410  1.0000 -0.1394122191
C   C41       1.0  0.98280  0.24960  0.40580  1.0000 -0.0084362445
C   C42       1.0  0.01720  0.74960  0.09420  1.0000 -0.0084362445
C   C43       1.0  0.01720  0.75040  0.59420  1.0000 -0.0084362445
C   C44       1.0  0.98280  0.25040  0.90580  1.0000 -0.0084362445
C   C45       1.0  0.06190  0.27480  0.39700  1.0000 -0.1394122191
C   C46       1.0  0.93810  0.77480  0.10300  1.0000 -0.1394122191
C   C47       1.0  0.93810  0.72520  0.60300  1.0000 -0.1394122191
C   C48       1.0  0.06190  0.22520  0.89700  1.0000 -0.1394122191
C   C49       1.0  0.16960  0.27220  0.43590  1.0000 0.0312186891
C   C50       1.0  0.83040  0.77220  0.06410  1.0000 0.0312186891
C   C51       1.0  0.83040  0.72780  0.56410  1.0000 0.0312186891
C   C52       1.0  0.16960  0.22780  0.93590  1.0000 0.0312186891
C   C53       1.0  0.87000  0.25070  0.36540  1.0000 0.6079259022
C   C54       1.0  0.13000  0.75070  0.13460  1.0000 0.6079259022
C   C55       1.0  0.13000  0.74930  0.63460  1.0000 0.6079259022
C   C56       1.0  0.87000  0.24930  0.86540  1.0000 0.6079259022
C   C57       1.0  0.00390  0.65250  0.76650  1.0000 0.5538718505
C   C58       1.0  0.99610  0.15250  0.73350  1.0000 0.5538718505
C   C59       1.0  0.99610  0.34750  0.23350  1.0000 0.5538718505
C   C60       1.0  0.00390  0.84750  0.26650  1.0000 0.5538718505
C   C61       1.0  0.95940  0.60720  0.76170  1.0000 0.0028659003
C   C62       1.0  0.04060  0.10720  0.73830  1.0000 0.0028659003
C   C63       1.0  0.04060  0.39280  0.23830  1.0000 0.0028659003
C   C64       1.0  0.95940  0.89280  0.26170  1.0000 0.0028659003
C   C65       1.0  0.87790  0.59130  0.71270  1.0000 -0.1394122191
C   C66       1.0  0.12210  0.09130  0.78730  1.0000 -0.1394122191
C   C67       1.0  0.12210  0.40870  0.28730  1.0000 -0.1394122191
C   C68       1.0  0.87790  0.90870  0.21270  1.0000 -0.1394122191
C   C69       1.0  0.84230  0.54700  0.71030  1.0000 0.0312186891
C   C70       1.0  0.15770  0.04700  0.78970  1.0000 0.0312186891
C   C71       1.0  0.15770  0.45300  0.28970  1.0000 0.0312186891
C   C72       1.0  0.84230  0.95300  0.21030  1.0000 0.0312186891
C   C73       1.0  0.88590  0.51740  0.75290  1.0000 -0.0032980256
C   C74       1.0  0.11410  0.01740  0.74710  1.0000 -0.0032980256
C   C75       1.0  0.11410  0.48260  0.24710  1.0000 -0.0032980256
C   C76       1.0  0.88590  0.98260  0.25290  1.0000 -0.0032980256
C   C77       1.0  0.96500  0.53430  0.80210  1.0000 -0.0032980256
C   C78       1.0  0.03500  0.03430  0.69790  1.0000 0.0028659003
C   C79       1.0  0.03500  0.46570  0.19790  1.0000 0.0028659003
C   C80       1.0  0.96500  0.96570  0.30210  1.0000 -0.0032980256
C   C81       1.0  0.00000  0.57800  0.80600  1.0000 -0.1394122191
C   C82       1.0  0.00000  0.07800  0.69400  1.0000 -0.1394122191
C   C83       1.0  0.00000  0.42200  0.19400  1.0000 -0.1394122191
C   C84       1.0  0.00000  0.92200  0.30600  1.0000 -0.1394122191
C   C85       1.0  0.85220  0.46880  0.74920  1.0000 0.0098490354
C   C86       1.0  0.14780  0.96880  0.75080  1.0000 0.0098490354
C   C87       1.0  0.14780  0.53120  0.25080  1.0000 0.0098490354
C   C88       1.0  0.85220  0.03120  0.24920  1.0000 0.0098490354
C   C89       1.0  0.89950  0.43730  0.72590  1.0000 0.0312186891
C   C90       1.0  0.10050  0.93730  0.77410  1.0000 0.0312186891
C   C91       1.0  0.10050  0.56270  0.27410  1.0000 0.0312186891
C   C92       1.0  0.89950  0.06270  0.22590  1.0000 0.0312186891
C   C93       1.0  0.87330  0.39340  0.72420  1.0000 -0.1479714503
C   C94       1.0  0.12670  0.89340  0.77580  1.0000 -0.1479714503
C   C95       1.0  0.12670  0.60660  0.27580  1.0000 -0.1479714503
C   C96       1.0  0.87330  0.10660  0.22420  1.0000 -0.1479714503
C   C97       1.0  0.80290  0.37850  0.74730  1.0000 0.020453793
C   C98       1.0  0.19710  0.87850  0.75270  1.0000 0.020453793
C   C99       1.0  0.19710  0.62150  0.25270  1.0000 0.020453793
C   C100      1.0  0.80290  0.12150  0.24730  1.0000 0.020453793
C   C101      1.0  0.75930  0.40880  0.77210  1.0000 -0.1306400234
C   C102      1.0  0.24070  0.90880  0.72790  1.0000 -0.1306400234
C   C103      1.0  0.24070  0.59120  0.22790  1.0000 -0.1306400234
C   C104      1.0  0.75930  0.09120  0.27210  1.0000 -0.1306400234
C   C105      1.0  0.78470  0.45280  0.77190  1.0000 0.0405026714
C   C106      1.0  0.21530  0.95280  0.72810  1.0000 0.0405026714
C   C107      1.0  0.21530  0.54720  0.22810  1.0000 0.0405026714
C   C108      1.0  0.78470  0.04720  0.27190  1.0000 0.0405026714
C   C109      1.0  0.77900  0.32960  0.75110  1.0000 0.6079259022
C   C110      1.0  0.22100  0.82960  0.74890  1.0000 0.6079259022
C   C111      1.0  0.22100  0.67040  0.24890  1.0000 0.6079259022
C   C112      1.0  0.77900  0.17040  0.25110  1.0000 0.6079259022
C   C113      1.0  0.72560  0.15080  0.76740  1.0000 0.6268616123
C   C114      1.0  0.27440  0.65080  0.73260  1.0000 0.6268616123
C   C115      1.0  0.27440  0.84920  0.23260  1.0000 0.6268616123
C   C116      1.0  0.72560  0.34920  0.26740  1.0000 0.6268616123
C   C117      1.0  0.69920  0.10200  0.76390  1.0000 0.0098490354
C   C118      1.0  0.30080  0.60200  0.73610  1.0000 0.0098490354
C   C119      1.0  0.30080  0.89800  0.23610  1.0000 0.0098490354
C   C120      1.0  0.69920  0.39800  0.26390  1.0000 0.0098490354
C   C121      1.0  0.74580  0.07270  0.73830  1.0000 -0.1103647174
C   C122      1.0  0.25420  0.57270  0.76170  1.0000 -0.1103647174
C   C123      1.0  0.25420  0.92730  0.26170  1.0000 -0.1103647174
C   C124      1.0  0.74580  0.42730  0.23830  1.0000 -0.1103647174
C   C125      1.0  0.71640  0.02960  0.73310  1.0000 0.0405026714
C   C126      1.0  0.28360  0.52960  0.76690  1.0000 0.0405026714
C   C127      1.0  0.28360  0.97040  0.26690  1.0000 0.0405026714
C   C128      1.0  0.71640  0.47040  0.23310  1.0000 0.0405026714
C   C129      1.0  0.63930  0.01070  0.75070  1.0000 -0.0202557649
C   C130      1.0  0.36070  0.51070  0.74930  1.0000 -0.0202557649
C   C131      1.0  0.36070  0.98930  0.24930  1.0000 -0.0202557649
C   C132      1.0  0.63930  0.48930  0.25070  1.0000 -0.0202557649
C   C133      1.0  0.59440  0.04190  0.77530  1.0000 0.0405026714
C   C134      1.0  0.40560  0.54190  0.72470  1.0000 0.0405026714
C   C135      1.0  0.40560  0.95810  0.22470  1.0000 0.0405026714
C   C136      1.0  0.59440  0.45810  0.27530  1.0000 0.0405026714
C   C137      1.0  0.62250  0.08660  0.78190  1.0000 -0.1306400234
C   C138      1.0  0.37750  0.58660  0.71810  1.0000 -0.1306400234
C   C139      1.0  0.37750  0.91340  0.21810  1.0000 -0.1306400234
C   C140      1.0  0.62250  0.41340  0.28190  1.0000 -0.1306400234
C   C141      1.0  0.60420  0.96330  0.74090  1.0000 -0.0084362445
C   C142      1.0  0.39580  0.46330  0.75910  1.0000 -0.0084362445
C   C143      1.0  0.39580  0.03670  0.25910  1.0000 -0.0084362445
C   C144      1.0  0.60420  0.53670  0.24090  1.0000 -0.0084362445
C   C145      1.0  0.52850  0.94910  0.69020  1.0000 0.020453793
C   C146      1.0  0.47150  0.44910  0.80980  1.0000 0.020453793
C   C147      1.0  0.47150  0.05090  0.30980  1.0000 0.020453793
C   C148      1.0  0.52850  0.55090  0.19020  1.0000 0.020453793
C   C149      1.0  0.48960  0.90570  0.67970  1.0000 -0.1394122191
C   C150      1.0  0.51040  0.40570  0.82030  1.0000 -0.1394122191
C   C151      1.0  0.51040  0.09430  0.32030  1.0000 -0.1394122191
C   C152      1.0  0.48960  0.59430  0.17970  1.0000 -0.1394122191
C   C153      1.0  0.52860  0.87530  0.72210  1.0000 0.0098490354
C   C154      1.0  0.47140  0.37530  0.77790  1.0000 0.0098490354
C   C155      1.0  0.47140  0.12470  0.27790  1.0000 0.0098490354
C   C156      1.0  0.52860  0.62470  0.22210  1.0000 0.0098490354
C   C157      1.0  0.60720  0.88770  0.77280  1.0000 -0.1394122191
C   C158      1.0  0.39280  0.38770  0.72720  1.0000 -0.1394122191
C   C159      1.0  0.39280  0.11230  0.22720  1.0000 -0.1394122191
C   C160      1.0  0.60720  0.61230  0.27280  1.0000 -0.1394122191
C   C161      1.0  0.64520  0.93010  0.78080  1.0000 0.0312186891
C   C162      1.0  0.35480  0.43010  0.71920  1.0000 0.0312186891
C   C163      1.0  0.35480  0.06990  0.21920  1.0000 0.0312186891
C   C164      1.0  0.64520  0.56990  0.28080  1.0000 0.0312186891
C   C165      1.0  0.48350  0.82960  0.71410  1.0000 0.5551444395
C   C166      1.0  0.51650  0.32960  0.78590  1.0000 0.5551444395
C   C167      1.0  0.51650  0.17040  0.28590  1.0000 0.5551444395
C   C168      1.0  0.48350  0.67040  0.21410  1.0000 0.5551444395
C   C169      1.0  0.91560  0.26270  0.61600  1.0000 0.2941841785
C   C170      1.0  0.08440  0.76270  0.88400  1.0000 0.2941841785
C   C171      1.0  0.08440  0.73730  0.38400  1.0000 0.3017339014
C   C172      1.0  0.91560  0.23730  0.11600  1.0000 0.2941841785
C   C173      1.0  0.90340  0.29480  0.52690  1.0000 -0.3473868529
C   C174      1.0  0.09660  0.79480  0.97310  1.0000 -0.3473868529
C   C175      1.0  0.09660  0.70520  0.47310  1.0000 -0.3473868529
C   C176      1.0  0.90340  0.20520  0.02690  1.0000 -0.3473868529
C   C177      1.0  0.00780  0.33120  0.61750  1.0000 -0.3184150653
C   C178      1.0  0.99220  0.83120  0.88250  1.0000 -0.3184150653
C   C179      1.0  0.99220  0.66880  0.38250  1.0000 -0.3184150653
C   C180      1.0  0.00780  0.16880  0.11750  1.0000 -0.3184150653
C   C181      1.0  0.08420  0.29660  0.79220  1.0000 0.2679786189
C   C182      1.0  0.91580  0.79660  0.70780  1.0000 0.2679786189
C   C183      1.0  0.91580  0.70340  0.20780  1.0000 0.2679786189
C   C184      1.0  0.08420  0.20340  0.29220  1.0000 0.2679786189
C   C185      1.0  0.25560  0.28870  0.79660  1.0000 -0.3638047324
C   C186      1.0  0.74440  0.78870  0.70340  1.0000 -0.3638047324
C   C187      1.0  0.74440  0.71130  0.20340  1.0000 -0.3638047324
C   C188      1.0  0.25560  0.21130  0.29660  1.0000 -0.3638047324
C   C189      1.0  0.20360  0.36370  0.80860  1.0000 -0.3473868529
C   C190      1.0  0.79640  0.86370  0.69140  1.0000 -0.3473868529
C   C191      1.0  0.79640  0.63630  0.19140  1.0000 -0.3473868529
C   C192      1.0  0.20360  0.13630  0.30860  1.0000 -0.3473868529
C   C193      1.0  0.41960  0.18490  0.71760  1.0000 0.3017339014
C   C194      1.0  0.58040  0.68490  0.78240  1.0000 0.3017339014
C   C195      1.0  0.58040  0.81510  0.28240  1.0000 0.3017339014
C   C196      1.0  0.41960  0.31510  0.21760  1.0000 0.3017339014
C   C197      1.0  0.23590  0.19300  0.70790  1.0000 -0.3326498018
C   C198      1.0  0.76410  0.69300  0.79210  1.0000 -0.3326498018
C   C199      1.0  0.76410  0.80700  0.29210  1.0000 -0.3326498018
C   C200      1.0  0.23590  0.30700  0.20790  1.0000 -0.3326498018
C   C201      1.0  0.29600  0.12480  0.69000  1.0000 -0.3473868529
C   C202      1.0  0.70400  0.62480  0.81000  1.0000 -0.3473868529
C   C203      1.0  0.70400  0.87520  0.31000  1.0000 -0.3473868529
C   C204      1.0  0.29600  0.37520  0.19000  1.0000 -0.3473868529
C   C205      1.0  0.59830  0.22280  0.90240  1.0000 0.3017339014
C   C206      1.0  0.40170  0.72280  0.59760  1.0000 0.3017339014
C   C207      1.0  0.40170  0.77720  0.09760  1.0000 0.3017339014
C   C208      1.0  0.59830  0.27720  0.40240  1.0000 0.3017339014
C   C209      1.0  0.53010  0.14620  0.91010  1.0000 -0.3184150653
C   C210      1.0  0.46990  0.64620  0.58990  1.0000 -0.3184150653
C   C211      1.0  0.46990  0.85380  0.08990  1.0000 -0.3184150653
C   C212      1.0  0.53010  0.35380  0.41010  1.0000 -0.3184150653
C   C213      1.0  0.61260  0.19780  0.00160  1.0000 -0.3695860701
C   C214      1.0  0.38740  0.69780  0.49840  1.0000 -0.3695860701
C   C215      1.0  0.38740  0.80220  0.99840  1.0000 -0.3695860701
C   C216      1.0  0.61260  0.30220  0.50160  1.0000 -0.3695860701
N   N1        1.0  0.26600  0.29120  0.58860  1.0000 0.4799857391
N   N2        1.0  0.73400  0.79120  0.91140  1.0000 0.4799857391
N   N3        1.0  0.73400  0.70880  0.41140  1.0000 0.4799857391
N   N4        1.0  0.26600  0.20880  0.08860  1.0000 0.4799857391
N   N5        1.0  0.37610  0.19560  0.46560  1.0000 0.4799857391
N   N6        1.0  0.62390  0.69560  0.03440  1.0000 0.4799857391
N   N7        1.0  0.62390  0.80440  0.53440  1.0000 0.4799857391
N   N8        1.0  0.37610  0.30440  0.96560  1.0000 0.4799857391
N   N9        1.0  0.14440  0.19190  0.54060  1.0000 0.4894351652
N   N10       1.0  0.85560  0.69190  0.95940  1.0000 0.4894351652
N   N11       1.0  0.85560  0.80810  0.45940  1.0000 0.4894351652
N   N12       1.0  0.14440  0.30810  0.04060  1.0000 0.4894351652
N   N13       1.0  0.24750  0.30020  0.42380  1.0000 0.4630284189
N   N14       1.0  0.75250  0.80020  0.07620  1.0000 0.4630284189
N   N15       1.0  0.75250  0.69980  0.57620  1.0000 0.4630284189
N   N16       1.0  0.24750  0.19980  0.92380  1.0000 0.4630284189
N   N17       1.0  0.75300  0.53430  0.65580  1.0000 0.4994104644
N   N18       1.0  0.24700  0.03430  0.84420  1.0000 0.4994104644
N   N19       1.0  0.24700  0.46570  0.34420  1.0000 0.4994104644
N   N20       1.0  0.75300  0.96570  0.15580  1.0000 0.4994104644
N   N21       1.0  0.01090  0.50670  0.85160  1.0000 0.4672422214
N   N22       1.0  0.98910  0.00670  0.64840  1.0000 0.4672422214
N   N23       1.0  0.98910  0.49330  0.14840  1.0000 0.4672422214
N   N24       1.0  0.01090  0.99330  0.35160  1.0000 0.4672422214
N   N25       1.0  0.97920  0.44910  0.70120  1.0000 0.4994104644
N   N26       1.0  0.02080  0.94910  0.79880  1.0000 0.4994104644
N   N27       1.0  0.02080  0.55090  0.29880  1.0000 0.4994104644
N   N28       1.0  0.97920  0.05090  0.20120  1.0000 0.4994104644
N   N29       1.0  0.73870  0.48190  0.80380  1.0000 0.5082205339
N   N30       1.0  0.26130  0.98190  0.69620  1.0000 0.5082205339
N   N31       1.0  0.26130  0.51810  0.19620  1.0000 0.5082205339
N   N32       1.0  0.73870  0.01810  0.30380  1.0000 0.5082205339
N   N33       1.0  0.76390  0.99940  0.70210  1.0000 0.4994104644
N   N34       1.0  0.23610  0.49940  0.79790  1.0000 0.4994104644
N   N35       1.0  0.23610  0.00060  0.29790  1.0000 0.4994104644
N   N36       1.0  0.76390  0.50060  0.20210  1.0000 0.4994104644
N   N37       1.0  0.51090  0.02680  0.79680  1.0000 0.5194870634
N   N38       1.0  0.48910  0.52680  0.70320  1.0000 0.5194870634
N   N39       1.0  0.48910  0.97320  0.20320  1.0000 0.5194870634
N   N40       1.0  0.51090  0.47320  0.29680  1.0000 0.5194870634
N   N41       1.0  0.48310  0.97930  0.64180  1.0000 0.4894351652
N   N42       1.0  0.51690  0.47930  0.85820  1.0000 0.4894351652
N   N43       1.0  0.51690  0.02070  0.35820  1.0000 0.4894351652
N   N44       1.0  0.48310  0.52070  0.14180  1.0000 0.4894351652
N   N45       1.0  0.73330  0.94090  0.83570  1.0000 0.4994104644
N   N46       1.0  0.26670  0.44090  0.66430  1.0000 0.4994104644
N   N47       1.0  0.26670  0.05910  0.16430  1.0000 0.4994104644
N   N48       1.0  0.73330  0.55910  0.33570  1.0000 0.4994104644
N   N49       1.0  0.94200  0.29400  0.58880  1.0000 0.0028659003
N   N50       1.0  0.05800  0.79400  0.91120  1.0000 0.0028659003
N   N51       1.0  0.05800  0.70600  0.41120  1.0000 0.0028659003
N   N52       1.0  0.94200  0.20600  0.08880  1.0000 0.0028659003
N   N53       1.0  0.16780  0.31840  0.80050  1.0000 0.0312186891
N   N54       1.0  0.83220  0.81840  0.69950  1.0000 0.0312186891
N   N55       1.0  0.83220  0.68160  0.19950  1.0000 0.0312186891
N   N56       1.0  0.16780  0.18160  0.30050  1.0000 0.0312186891
N   N57       1.0  0.33160  0.16790  0.71360  1.0000 0.020453793
N   N58       1.0  0.66840  0.66790  0.78640  1.0000 0.020453793
N   N59       1.0  0.66840  0.83210  0.28640  1.0000 0.020453793
N   N60       1.0  0.33160  0.33210  0.21360  1.0000 0.020453793
N   N61       1.0  0.57920  0.19050  0.93650  1.0000 -0.0032980256
N   N62       1.0  0.42080  0.69050  0.56350  1.0000 -0.0032980256
N   N63       1.0  0.42080  0.80950  0.06350  1.0000 -0.0032980256
N   N64       1.0  0.57920  0.30950  0.43650  1.0000 -0.0032980256
O   O1        1.0  0.72130  0.22480  0.63830  1.0000 -0.5763471918
O   O2        1.0  0.27870  0.72480  0.86170  1.0000 -0.5763471918
O   O3        1.0  0.27870  0.77520  0.36170  1.0000 -0.5763471918
O   O4        1.0  0.72130  0.27520  0.13830  1.0000 -0.5763471918
O   O5        1.0  0.65790  0.24200  0.70390  1.0000 -0.7343813376
O   O6        1.0  0.34210  0.74200  0.79610  1.0000 -0.7343813376
O   O7        1.0  0.34210  0.75800  0.29610  1.0000 -0.7343813376
O   O8        1.0  0.65790  0.25800  0.20390  1.0000 -0.7343813376
O   O9        1.0  0.79370  0.24110  0.38130  1.0000 -0.6184913711
O   O10       1.0  0.20630  0.74110  0.11870  1.0000 -0.6184913711
O   O11       1.0  0.20630  0.75890  0.61870  1.0000 -0.6184913711
O   O12       1.0  0.79370  0.25890  0.88130  1.0000 -0.6184913711
O   O13       1.0  0.85010  0.26200  0.31490  1.0000 -0.7120135622
O   O14       1.0  0.14990  0.76200  0.18510  1.0000 -0.7120135622
O   O15       1.0  0.14990  0.73800  0.68510  1.0000 -0.7120135622
O   O16       1.0  0.85010  0.23800  0.81490  1.0000 -0.7120135622
O   O17       1.0  0.27650  0.29650  0.63510  1.0000 -0.2390385391
O   O18       1.0  0.72350  0.79650  0.86490  1.0000 -0.2390385391
O   O19       1.0  0.72350  0.70350  0.36490  1.0000 -0.2390385391
O   O20       1.0  0.27650  0.20350  0.13510  1.0000 -0.2390385391
O   O21       1.0  0.19850  0.31110  0.55230  1.0000 -0.2679583785
O   O22       1.0  0.80150  0.81110  0.94770  1.0000 -0.2679583785
O   O23       1.0  0.80150  0.68890  0.44770  1.0000 -0.2679583785
O   O24       1.0  0.19850  0.18890  0.05230  1.0000 -0.2573801356
O   O25       1.0  0.45100  0.18770  0.45130  1.0000 -0.281597802
O   O26       1.0  0.54900  0.68770  0.04870  1.0000 -0.2894239681
O   O27       1.0  0.54900  0.81230  0.54870  1.0000 -0.2894239681
O   O28       1.0  0.45100  0.31230  0.95130  1.0000 -0.281597802
O   O29       1.0  0.28700  0.18260  0.43800  1.0000 -0.281597802
O   O30       1.0  0.71300  0.68260  0.06200  1.0000 -0.281597802
O   O31       1.0  0.71300  0.81740  0.56200  1.0000 -0.281597802
O   O32       1.0  0.28700  0.31740  0.93800  1.0000 -0.281597802
O   O33       1.0  0.22870  0.17470  0.55950  1.0000 -0.281597802
O   O34       1.0  0.77130  0.67470  0.94050  1.0000 -0.281597802
O   O35       1.0  0.77130  0.82530  0.44050  1.0000 -0.281597802
O   O36       1.0  0.22870  0.32530  0.05950  1.0000 -0.281597802
O   O37       1.0  0.07550  0.18840  0.55820  1.0000 -0.281597802
O   O38       1.0  0.92450  0.68840  0.94180  1.0000 -0.281597802
O   O39       1.0  0.92450  0.81160  0.44180  1.0000 -0.281597802
O   O40       1.0  0.07550  0.31160  0.05820  1.0000 -0.281597802
O   O41       1.0  0.33580  0.28830  0.43510  1.0000 -0.2390385391
O   O42       1.0  0.66420  0.78830  0.06490  1.0000 -0.2390385391
O   O43       1.0  0.66420  0.71170  0.56490  1.0000 -0.2390385391
O   O44       1.0  0.33580  0.21170  0.93510  1.0000 -0.2390385391
O   O45       1.0  0.22380  0.33200  0.39920  1.0000 -0.1479714503
O   O46       1.0  0.77620  0.83200  0.10080  1.0000 -0.1479714503
O   O47       1.0  0.77620  0.66800  0.60080  1.0000 -0.1479714503
O   O48       1.0  0.22380  0.16800  0.89920  1.0000 -0.1479714503
O   O49       1.0  0.98350  0.67390  0.72160  1.0000 -0.6184913711
O   O50       1.0  0.01650  0.17390  0.77840  1.0000 -0.6184913711
O   O51       1.0  0.01650  0.32610  0.27840  1.0000 -0.6184913711
O   O52       1.0  0.98350  0.82610  0.22160  1.0000 -0.6184913711
O   O53       1.0  0.06560  0.66610  0.81380  1.0000 -0.5884760218
O   O54       1.0  0.93440  0.16610  0.68620  1.0000 -0.5884760218
O   O55       1.0  0.93440  0.33390  0.18620  1.0000 -0.5884760218
O   O56       1.0  0.06560  0.83390  0.31380  1.0000 -0.5884760218
O   O57       1.0  0.82780  0.30430  0.72640  1.0000 -0.7045480208
O   O58       1.0  0.17220  0.80430  0.77360  1.0000 -0.7045480208
O   O59       1.0  0.17220  0.69570  0.27360  1.0000 -0.7045480208
O   O60       1.0  0.82780  0.19570  0.22640  1.0000 -0.7045480208
O   O61       1.0  0.72410  0.31880  0.77630  1.0000 -0.5437348233
O   O62       1.0  0.27590  0.81880  0.72370  1.0000 -0.5437348233
O   O63       1.0  0.27590  0.68120  0.22370  1.0000 -0.5437348233
O   O64       1.0  0.72410  0.18120  0.27630  1.0000 -0.5437348233
O   O65       1.0  0.71620  0.56190  0.62000  1.0000 -0.2894239681
O   O66       1.0  0.28380  0.06190  0.88000  1.0000 -0.2894239681
O   O67       1.0  0.28380  0.43810  0.38000  1.0000 -0.2894239681
O   O68       1.0  0.71620  0.93810  0.12000  1.0000 -0.2894239681
O   O69       1.0  0.71640  0.49800  0.65180  1.0000 -0.2894239681
O   O70       1.0  0.28360  0.99800  0.84820  1.0000 -0.2894239681
O   O71       1.0  0.28360  0.50200  0.34820  1.0000 -0.2894239681
O   O72       1.0  0.71640  0.00200  0.15180  1.0000 -0.2894239681
O   O73       1.0  0.01250  0.46780  0.84910  1.0000 -0.2679583785
O   O74       1.0  0.98750  0.96780  0.65090  1.0000 -0.2679583785
O   O75       1.0  0.98750  0.53220  0.15090  1.0000 -0.2679583785
O   O76       1.0  0.01250  0.03220  0.34910  1.0000 -0.2679583785
O   O77       1.0  0.04380  0.52270  0.89540  1.0000 -0.1306400234
O   O78       1.0  0.95620  0.02270  0.60460  1.0000 -0.1306400234
O   O79       1.0  0.95620  0.47730  0.10460  1.0000 -0.1306400234
O   O80       1.0  0.04380  0.97730  0.39540  1.0000 -0.1306400234
O   O81       1.0  0.99620  0.48650  0.69690  1.0000 -0.2573801356
O   O82       1.0  0.00380  0.98650  0.80310  1.0000 -0.2573801356
O   O83       1.0  0.00380  0.51350  0.30310  1.0000 -0.2573801356
O   O84       1.0  0.99620  0.01350  0.19690  1.0000 -0.2573801356
O   O85       1.0  0.03350  0.42160  0.69190  1.0000 -0.2679583785
O   O86       1.0  0.96650  0.92160  0.80810  1.0000 -0.2679583785
O   O87       1.0  0.96650  0.57840  0.30810  1.0000 -0.2679583785
O   O88       1.0  0.03350  0.07840  0.19190  1.0000 -0.2679583785
O   O89       1.0  0.73290  0.52150  0.79520  1.0000 -0.2999568814
O   O90       1.0  0.26710  0.02150  0.70480  1.0000 -0.2999568814
O   O91       1.0  0.26710  0.47850  0.20480  1.0000 -0.2999568814
O   O92       1.0  0.73290  0.97850  0.29520  1.0000 -0.2999568814
O   O93       1.0  0.71310  0.46550  0.84060  1.0000 -0.3087965371
O   O94       1.0  0.28690  0.96550  0.65940  1.0000 -0.3087965371
O   O95       1.0  0.28690  0.53450  0.15940  1.0000 -0.3087965371
O   O96       1.0  0.71310  0.03450  0.34060  1.0000 -0.3087965371
O   O97       1.0  0.78630  0.16320  0.74260  1.0000 -0.6351421671
O   O98       1.0  0.21370  0.66320  0.75740  1.0000 -0.6351421671
O   O99       1.0  0.21370  0.83680  0.25740  1.0000 -0.6351421671
O   O100      1.0  0.78630  0.33680  0.24260  1.0000 -0.6351421671
O   O101      1.0  0.68150  0.17500  0.79150  1.0000 -0.6320295529
O   O102      1.0  0.31850  0.67500  0.70850  1.0000 -0.6320295529
O   O103      1.0  0.31850  0.82500  0.20850  1.0000 -0.6320295529
O   O104      1.0  0.68150  0.32500  0.29150  1.0000 -0.6320295529
O   O105      1.0  0.50450  0.80570  0.75780  1.0000 -0.6184913711
O   O106      1.0  0.49550  0.30570  0.74220  1.0000 -0.6184913711
O   O107      1.0  0.49550  0.19430  0.24220  1.0000 -0.6184913711
O   O108      1.0  0.50450  0.69430  0.25780  1.0000 -0.6184913711
O   O109      1.0  0.41960  0.81640  0.66760  1.0000 -0.5714990096
O   O110      1.0  0.58040  0.31640  0.83240  1.0000 -0.5714990096
O   O111      1.0  0.58040  0.18360  0.33240  1.0000 -0.5714990096
O   O112      1.0  0.41960  0.68360  0.16760  1.0000 -0.5714990096
O   O113      1.0  0.78540  0.02030  0.66220  1.0000 -0.3911636965
O   O114      1.0  0.21460  0.52030  0.83780  1.0000 -0.3911636965
O   O115      1.0  0.21460  0.97970  0.33780  1.0000 -0.3911636965
O   O116      1.0  0.78540  0.47970  0.16220  1.0000 -0.3911636965
O   O117      1.0  0.76310  0.96270  0.70250  1.0000 -0.2390385391
O   O118      1.0  0.23690  0.46270  0.79750  1.0000 -0.2390385391
O   O119      1.0  0.23690  0.03730  0.29750  1.0000 -0.2390385391
O   O120      1.0  0.76310  0.53730  0.20250  1.0000 -0.2390385391
O   O121      1.0  0.46430  0.05650  0.81370  1.0000 -0.3473868529
O   O122      1.0  0.53570  0.55650  0.68630  1.0000 -0.3473868529
O   O123      1.0  0.53570  0.94350  0.18630  1.0000 -0.3473868529
O   O124      1.0  0.46430  0.44350  0.31370  1.0000 -0.3473868529
O   O125      1.0  0.48290  0.98870  0.79330  1.0000 -0.3184150653
O   O126      1.0  0.51710  0.48870  0.70670  1.0000 -0.3184150653
O   O127      1.0  0.51710  0.01130  0.20670  1.0000 -0.3184150653
O   O128      1.0  0.48290  0.51130  0.29330  1.0000 -0.3184150653
O   O129      1.0  0.48130  0.01860  0.65040  1.0000 -0.3087965371
O   O130      1.0  0.51870  0.51860  0.84960  1.0000 -0.3087965371
O   O131      1.0  0.51870  0.98140  0.34960  1.0000 -0.3087965371
O   O132      1.0  0.48130  0.48140  0.15040  1.0000 -0.3087965371
O   O133      1.0  0.44520  0.96430  0.59520  1.0000 -0.225625203
O   O134      1.0  0.55480  0.46430  0.90480  1.0000 -0.225625203
O   O135      1.0  0.55480  0.03570  0.40480  1.0000 -0.225625203
O   O136      1.0  0.44520  0.53570  0.09520  1.0000 -0.225625203
O   O137      1.0  0.76340  0.97740  0.84790  1.0000 -0.2679583785
O   O138      1.0  0.23660  0.47740  0.65210  1.0000 -0.2679583785
O   O139      1.0  0.23660  0.02260  0.15210  1.0000 -0.2679583785
O   O140      1.0  0.76340  0.52260  0.34790  1.0000 -0.2679583785
O   O141      1.0  0.78400  0.90970  0.86240  1.0000 -0.2999568814
O   O142      1.0  0.21600  0.40970  0.63760  1.0000 -0.2999568814
O   O143      1.0  0.21600  0.09030  0.13760  1.0000 -0.2999568814
O   O144      1.0  0.78400  0.59030  0.36240  1.0000 -0.2999568814
O   O145      1.0  0.94250  0.26130  0.66650  1.0000 -0.5210451679
O   O146      1.0  0.05750  0.76130  0.83350  1.0000 -0.5210451679
O   O147      1.0  0.05750  0.73870  0.33350  1.0000 -0.5210451679
O   O148      1.0  0.94250  0.23870  0.16650  1.0000 -0.5210451679
O   O149      1.0  0.04230  0.26620  0.78510  1.0000 -0.4181153374
O   O150      1.0  0.95770  0.76620  0.71490  1.0000 -0.4181153374
O   O151      1.0  0.95770  0.73380  0.21490  1.0000 -0.4181153374
O   O152      1.0  0.04230  0.23380  0.28510  1.0000 -0.4181153374
O   O153      1.0  0.47120  0.21410  0.73790  1.0000 -0.4358235495
O   O154      1.0  0.52880  0.71410  0.76210  1.0000 -0.4358235495
O   O155      1.0  0.52880  0.78590  0.26210  1.0000 -0.4358235495
O   O156      1.0  0.47120  0.28590  0.23790  1.0000 -0.4358235495
O   O157      1.0  0.57320  0.21960  0.85390  1.0000 -0.4780605333
O   O158      1.0  0.42680  0.71960  0.64610  1.0000 -0.4780605333
O   O159      1.0  0.42680  0.78040  0.14610  1.0000 -0.4780605333
O   O160      1.0  0.57320  0.28040  0.35390  1.0000 -0.4780605333
