# DDEC6 charges by PACMAN v1.1 (https://github.com/mtap-research/PACMAN-charge/)
data_2012[Cu][qtz]3[FSR]1
_chemical_formula_sum              "Cu6 P12 H162 C210 N6 Cl6"
_cell_length_a       18.41
_cell_length_b       18.41
_cell_length_c       21.321
_cell_angle_alpha    90
_cell_angle_beta     90
_cell_angle_gamma    120

_symmetry_space_group_name_H-M    "P 1"
_symmetry_Int_Tables_number       1

loop_
  _symmetry_equiv_pos_as_xyz
  'x, y, z'

loop_
  _atom_site_type_symbol
  _atom_site_label
  _atom_site_symmetry_multiplicity
  _atom_site_fract_x
  _atom_site_fract_y
  _atom_site_fract_z
  _atom_site_occupancy
  _atom_site_charge
Cu  Cu1       1.0  0.49260  0.15610  0.34181  1.0000 0.0471035894
Cu  Cu2       1.0  0.84390  0.33650  0.00848  1.0000 0.0436772536
Cu  Cu3       1.0  0.66350  0.50740  0.67514  1.0000 0.0471035894
Cu  Cu4       1.0  0.15610  0.49260  0.65819  1.0000 0.0471035894
Cu  Cu5       1.0  0.33650  0.84390  0.99152  1.0000 0.0471035894
Cu  Cu6       1.0  0.50740  0.66350  0.32486  1.0000 0.0471035894
P   P1        1.0  0.61970  0.26530  0.30675  1.0000 0.1819858308
P   P2        1.0  0.73470  0.35440  0.97342  1.0000 0.1890418734
P   P3        1.0  0.64560  0.38030  0.64008  1.0000 0.1819858308
P   P4        1.0  0.26530  0.61970  0.69325  1.0000 0.1819858308
P   P5        1.0  0.35440  0.73470  0.02658  1.0000 0.1819858308
P   P6        1.0  0.38030  0.64560  0.35992  1.0000 0.1819858308
P   P7        1.0  0.86100  0.33120  0.11349  1.0000 0.2202942426
P   P8        1.0  0.66880  0.52980  0.78016  1.0000 0.2202942426
P   P9        1.0  0.47020  0.13900  0.44682  1.0000 0.2121051083
P   P10       1.0  0.33120  0.86100  0.88651  1.0000 0.2121051083
P   P11       1.0  0.52980  0.66880  0.21984  1.0000 0.2121051083
P   P12       1.0  0.13900  0.47020  0.55318  1.0000 0.2121051083
H   H1        1.0  0.35280  0.99430  0.06450  1.0000 0.1106889592
H   H2        1.0  0.00570  0.35850  0.73117  1.0000 0.1106889592
H   H3        1.0  0.64150  0.64720  0.39783  1.0000 0.1106889592
H   H4        1.0  0.99430  0.35280  0.93550  1.0000 0.1106889592
H   H5        1.0  0.35850  0.00570  0.26883  1.0000 0.1106889592
H   H6        1.0  0.64720  0.64150  0.60217  1.0000 0.1106889592
H   H7        1.0  0.45340  0.10420  0.12090  1.0000 0.139587655
H   H8        1.0  0.89580  0.34920  0.78757  1.0000 0.139587655
H   H9        1.0  0.65080  0.54660  0.45423  1.0000 0.139587655
H   H10       1.0  0.10420  0.45340  0.87910  1.0000 0.139587655
H   H11       1.0  0.34920  0.89580  0.21243  1.0000 0.139587655
H   H12       1.0  0.54660  0.65080  0.54577  1.0000 0.139587655
H   H13       1.0  0.62800  0.04990  0.06540  1.0000 0.139587655
H   H14       1.0  0.95010  0.57810  0.73207  1.0000 0.139587655
H   H15       1.0  0.42190  0.37200  0.39873  1.0000 0.139587655
H   H16       1.0  0.04990  0.62800  0.93460  1.0000 0.139587655
H   H17       1.0  0.57810  0.95010  0.26793  1.0000 0.139587655
H   H18       1.0  0.37200  0.42190  0.60127  1.0000 0.139587655
H   H19       1.0  0.52130  0.93970  0.00650  1.0000 0.0947609748
H   H20       1.0  0.06030  0.58160  0.67317  1.0000 0.0947609748
H   H21       1.0  0.41840  0.47870  0.33983  1.0000 0.0947609748
H   H22       1.0  0.93970  0.52130  0.99350  1.0000 0.0947609748
H   H23       1.0  0.58160  0.06030  0.32683  1.0000 0.0947609748
H   H24       1.0  0.47870  0.41840  0.66017  1.0000 0.0947609748
H   H25       1.0  0.53780  0.14970  0.20960  1.0000 0.1106889592
H   H26       1.0  0.85030  0.38810  0.87627  1.0000 0.1106889592
H   H27       1.0  0.61190  0.46220  0.54293  1.0000 0.1106889592
H   H28       1.0  0.14970  0.53780  0.79040  1.0000 0.1106889592
H   H29       1.0  0.38810  0.85030  0.12373  1.0000 0.1106889592
H   H30       1.0  0.46220  0.61190  0.45707  1.0000 0.1106889592
H   H31       1.0  0.77730  0.33570  0.23390  1.0000 0.1106889592
H   H32       1.0  0.66430  0.44160  0.90057  1.0000 0.1106889592
H   H33       1.0  0.55840  0.22270  0.56723  1.0000 0.1106889592
H   H34       1.0  0.33570  0.77730  0.76610  1.0000 0.1106889592
H   H35       1.0  0.44160  0.66430  0.09943  1.0000 0.1106889592
H   H36       1.0  0.22270  0.55840  0.43277  1.0000 0.1106889592
H   H37       1.0  0.71240  0.18940  0.07890  1.0000 0.1179424859
H   H38       1.0  0.81060  0.52300  0.74557  1.0000 0.1179424859
H   H39       1.0  0.47700  0.28760  0.41223  1.0000 0.1179424859
H   H40       1.0  0.18940  0.71240  0.92110  1.0000 0.1179424859
H   H41       1.0  0.52300  0.81060  0.25443  1.0000 0.1179424859
H   H42       1.0  0.28760  0.47700  0.58777  1.0000 0.1179424859
H   H43       1.0  0.50850  0.32350  0.27270  1.0000 0.1179424859
H   H44       1.0  0.67650  0.18500  0.93937  1.0000 0.1179424859
H   H45       1.0  0.81500  0.49150  0.60603  1.0000 0.1179424859
H   H46       1.0  0.32350  0.50850  0.72730  1.0000 0.1179424859
H   H47       1.0  0.18500  0.67650  0.06063  1.0000 0.1179424859
H   H48       1.0  0.49150  0.81500  0.39397  1.0000 0.1179424859
H   H49       1.0  0.52130  0.45370  0.24980  1.0000 0.1106889592
H   H50       1.0  0.54630  0.06760  0.91647  1.0000 0.1106889592
H   H51       1.0  0.93240  0.47870  0.58313  1.0000 0.1106889592
H   H52       1.0  0.45370  0.52130  0.75020  1.0000 0.1106889592
H   H53       1.0  0.06760  0.54630  0.08353  1.0000 0.1106889592
H   H54       1.0  0.47870  0.93240  0.41687  1.0000 0.1106889592
H   H55       1.0  0.65170  0.57630  0.25900  1.0000 0.1033867057
H   H56       1.0  0.42370  0.07540  0.92567  1.0000 0.1033867057
H   H57       1.0  0.92460  0.34830  0.59233  1.0000 0.1033867057
H   H58       1.0  0.57630  0.65170  0.74100  1.0000 0.1033867057
H   H59       1.0  0.07540  0.42370  0.07433  1.0000 0.1033867057
H   H60       1.0  0.34830  0.92460  0.40767  1.0000 0.1033867057
H   H61       1.0  0.76930  0.56870  0.29100  1.0000 0.1179424859
H   H62       1.0  0.43130  0.20060  0.95767  1.0000 0.1179424859
H   H63       1.0  0.79940  0.23070  0.62433  1.0000 0.1179424859
H   H64       1.0  0.56870  0.76930  0.70900  1.0000 0.1179424859
H   H65       1.0  0.20060  0.43130  0.04233  1.0000 0.1179424859
H   H66       1.0  0.23070  0.79940  0.37567  1.0000 0.1179424859
H   H67       1.0  0.75650  0.43850  0.31390  1.0000 0.1106889592
H   H68       1.0  0.56150  0.31800  0.98057  1.0000 0.1106889592
H   H69       1.0  0.68200  0.24350  0.64723  1.0000 0.1106889592
H   H70       1.0  0.43850  0.75650  0.68610  1.0000 0.1106889592
H   H71       1.0  0.31800  0.56150  0.01943  1.0000 0.1106889592
H   H72       1.0  0.24350  0.68200  0.35277  1.0000 0.1106889592
H   H73       1.0  0.69600  0.36350  0.42040  1.0000 0.1179424859
H   H74       1.0  0.63650  0.33250  0.08707  1.0000 0.1179424859
H   H75       1.0  0.66750  0.30400  0.75373  1.0000 0.1179424859
H   H76       1.0  0.36350  0.69600  0.57960  1.0000 0.1179424859
H   H77       1.0  0.33250  0.63650  0.91293  1.0000 0.1179424859
H   H78       1.0  0.30400  0.66750  0.24627  1.0000 0.1179424859
H   H79       1.0  0.79520  0.36780  0.49110  1.0000 0.1270652915
H   H80       1.0  0.63220  0.42740  0.15777  1.0000 0.1270652915
H   H81       1.0  0.57260  0.20480  0.82443  1.0000 0.1270652915
H   H82       1.0  0.36780  0.79520  0.50890  1.0000 0.1270652915
H   H83       1.0  0.42740  0.63220  0.84223  1.0000 0.1270652915
H   H84       1.0  0.20480  0.57260  0.17557  1.0000 0.1270652915
H   H85       1.0  0.85720  0.29600  0.47680  1.0000 0.1106889592
H   H86       1.0  0.70400  0.56120  0.14347  1.0000 0.1106889592
H   H87       1.0  0.43880  0.14280  0.81013  1.0000 0.1106889592
H   H88       1.0  0.29600  0.85720  0.52320  1.0000 0.1106889592
H   H89       1.0  0.56120  0.70400  0.85653  1.0000 0.1106889592
H   H90       1.0  0.14280  0.43880  0.18987  1.0000 0.1106889592
H   H91       1.0  0.84710  0.22510  0.38220  1.0000 0.1106889592
H   H92       1.0  0.77490  0.62200  0.04887  1.0000 0.1106889592
H   H93       1.0  0.37800  0.15290  0.71553  1.0000 0.1106889592
H   H94       1.0  0.22510  0.84710  0.61780  1.0000 0.1106889592
H   H95       1.0  0.62200  0.77490  0.95113  1.0000 0.1106889592
H   H96       1.0  0.15290  0.37800  0.28447  1.0000 0.1106889592
H   H97       1.0  0.73410  0.20090  0.31320  1.0000 0.1179424859
H   H98       1.0  0.79910  0.53320  0.97987  1.0000 0.1179424859
H   H99       1.0  0.46680  0.26590  0.64653  1.0000 0.1179424859
H   H100      1.0  0.20090  0.73410  0.68680  1.0000 0.1179424859
H   H101      1.0  0.53320  0.79910  0.02013  1.0000 0.1179424859
H   H102      1.0  0.26590  0.46680  0.35347  1.0000 0.1179424859
H   H103      1.0  0.86950  0.25070  0.23320  1.0000 0.1106889592
H   H104      1.0  0.74930  0.61880  0.89987  1.0000 0.1106889592
H   H105      1.0  0.38120  0.13050  0.56653  1.0000 0.1106889592
H   H106      1.0  0.25070  0.86950  0.76680  1.0000 0.1106889592
H   H107      1.0  0.61880  0.74930  0.10013  1.0000 0.1106889592
H   H108      1.0  0.13050  0.38120  0.43347  1.0000 0.1106889592
H   H109      1.0  0.93880  0.18550  0.26540  1.0000 0.1106889592
H   H110      1.0  0.81450  0.75330  0.93207  1.0000 0.1106889592
H   H111      1.0  0.24670  0.06120  0.59873  1.0000 0.1106889592
H   H112      1.0  0.18550  0.93880  0.73460  1.0000 0.1106889592
H   H113      1.0  0.75330  0.81450  0.06793  1.0000 0.1106889592
H   H114      1.0  0.06120  0.24670  0.40127  1.0000 0.1106889592
H   H115      1.0  0.03380  0.17080  0.19640  1.0000 0.1106889592
H   H116      1.0  0.82920  0.86300  0.86307  1.0000 0.1106889592
H   H117      1.0  0.13700  0.96620  0.52973  1.0000 0.1106889592
H   H118      1.0  0.17080  0.03380  0.80360  1.0000 0.1106889592
H   H119      1.0  0.86300  0.82920  0.13693  1.0000 0.1106889592
H   H120      1.0  0.96620  0.13700  0.47027  1.0000 0.1106889592
H   H121      1.0  0.04440  0.21850  0.09300  1.0000 0.1179424859
H   H122      1.0  0.78150  0.82590  0.75967  1.0000 0.1179424859
H   H123      1.0  0.17410  0.95560  0.42633  1.0000 0.1179424859
H   H124      1.0  0.21850  0.04440  0.90700  1.0000 0.1179424859
H   H125      1.0  0.82590  0.78150  0.24033  1.0000 0.1179424859
H   H126      1.0  0.95560  0.17410  0.57367  1.0000 0.1179424859
H   H127      1.0  0.98340  0.29110  0.05940  1.0000 0.1179424859
H   H128      1.0  0.70890  0.69230  0.72607  1.0000 0.1179424859
H   H129      1.0  0.30770  0.01660  0.39273  1.0000 0.1179424859
H   H130      1.0  0.29110  0.98340  0.94060  1.0000 0.1179424859
H   H131      1.0  0.69230  0.70890  0.27393  1.0000 0.1179424859
H   H132      1.0  0.01660  0.30770  0.60727  1.0000 0.1179424859
H   H133      1.0  0.98620  0.40400  0.21760  1.0000 0.1106889592
H   H134      1.0  0.59600  0.58220  0.88427  1.0000 0.1106889592
H   H135      1.0  0.41780  0.01380  0.55093  1.0000 0.1106889592
H   H136      1.0  0.40400  0.98620  0.78240  1.0000 0.1106889592
H   H137      1.0  0.58220  0.59600  0.11573  1.0000 0.1106889592
H   H138      1.0  0.01380  0.41780  0.44907  1.0000 0.1106889592
H   H139      1.0  0.04120  0.53070  0.27260  1.0000 0.1179424859
H   H140      1.0  0.46930  0.51050  0.93927  1.0000 0.1179424859
H   H141      1.0  0.48950  0.95880  0.60593  1.0000 0.1179424859
H   H142      1.0  0.53070  0.04120  0.72740  1.0000 0.1179424859
H   H143      1.0  0.51050  0.46930  0.06073  1.0000 0.1179424859
H   H144      1.0  0.95880  0.48950  0.39407  1.0000 0.1179424859
H   H145      1.0  0.00020  0.62830  0.24610  1.0000 0.1106889592
H   H146      1.0  0.37170  0.37190  0.91277  1.0000 0.1106889592
H   H147      1.0  0.62810  0.99980  0.57943  1.0000 0.1106889592
H   H148      1.0  0.62830  0.00020  0.75390  1.0000 0.1106889592
H   H149      1.0  0.37190  0.37170  0.08723  1.0000 0.1106889592
H   H150      1.0  0.99980  0.62810  0.42057  1.0000 0.1106889592
H   H151      1.0  0.90430  0.59940  0.16470  1.0000 0.1179424859
H   H152      1.0  0.40060  0.30490  0.83137  1.0000 0.1179424859
H   H153      1.0  0.69510  0.09570  0.49803  1.0000 0.1179424859
H   H154      1.0  0.59940  0.90430  0.83530  1.0000 0.1179424859
H   H155      1.0  0.30490  0.40060  0.16863  1.0000 0.1179424859
H   H156      1.0  0.09570  0.69510  0.50197  1.0000 0.1179424859
H   H157      1.0  0.84940  0.47270  0.10970  1.0000 0.1106889592
H   H158      1.0  0.52730  0.37670  0.77637  1.0000 0.1106889592
H   H159      1.0  0.62330  0.15060  0.44303  1.0000 0.1106889592
H   H160      1.0  0.47270  0.84940  0.89030  1.0000 0.1106889592
H   H161      1.0  0.37670  0.52730  0.22363  1.0000 0.1106889592
H   H162      1.0  0.15060  0.62330  0.55697  1.0000 0.1106889592
C   C1        1.0  0.40800  0.00250  0.06490  1.0000 0.0744669716
C   C2        1.0  0.99750  0.40550  0.73157  1.0000 0.0744669716
C   C3        1.0  0.59450  0.59200  0.39823  1.0000 0.0799594725
C   C4        1.0  0.00250  0.40800  0.93510  1.0000 0.0744669716
C   C5        1.0  0.40550  0.99750  0.26843  1.0000 0.0744669716
C   C6        1.0  0.59200  0.59450  0.60177  1.0000 0.0799594725
C   C7        1.0  0.46970  0.06990  0.09870  1.0000 -0.1786167716
C   C8        1.0  0.93010  0.39980  0.76537  1.0000 -0.1786167716
C   C9        1.0  0.60020  0.53030  0.43203  1.0000 -0.1786167716
C   C10       1.0  0.06990  0.46970  0.90130  1.0000 -0.1786167716
C   C11       1.0  0.39980  0.93010  0.23463  1.0000 -0.1786167716
C   C12       1.0  0.53030  0.60020  0.56797  1.0000 -0.1786167716
C   C13       1.0  0.54960  0.08990  0.10240  1.0000 0.1106889592
C   C14       1.0  0.91010  0.45970  0.76907  1.0000 0.1106889592
C   C15       1.0  0.54030  0.45040  0.43573  1.0000 0.1106889592
C   C16       1.0  0.08990  0.54960  0.89760  1.0000 0.1106889592
C   C17       1.0  0.45970  0.91010  0.23093  1.0000 0.1106889592
C   C18       1.0  0.45040  0.54030  0.56427  1.0000 0.1106889592
C   C19       1.0  0.57200  0.03950  0.06660  1.0000 -0.1993927603
C   C20       1.0  0.96050  0.53250  0.73327  1.0000 -0.1993927603
C   C21       1.0  0.46750  0.42800  0.39993  1.0000 -0.1993927603
C   C22       1.0  0.03950  0.57200  0.93340  1.0000 -0.1993927603
C   C23       1.0  0.53250  0.96050  0.26673  1.0000 -0.1993927603
C   C24       1.0  0.42800  0.46750  0.60007  1.0000 -0.1993927603
C   C25       1.0  0.50590  0.97190  0.03230  1.0000 0.0185335334
C   C26       1.0  0.02810  0.53400  0.69897  1.0000 0.0185335334
C   C27       1.0  0.46600  0.49410  0.36563  1.0000 0.0185335334
C   C28       1.0  0.97190  0.50590  0.96770  1.0000 0.0185335334
C   C29       1.0  0.53400  0.02810  0.30103  1.0000 0.0185335334
C   C30       1.0  0.49410  0.46600  0.63437  1.0000 0.0185335334
C   C31       1.0  0.61530  0.15940  0.13770  1.0000 0.0799594725
C   C32       1.0  0.84060  0.45590  0.80437  1.0000 0.0799594725
C   C33       1.0  0.54410  0.38470  0.47103  1.0000 0.0799594725
C   C34       1.0  0.15940  0.61530  0.86230  1.0000 0.0799594725
C   C35       1.0  0.45590  0.84060  0.19563  1.0000 0.0799594725
C   C36       1.0  0.38470  0.54410  0.52897  1.0000 0.0799594725
C   C37       1.0  0.59390  0.18120  0.19480  1.0000 -0.1468680595
C   C38       1.0  0.81880  0.41270  0.86147  1.0000 -0.1468680595
C   C39       1.0  0.58730  0.40610  0.52813  1.0000 -0.1468680595
C   C40       1.0  0.18120  0.59390  0.80520  1.0000 -0.1468680595
C   C41       1.0  0.41270  0.81880  0.13853  1.0000 -0.1468680595
C   C42       1.0  0.40610  0.58730  0.47187  1.0000 -0.1468680595
C   C43       1.0  0.65210  0.24720  0.23020  1.0000 -0.0200709147
C   C44       1.0  0.75280  0.40490  0.89687  1.0000 -0.0200709147
C   C45       1.0  0.59510  0.34790  0.56353  1.0000 -0.0200709147
C   C46       1.0  0.24720  0.65210  0.76980  1.0000 -0.0200709147
C   C47       1.0  0.40490  0.75280  0.10313  1.0000 -0.0200709147
C   C48       1.0  0.34790  0.59510  0.43647  1.0000 -0.0200709147
C   C49       1.0  0.73590  0.29290  0.20810  1.0000 -0.1373777484
C   C50       1.0  0.70710  0.44300  0.87477  1.0000 -0.1373777484
C   C51       1.0  0.55700  0.26410  0.54143  1.0000 -0.1373777484
C   C52       1.0  0.29290  0.73590  0.79190  1.0000 -0.1373777484
C   C53       1.0  0.44300  0.70710  0.12523  1.0000 -0.1373777484
C   C54       1.0  0.26410  0.55700  0.45857  1.0000 -0.1373777484
C   C55       1.0  0.75920  0.27740  0.15080  1.0000 -0.0363734672
C   C56       1.0  0.72260  0.48180  0.81747  1.0000 -0.0363734672
C   C57       1.0  0.51820  0.24080  0.48413  1.0000 -0.0363734672
C   C58       1.0  0.27740  0.75920  0.84920  1.0000 -0.0363734672
C   C59       1.0  0.48180  0.72260  0.18253  1.0000 -0.0363734672
C   C60       1.0  0.24080  0.51820  0.51587  1.0000 -0.0363734672
C   C61       1.0  0.69690  0.20540  0.11670  1.0000 -0.1591085761
C   C62       1.0  0.79460  0.49150  0.78337  1.0000 -0.1591085761
C   C63       1.0  0.50850  0.30310  0.45003  1.0000 -0.1591085761
C   C64       1.0  0.20540  0.69690  0.88330  1.0000 -0.1591085761
C   C65       1.0  0.49150  0.79460  0.21663  1.0000 -0.1591085761
C   C66       1.0  0.30310  0.50850  0.54997  1.0000 -0.1591085761
C   C67       1.0  0.63130  0.36870  0.29540  1.0000 -0.0200709147
C   C68       1.0  0.63130  0.26260  0.96207  1.0000 -0.0200709147
C   C69       1.0  0.73740  0.36870  0.62873  1.0000 -0.0200709147
C   C70       1.0  0.36870  0.63130  0.70460  1.0000 -0.0200709147
C   C71       1.0  0.26260  0.63130  0.03793  1.0000 -0.0200709147
C   C72       1.0  0.36870  0.73740  0.37127  1.0000 -0.0200709147
C   C73       1.0  0.56150  0.37320  0.27640  1.0000 -0.1076347194
C   C74       1.0  0.62680  0.18830  0.94307  1.0000 -0.1076347194
C   C75       1.0  0.81170  0.43850  0.60973  1.0000 -0.1076347194
C   C76       1.0  0.37320  0.56150  0.72360  1.0000 -0.1076347194
C   C77       1.0  0.18830  0.62680  0.05693  1.0000 -0.1076347194
C   C78       1.0  0.43850  0.81170  0.39027  1.0000 -0.1076347194
C   C79       1.0  0.56910  0.45060  0.26280  1.0000 -0.0902845126
C   C80       1.0  0.54940  0.11850  0.92947  1.0000 -0.0902845126
C   C81       1.0  0.88150  0.43090  0.59613  1.0000 -0.0902845126
C   C82       1.0  0.45060  0.56910  0.73720  1.0000 -0.0902845126
C   C83       1.0  0.11850  0.54940  0.07053  1.0000 -0.0902845126
C   C84       1.0  0.43090  0.88150  0.40387  1.0000 -0.0902845126
C   C85       1.0  0.64650  0.52340  0.26820  1.0000 -0.1076347194
C   C86       1.0  0.47660  0.12310  0.93487  1.0000 -0.1076347194
C   C87       1.0  0.87690  0.35350  0.60153  1.0000 -0.1076347194
C   C88       1.0  0.52340  0.64650  0.73180  1.0000 -0.1076347194
C   C89       1.0  0.12310  0.47660  0.06513  1.0000 -0.1076347194
C   C90       1.0  0.35350  0.87690  0.39847  1.0000 -0.1076347194
C   C91       1.0  0.71630  0.51890  0.28730  1.0000 -0.0975666712
C   C92       1.0  0.48110  0.19740  0.95397  1.0000 -0.0975666712
C   C93       1.0  0.80260  0.28370  0.62063  1.0000 -0.0975666712
C   C94       1.0  0.51890  0.71630  0.71270  1.0000 -0.0975666712
C   C95       1.0  0.19740  0.48110  0.04603  1.0000 -0.0975666712
C   C96       1.0  0.28370  0.80260  0.37937  1.0000 -0.0975666712
C   C97       1.0  0.70880  0.44160  0.30090  1.0000 -0.1190998389
C   C98       1.0  0.55840  0.26720  0.96757  1.0000 -0.1190998389
C   C99       1.0  0.73280  0.29120  0.63423  1.0000 -0.1190998389
C   C100      1.0  0.44160  0.70880  0.69910  1.0000 -0.1190998389
C   C101      1.0  0.26720  0.55840  0.03243  1.0000 -0.1190998389
C   C102      1.0  0.29120  0.73280  0.36577  1.0000 -0.1190998389
C   C103      1.0  0.70580  0.27950  0.35760  1.0000 -0.0299138065
C   C104      1.0  0.72050  0.42630  0.02427  1.0000 -0.0299138065
C   C105      1.0  0.57370  0.29420  0.69093  1.0000 -0.0299138065
C   C106      1.0  0.27950  0.70580  0.64240  1.0000 -0.0299138065
C   C107      1.0  0.42630  0.72050  0.97573  1.0000 -0.0299138065
C   C108      1.0  0.29420  0.57370  0.30907  1.0000 -0.0299138065
C   C109      1.0  0.72360  0.33240  0.41300  1.0000 -0.1338122332
C   C110      1.0  0.66760  0.39120  0.07967  1.0000 -0.1338122332
C   C111      1.0  0.60880  0.27640  0.74633  1.0000 -0.1338122332
C   C112      1.0  0.33240  0.72360  0.58700  1.0000 -0.1338122332
C   C113      1.0  0.39120  0.66760  0.92033  1.0000 -0.1338122332
C   C114      1.0  0.27640  0.60880  0.25367  1.0000 -0.1338122332
C   C115      1.0  0.78270  0.33470  0.45430  1.0000 -0.0661650345
C   C116      1.0  0.66530  0.44800  0.12097  1.0000 -0.0661650345
C   C117      1.0  0.55200  0.21730  0.78763  1.0000 -0.0661650345
C   C118      1.0  0.33470  0.78270  0.54570  1.0000 -0.0661650345
C   C119      1.0  0.44800  0.66530  0.87903  1.0000 -0.0661650345
C   C120      1.0  0.21730  0.55200  0.21237  1.0000 -0.0661650345
C   C121      1.0  0.82050  0.29470  0.44500  1.0000 -0.0975666712
C   C122      1.0  0.70530  0.52580  0.11167  1.0000 -0.0975666712
C   C123      1.0  0.47420  0.17950  0.77833  1.0000 -0.0975666712
C   C124      1.0  0.29470  0.82050  0.55500  1.0000 -0.0975666712
C   C125      1.0  0.52580  0.70530  0.88833  1.0000 -0.0975666712
C   C126      1.0  0.17950  0.47420  0.22167  1.0000 -0.0975666712
C   C127      1.0  0.81200  0.24810  0.39040  1.0000 -0.1190998389
C   C128      1.0  0.75190  0.56390  0.05707  1.0000 -0.1190998389
C   C129      1.0  0.43610  0.18800  0.72373  1.0000 -0.1190998389
C   C130      1.0  0.24810  0.81200  0.60960  1.0000 -0.1190998389
C   C131      1.0  0.56390  0.75190  0.94293  1.0000 -0.1190998389
C   C132      1.0  0.18800  0.43610  0.27627  1.0000 -0.1190998389
C   C133      1.0  0.74760  0.23750  0.34810  1.0000 -0.1190998389
C   C134      1.0  0.76250  0.51010  0.01477  1.0000 -0.1190998389
C   C135      1.0  0.48990  0.25240  0.68143  1.0000 -0.1190998389
C   C136      1.0  0.23750  0.74760  0.65190  1.0000 -0.1190998389
C   C137      1.0  0.51010  0.76250  0.98523  1.0000 -0.1190998389
C   C138      1.0  0.25240  0.48990  0.31857  1.0000 -0.1190998389
C   C139      1.0  0.91160  0.27410  0.13940  1.0000 -0.0299138065
C   C140      1.0  0.72590  0.63750  0.80607  1.0000 -0.0299138065
C   C141      1.0  0.36250  0.08840  0.47273  1.0000 -0.0299138065
C   C142      1.0  0.27410  0.91160  0.86060  1.0000 -0.0299138065
C   C143      1.0  0.63750  0.72590  0.19393  1.0000 -0.0299138065
C   C144      1.0  0.08840  0.36250  0.52727  1.0000 -0.0299138065
C   C145      1.0  0.90480  0.24340  0.20440  1.0000 -0.1190998389
C   C146      1.0  0.75660  0.66140  0.87107  1.0000 -0.1190998389
C   C147      1.0  0.33860  0.09520  0.53773  1.0000 -0.1190998389
C   C148      1.0  0.24340  0.90480  0.79560  1.0000 -0.1190998389
C   C149      1.0  0.66140  0.75660  0.12893  1.0000 -0.1190998389
C   C150      1.0  0.09520  0.33860  0.46227  1.0000 -0.1190998389
C   C151      1.0  0.94640  0.20620  0.22360  1.0000 -0.0902845126
C   C152      1.0  0.79380  0.74020  0.89027  1.0000 -0.0902845126
C   C153      1.0  0.25980  0.05360  0.55693  1.0000 -0.0902845126
C   C154      1.0  0.20620  0.94640  0.77640  1.0000 -0.0902845126
C   C155      1.0  0.74020  0.79380  0.10973  1.0000 -0.0902845126
C   C156      1.0  0.05360  0.25980  0.44307  1.0000 -0.0902845126
C   C157      1.0  0.00280  0.19650  0.18270  1.0000 -0.1076347194
C   C158      1.0  0.80350  0.80630  0.84937  1.0000 -0.1076347194
C   C159      1.0  0.19370  0.99720  0.51603  1.0000 -0.1076347194
C   C160      1.0  0.19650  0.00280  0.81730  1.0000 -0.1076347194
C   C161      1.0  0.80630  0.80350  0.15063  1.0000 -0.1076347194
C   C162      1.0  0.99720  0.19370  0.48397  1.0000 -0.1076347194
C   C163      1.0  0.00970  0.22710  0.12150  1.0000 -0.0902845126
C   C164      1.0  0.77290  0.78260  0.78817  1.0000 -0.0902845126
C   C165      1.0  0.21740  0.99030  0.45483  1.0000 -0.0902845126
C   C166      1.0  0.22710  0.00970  0.87850  1.0000 -0.0902845126
C   C167      1.0  0.78260  0.77290  0.21183  1.0000 -0.0902845126
C   C168      1.0  0.99030  0.21740  0.54517  1.0000 -0.0902845126
C   C169      1.0  0.97140  0.26720  0.10020  1.0000 -0.1190998389
C   C170      1.0  0.73280  0.70420  0.76687  1.0000 -0.1190998389
C   C171      1.0  0.29580  0.02860  0.43353  1.0000 -0.1190998389
C   C172      1.0  0.26720  0.97140  0.89980  1.0000 -0.1190998389
C   C173      1.0  0.70420  0.73280  0.23313  1.0000 -0.1190998389
C   C174      1.0  0.02860  0.29580  0.56647  1.0000 -0.1190998389
C   C175      1.0  0.91260  0.42640  0.15850  1.0000 -0.0363734672
C   C176      1.0  0.57360  0.48620  0.82517  1.0000 -0.0363734672
C   C177      1.0  0.51380  0.08740  0.49183  1.0000 -0.0299138065
C   C178      1.0  0.42640  0.91260  0.84150  1.0000 -0.0363734672
C   C179      1.0  0.48620  0.57360  0.17483  1.0000 -0.0363734672
C   C180      1.0  0.08740  0.51380  0.50817  1.0000 -0.0363734672
C   C181      1.0  0.96960  0.44370  0.20680  1.0000 -0.1190998389
C   C182      1.0  0.55630  0.52590  0.87347  1.0000 -0.1190998389
C   C183      1.0  0.47410  0.03040  0.54013  1.0000 -0.1190998389
C   C184      1.0  0.44370  0.96960  0.79320  1.0000 -0.1190998389
C   C185      1.0  0.52590  0.55630  0.12653  1.0000 -0.1190998389
C   C186      1.0  0.03040  0.47410  0.45987  1.0000 -0.1190998389
C   C187      1.0  0.00230  0.51890  0.23950  1.0000 -0.0902845126
C   C188      1.0  0.48110  0.48340  0.90617  1.0000 -0.0975666712
C   C189      1.0  0.51660  0.99770  0.57283  1.0000 -0.0902845126
C   C190      1.0  0.51890  0.00230  0.76050  1.0000 -0.0902845126
C   C191      1.0  0.48340  0.48110  0.09383  1.0000 -0.0975666712
C   C192      1.0  0.99770  0.51660  0.42717  1.0000 -0.0975666712
C   C193      1.0  0.97790  0.57690  0.22380  1.0000 -0.0975666712
C   C194      1.0  0.42310  0.40100  0.89047  1.0000 -0.0975666712
C   C195      1.0  0.59900  0.02210  0.55713  1.0000 -0.0975666712
C   C196      1.0  0.57690  0.97790  0.77620  1.0000 -0.0975666712
C   C197      1.0  0.40100  0.42310  0.10953  1.0000 -0.0975666712
C   C198      1.0  0.02210  0.59900  0.44287  1.0000 -0.0975666712
C   C199      1.0  0.92100  0.55970  0.17540  1.0000 -0.0902845126
C   C200      1.0  0.44030  0.36130  0.84207  1.0000 -0.0902845126
C   C201      1.0  0.63870  0.07900  0.50873  1.0000 -0.0902845126
C   C202      1.0  0.55970  0.92100  0.82460  1.0000 -0.0902845126
C   C203      1.0  0.36130  0.44030  0.15793  1.0000 -0.0902845126
C   C204      1.0  0.07900  0.63870  0.49127  1.0000 -0.0902845126
C   C205      1.0  0.88830  0.48450  0.14280  1.0000 -0.1190998389
C   C206      1.0  0.51550  0.40380  0.80947  1.0000 -0.1190998389
C   C207      1.0  0.59620  0.11170  0.47613  1.0000 -0.1190998389
C   C208      1.0  0.48450  0.88830  0.85720  1.0000 -0.1190998389
C   C209      1.0  0.40380  0.51550  0.19053  1.0000 -0.1190998389
C   C210      1.0  0.11170  0.59620  0.52387  1.0000 -0.1190998389
N   N1        1.0  0.42290  0.94890  0.03290  1.0000 -0.1872633119
N   N2        1.0  0.05110  0.47400  0.69957  1.0000 -0.1872633119
N   N3        1.0  0.52600  0.57710  0.36623  1.0000 -0.1872633119
N   N4        1.0  0.94890  0.42290  0.96710  1.0000 -0.1872633119
N   N5        1.0  0.47400  0.05110  0.30043  1.0000 -0.1872633119
N   N6        1.0  0.57710  0.52600  0.63377  1.0000 -0.1872633119
Cl  Cl1       1.0  0.37870  0.16210  0.29410  1.0000 -0.5502251381
Cl  Cl2       1.0  0.83790  0.21660  0.96077  1.0000 -0.5502251381
Cl  Cl3       1.0  0.78340  0.62130  0.62743  1.0000 -0.5502251381
Cl  Cl4       1.0  0.16210  0.37870  0.70590  1.0000 -0.5502251381
Cl  Cl5       1.0  0.21660  0.83790  0.03923  1.0000 -0.5502251381
Cl  Cl6       1.0  0.62130  0.78340  0.37257  1.0000 -0.5502251381
