# DDEC6 charges by PACMAN v1.1 (https://github.com/mtap-research/PACMAN-charge/)
data_2012[Cu][pcu]3[FSR]3
_chemical_formula_sum              "Cu12 H136 C160 N24 O32"
_cell_length_a       9.2091
_cell_length_b       22.7532
_cell_length_c       23.0902
_cell_angle_alpha    90
_cell_angle_beta     90
_cell_angle_gamma    90

_symmetry_space_group_name_H-M    "P 1"
_symmetry_Int_Tables_number       1

loop_
  _symmetry_equiv_pos_as_xyz
  'x, y, z'

loop_
  _atom_site_type_symbol
  _atom_site_label
  _atom_site_symmetry_multiplicity
  _atom_site_fract_x
  _atom_site_fract_y
  _atom_site_fract_z
  _atom_site_occupancy
  _atom_site_charge
Cu  Cu1       1.0  0.38884  0.03282  0.53264  1.0000 0.2914910416
Cu  Cu2       1.0  0.11116  0.96718  0.03264  1.0000 0.2914910416
Cu  Cu3       1.0  0.88884  0.46718  0.96736  1.0000 0.2914910416
Cu  Cu4       1.0  0.61116  0.53282  0.46736  1.0000 0.2914910416
Cu  Cu5       1.0  0.61116  0.96718  0.46736  1.0000 0.2914910416
Cu  Cu6       1.0  0.88884  0.03282  0.96736  1.0000 0.2914910416
Cu  Cu7       1.0  0.11116  0.53282  0.03264  1.0000 0.2914910416
Cu  Cu8       1.0  0.38884  0.46718  0.53264  1.0000 0.2914910416
Cu  Cu9       1.0  0.26482  0.25000  0.52734  1.0000 0.7802802722
Cu  Cu10      1.0  0.23518  0.75000  0.02734  1.0000 0.7802802722
Cu  Cu11      1.0  0.76482  0.25000  0.97266  1.0000 0.7802802722
Cu  Cu12      1.0  0.73518  0.75000  0.47266  1.0000 0.7802802722
H   H1        1.0  0.04190  0.25000  0.72090  1.0000 0.140876912
H   H2        1.0  0.45810  0.75000  0.22090  1.0000 0.140876912
H   H3        1.0  0.54190  0.25000  0.77910  1.0000 0.140876912
H   H4        1.0  0.95810  0.75000  0.27910  1.0000 0.140876912
H   H5        1.0  0.81130  0.25000  0.68600  1.0000 0.1316523264
H   H6        1.0  0.68870  0.75000  0.18600  1.0000 0.1316523264
H   H7        1.0  0.31130  0.25000  0.81400  1.0000 0.1316523264
H   H8        1.0  0.18870  0.75000  0.31400  1.0000 0.1316523264
H   H9        1.0  0.75890  0.25000  0.59140  1.0000 0.1517021025
H   H10       1.0  0.74110  0.75000  0.09140  1.0000 0.1517021025
H   H11       1.0  0.25890  0.25000  0.90860  1.0000 0.1517021025
H   H12       1.0  0.24110  0.75000  0.40860  1.0000 0.1517021025
H   H13       1.0  0.59040  0.16060  0.38610  1.0000 0.1316523264
H   H14       1.0  0.90960  0.83940  0.88610  1.0000 0.1316523264
H   H15       1.0  0.09040  0.33940  0.11390  1.0000 0.1316523264
H   H16       1.0  0.40960  0.66060  0.61390  1.0000 0.1316523264
H   H17       1.0  0.40960  0.83940  0.61390  1.0000 0.1316523264
H   H18       1.0  0.09040  0.16060  0.11390  1.0000 0.1316523264
H   H19       1.0  0.90960  0.66060  0.88610  1.0000 0.1316523264
H   H20       1.0  0.59040  0.33940  0.38610  1.0000 0.1316523264
H   H21       1.0  0.66710  0.25000  0.34670  1.0000 0.1125743845
H   H22       1.0  0.83290  0.75000  0.84670  1.0000 0.1125743845
H   H23       1.0  0.16710  0.25000  0.15330  1.0000 0.1125743845
H   H24       1.0  0.33290  0.75000  0.65330  1.0000 0.1125743845
H   H25       1.0  0.55090  0.97160  0.62220  1.0000 0.1125743845
H   H26       1.0  0.94910  0.02840  0.12220  1.0000 0.1125743845
H   H27       1.0  0.05090  0.52840  0.87780  1.0000 0.1125743845
H   H28       1.0  0.44910  0.47160  0.37780  1.0000 0.1125743845
H   H29       1.0  0.44910  0.02840  0.37780  1.0000 0.1125743845
H   H30       1.0  0.05090  0.97160  0.87780  1.0000 0.1125743845
H   H31       1.0  0.94910  0.47160  0.12220  1.0000 0.1125743845
H   H32       1.0  0.55090  0.52840  0.62220  1.0000 0.1125743845
H   H33       1.0  0.65230  0.99160  0.71020  1.0000 0.140876912
H   H34       1.0  0.84770  0.00840  0.21020  1.0000 0.140876912
H   H35       1.0  0.15230  0.50840  0.78980  1.0000 0.140876912
H   H36       1.0  0.34770  0.49160  0.28980  1.0000 0.140876912
H   H37       1.0  0.34770  0.00840  0.28980  1.0000 0.140876912
H   H38       1.0  0.15230  0.99160  0.78980  1.0000 0.140876912
H   H39       1.0  0.84770  0.49160  0.21020  1.0000 0.140876912
H   H40       1.0  0.65230  0.50840  0.71020  1.0000 0.140876912
H   H41       1.0  0.55960  0.15870  0.68820  1.0000 0.1517021025
H   H42       1.0  0.94040  0.84130  0.18820  1.0000 0.1517021025
H   H43       1.0  0.05960  0.34130  0.81180  1.0000 0.1517021025
H   H44       1.0  0.44040  0.65870  0.31180  1.0000 0.1517021025
H   H45       1.0  0.44040  0.84130  0.31180  1.0000 0.1517021025
H   H46       1.0  0.05960  0.15870  0.81180  1.0000 0.1517021025
H   H47       1.0  0.94040  0.65870  0.18820  1.0000 0.1517021025
H   H48       1.0  0.55960  0.34130  0.68820  1.0000 0.1517021025
H   H49       1.0  0.45740  0.13640  0.60090  1.0000 0.1125743845
H   H50       1.0  0.04260  0.86360  0.10090  1.0000 0.1125743845
H   H51       1.0  0.95740  0.36360  0.89910  1.0000 0.1125743845
H   H52       1.0  0.54260  0.63640  0.39910  1.0000 0.1125743845
H   H53       1.0  0.54260  0.86360  0.39910  1.0000 0.1125743845
H   H54       1.0  0.95740  0.13640  0.89910  1.0000 0.1125743845
H   H55       1.0  0.04260  0.63640  0.10090  1.0000 0.1125743845
H   H56       1.0  0.45740  0.36360  0.60090  1.0000 0.1125743845
H   H57       1.0  0.68960  0.12980  0.77500  1.0000 0.1192263166
H   H58       1.0  0.81040  0.87020  0.27500  1.0000 0.1192263166
H   H59       1.0  0.18960  0.37020  0.72500  1.0000 0.1192263166
H   H60       1.0  0.31040  0.62980  0.22500  1.0000 0.1192263166
H   H61       1.0  0.31040  0.87020  0.22500  1.0000 0.1192263166
H   H62       1.0  0.18960  0.12980  0.72500  1.0000 0.1192263166
H   H63       1.0  0.81040  0.62980  0.27500  1.0000 0.1192263166
H   H64       1.0  0.68960  0.37020  0.77500  1.0000 0.1192263166
H   H65       1.0  0.74940  0.06540  0.77970  1.0000 0.1192263166
H   H66       1.0  0.75060  0.93460  0.27970  1.0000 0.1192263166
H   H67       1.0  0.24940  0.43460  0.72030  1.0000 0.1192263166
H   H68       1.0  0.25060  0.56540  0.22030  1.0000 0.1192263166
H   H69       1.0  0.25060  0.93460  0.22030  1.0000 0.1192263166
H   H70       1.0  0.24940  0.06540  0.72030  1.0000 0.1192263166
H   H71       1.0  0.75060  0.56540  0.27970  1.0000 0.1192263166
H   H72       1.0  0.74940  0.43460  0.77970  1.0000 0.1192263166
H   H73       1.0  0.46150  0.09910  0.80680  1.0000 0.102233472
H   H74       1.0  0.03850  0.90090  0.30680  1.0000 0.102233472
H   H75       1.0  0.96150  0.40090  0.69320  1.0000 0.102233472
H   H76       1.0  0.53850  0.59910  0.19320  1.0000 0.102233472
H   H77       1.0  0.53850  0.90090  0.19320  1.0000 0.102233472
H   H78       1.0  0.96150  0.09910  0.69320  1.0000 0.102233472
H   H79       1.0  0.03850  0.59910  0.30680  1.0000 0.102233472
H   H80       1.0  0.46150  0.40090  0.80680  1.0000 0.102233472
H   H81       1.0  0.51310  0.03350  0.80750  1.0000 0.0929784961
H   H82       1.0  0.98690  0.96650  0.30750  1.0000 0.0929784961
H   H83       1.0  0.01310  0.46650  0.69250  1.0000 0.0929784961
H   H84       1.0  0.48690  0.53350  0.19250  1.0000 0.0929784961
H   H85       1.0  0.48690  0.96650  0.19250  1.0000 0.0929784961
H   H86       1.0  0.01310  0.03350  0.69250  1.0000 0.0929784961
H   H87       1.0  0.98690  0.53350  0.30750  1.0000 0.0929784961
H   H88       1.0  0.51310  0.46650  0.80750  1.0000 0.0929784961
H   H89       1.0  0.60150  0.12120  0.88570  1.0000 0.1316523264
H   H90       1.0  0.89850  0.87880  0.38570  1.0000 0.1316523264
H   H91       1.0  0.10150  0.37880  0.61430  1.0000 0.1316523264
H   H92       1.0  0.39850  0.62120  0.11430  1.0000 0.1316523264
H   H93       1.0  0.39850  0.87880  0.11430  1.0000 0.1316523264
H   H94       1.0  0.10150  0.12120  0.61430  1.0000 0.1316523264
H   H95       1.0  0.89850  0.62120  0.38570  1.0000 0.1316523264
H   H96       1.0  0.60150  0.37880  0.88570  1.0000 0.1316523264
H   H97       1.0  0.67810  0.05960  0.88330  1.0000 0.1125743845
H   H98       1.0  0.82190  0.94040  0.38330  1.0000 0.1125743845
H   H99       1.0  0.17810  0.44040  0.61670  1.0000 0.1125743845
H   H100      1.0  0.32190  0.55960  0.11670  1.0000 0.1125743845
H   H101      1.0  0.32190  0.94040  0.11670  1.0000 0.1125743845
H   H102      1.0  0.17810  0.05960  0.61670  1.0000 0.1125743845
H   H103      1.0  0.82190  0.55960  0.38330  1.0000 0.1125743845
H   H104      1.0  0.67810  0.44040  0.88330  1.0000 0.1125743845
H   H105      1.0  0.21790  0.08730  0.00510  1.0000 0.1125743845
H   H106      1.0  0.28210  0.91270  0.50510  1.0000 0.1125743845
H   H107      1.0  0.71790  0.41270  0.49490  1.0000 0.1125743845
H   H108      1.0  0.78210  0.58730  0.99490  1.0000 0.1125743845
H   H109      1.0  0.78210  0.91270  0.99490  1.0000 0.1125743845
H   H110      1.0  0.71790  0.08730  0.49490  1.0000 0.1125743845
H   H111      1.0  0.28210  0.58730  0.50510  1.0000 0.1125743845
H   H112      1.0  0.21790  0.41270  0.00510  1.0000 0.1125743845
H   H113      1.0  0.38870  0.12930  0.94790  1.0000 0.140876912
H   H114      1.0  0.11130  0.87070  0.44790  1.0000 0.140876912
H   H115      1.0  0.88870  0.37070  0.55210  1.0000 0.140876912
H   H116      1.0  0.61130  0.62930  0.05210  1.0000 0.140876912
H   H117      1.0  0.61130  0.87070  0.05210  1.0000 0.140876912
H   H118      1.0  0.88870  0.12930  0.55210  1.0000 0.140876912
H   H119      1.0  0.11130  0.62930  0.44790  1.0000 0.140876912
H   H120      1.0  0.38870  0.37070  0.94790  1.0000 0.140876912
H   H121      1.0  0.51160  0.96920  0.89940  1.0000 0.140876912
H   H122      1.0  0.98840  0.03080  0.39940  1.0000 0.140876912
H   H123      1.0  0.01160  0.53080  0.60060  1.0000 0.140876912
H   H124      1.0  0.48840  0.46920  0.10060  1.0000 0.140876912
H   H125      1.0  0.48840  0.03080  0.10060  1.0000 0.140876912
H   H126      1.0  0.01160  0.96920  0.60060  1.0000 0.140876912
H   H127      1.0  0.98840  0.46920  0.39940  1.0000 0.140876912
H   H128      1.0  0.51160  0.53080  0.89940  1.0000 0.140876912
H   H129      1.0  0.33950  0.93110  0.95820  1.0000 0.1192263166
H   H130      1.0  0.16050  0.06890  0.45820  1.0000 0.1192263166
H   H131      1.0  0.83950  0.56890  0.54180  1.0000 0.1192263166
H   H132      1.0  0.66050  0.43110  0.04180  1.0000 0.1192263166
H   H133      1.0  0.66050  0.06890  0.04180  1.0000 0.1192263166
H   H134      1.0  0.83950  0.93110  0.54180  1.0000 0.1192263166
H   H135      1.0  0.16050  0.43110  0.45820  1.0000 0.1192263166
H   H136      1.0  0.33950  0.56890  0.95820  1.0000 0.1192263166
C   C1        1.0  0.13940  0.25000  0.64020  1.0000 0.0490616995
C   C2        1.0  0.36060  0.75000  0.14020  1.0000 0.0490616995
C   C3        1.0  0.63940  0.25000  0.85980  1.0000 0.0490616995
C   C4        1.0  0.86060  0.75000  0.35980  1.0000 0.0490616995
C   C5        1.0  0.02400  0.25000  0.68120  1.0000 -0.1282624056
C   C6        1.0  0.47600  0.75000  0.18120  1.0000 -0.1282624056
C   C7        1.0  0.52400  0.25000  0.81880  1.0000 -0.1282624056
C   C8        1.0  0.97600  0.75000  0.31880  1.0000 -0.1282624056
C   C9        1.0  0.88800  0.25000  0.65970  1.0000 -0.050980111
C   C10       1.0  0.61200  0.75000  0.15970  1.0000 -0.050980111
C   C11       1.0  0.38800  0.25000  0.84030  1.0000 -0.050980111
C   C12       1.0  0.11200  0.75000  0.34030  1.0000 -0.050980111
C   C13       1.0  0.85500  0.25000  0.60400  1.0000 -0.1551965525
C   C14       1.0  0.64500  0.75000  0.10400  1.0000 -0.1551965525
C   C15       1.0  0.35500  0.25000  0.89600  1.0000 -0.1551965525
C   C16       1.0  0.14500  0.75000  0.39600  1.0000 -0.1551965525
C   C17       1.0  0.97300  0.25000  0.56410  1.0000 0.0929784961
C   C18       1.0  0.52700  0.75000  0.06410  1.0000 0.0929784961
C   C19       1.0  0.47300  0.25000  0.93590  1.0000 0.0929784961
C   C20       1.0  0.02700  0.75000  0.43590  1.0000 0.0929784961
C   C21       1.0  0.29400  0.25000  0.64950  1.0000 0.4926579991
C   C22       1.0  0.20600  0.75000  0.14950  1.0000 0.4926579991
C   C23       1.0  0.79400  0.25000  0.85050  1.0000 0.4926579991
C   C24       1.0  0.70600  0.75000  0.35050  1.0000 0.4926579991
C   C25       1.0  0.95800  0.25000  0.49970  1.0000 0.5036269824
C   C26       1.0  0.54200  0.75000  0.99970  1.0000 0.5036269824
C   C27       1.0  0.45800  0.25000  0.00030  1.0000 0.5036269824
C   C28       1.0  0.04200  0.75000  0.50030  1.0000 0.5036269824
C   C29       1.0  0.46400  0.19780  0.44600  1.0000 0.1125743845
C   C30       1.0  0.03600  0.80220  0.94600  1.0000 0.1125743845
C   C31       1.0  0.96400  0.30220  0.05400  1.0000 0.1192263166
C   C32       1.0  0.53600  0.69780  0.55400  1.0000 0.1125743845
C   C33       1.0  0.53600  0.80220  0.55400  1.0000 0.1125743845
C   C34       1.0  0.96400  0.19780  0.05400  1.0000 0.1192263166
C   C35       1.0  0.03600  0.69780  0.94600  1.0000 0.1125743845
C   C36       1.0  0.46400  0.30220  0.44600  1.0000 0.1125743845
C   C37       1.0  0.55770  0.19610  0.40120  1.0000 -0.1421384945
C   C38       1.0  0.94230  0.80390  0.90120  1.0000 -0.1421384945
C   C39       1.0  0.05770  0.30390  0.09880  1.0000 -0.1421384945
C   C40       1.0  0.44230  0.69610  0.59880  1.0000 -0.1421384945
C   C41       1.0  0.44230  0.80390  0.59880  1.0000 -0.1421384945
C   C42       1.0  0.05770  0.19610  0.09880  1.0000 -0.1421384945
C   C43       1.0  0.94230  0.69610  0.90120  1.0000 -0.1421384945
C   C44       1.0  0.55770  0.30390  0.40120  1.0000 -0.1421384945
C   C45       1.0  0.60390  0.25000  0.37810  1.0000 -0.0187761794
C   C46       1.0  0.89610  0.75000  0.87810  1.0000 -0.0187761794
C   C47       1.0  0.10390  0.25000  0.12190  1.0000 -0.0187761794
C   C48       1.0  0.39610  0.75000  0.62190  1.0000 -0.0187761794
C   C49       1.0  0.40550  0.14420  0.47660  1.0000 0.5104192893
C   C50       1.0  0.09450  0.85580  0.97660  1.0000 0.5104192893
C   C51       1.0  0.90550  0.35580  0.02340  1.0000 0.5104192893
C   C52       1.0  0.59450  0.64420  0.52340  1.0000 0.5104192893
C   C53       1.0  0.59450  0.85580  0.52340  1.0000 0.5104192893
C   C54       1.0  0.90550  0.14420  0.02340  1.0000 0.5104192893
C   C55       1.0  0.09450  0.64420  0.97660  1.0000 0.5104192893
C   C56       1.0  0.40550  0.35580  0.47660  1.0000 0.5104192893
C   C57       1.0  0.55060  0.01010  0.63560  1.0000 0.0636635708
C   C58       1.0  0.94940  0.98990  0.13560  1.0000 0.0636635708
C   C59       1.0  0.05060  0.48990  0.86440  1.0000 0.0636635708
C   C60       1.0  0.44940  0.51010  0.36440  1.0000 0.0636635708
C   C61       1.0  0.44940  0.98990  0.36440  1.0000 0.0636635708
C   C62       1.0  0.05060  0.01010  0.86440  1.0000 0.0636635708
C   C63       1.0  0.94940  0.51010  0.13560  1.0000 0.0636635708
C   C64       1.0  0.55060  0.48990  0.63560  1.0000 0.0636635708
C   C65       1.0  0.61180  0.02220  0.68890  1.0000 -0.202261264
C   C66       1.0  0.88820  0.97780  0.18890  1.0000 -0.202261264
C   C67       1.0  0.11180  0.47780  0.81110  1.0000 -0.202261264
C   C68       1.0  0.38820  0.52220  0.31110  1.0000 -0.202261264
C   C69       1.0  0.38820  0.97780  0.31110  1.0000 -0.202261264
C   C70       1.0  0.11180  0.02220  0.81110  1.0000 -0.202261264
C   C71       1.0  0.88820  0.52220  0.18890  1.0000 -0.202261264
C   C72       1.0  0.61180  0.47780  0.68890  1.0000 -0.202261264
C   C73       1.0  0.61430  0.07660  0.71080  1.0000 0.1517021025
C   C74       1.0  0.88570  0.92340  0.21080  1.0000 0.1517021025
C   C75       1.0  0.11430  0.42340  0.78920  1.0000 0.1517021025
C   C76       1.0  0.38570  0.57660  0.28920  1.0000 0.1517021025
C   C77       1.0  0.38570  0.92340  0.28920  1.0000 0.1517021025
C   C78       1.0  0.11430  0.07660  0.78920  1.0000 0.1517021025
C   C79       1.0  0.88570  0.57660  0.21080  1.0000 0.1517021025
C   C80       1.0  0.61430  0.42340  0.71080  1.0000 0.1517021025
C   C81       1.0  0.55720  0.11980  0.67590  1.0000 -0.2050731586
C   C82       1.0  0.94280  0.88020  0.17590  1.0000 -0.2050731586
C   C83       1.0  0.05720  0.38020  0.82410  1.0000 -0.2050731586
C   C84       1.0  0.44280  0.61980  0.32410  1.0000 -0.2050731586
C   C85       1.0  0.44280  0.88020  0.32410  1.0000 -0.2050731586
C   C86       1.0  0.05720  0.11980  0.82410  1.0000 -0.2050731586
C   C87       1.0  0.94280  0.61980  0.17590  1.0000 -0.2050731586
C   C88       1.0  0.55720  0.38020  0.67590  1.0000 -0.2050731586
C   C89       1.0  0.49650  0.10610  0.62320  1.0000 0.0794481865
C   C90       1.0  0.00350  0.89390  0.12320  1.0000 0.0794481865
C   C91       1.0  0.99650  0.39390  0.87680  1.0000 0.0794481865
C   C92       1.0  0.50350  0.60610  0.37680  1.0000 0.0794481865
C   C93       1.0  0.50350  0.89390  0.37680  1.0000 0.0794481865
C   C94       1.0  0.99650  0.10610  0.87680  1.0000 0.0794481865
C   C95       1.0  0.00350  0.60610  0.12320  1.0000 0.0794481865
C   C96       1.0  0.49650  0.39390  0.62320  1.0000 0.0794481865
C   C97       1.0  0.66380  0.08870  0.77130  1.0000 -0.2544855078
C   C98       1.0  0.83620  0.91130  0.27130  1.0000 -0.2544855078
C   C99       1.0  0.16380  0.41130  0.72870  1.0000 -0.2544855078
C   C100      1.0  0.33620  0.58870  0.22870  1.0000 -0.2544855078
C   C101      1.0  0.33620  0.91130  0.22870  1.0000 -0.2544855078
C   C102      1.0  0.16380  0.08870  0.72870  1.0000 -0.2544855078
C   C103      1.0  0.83620  0.58870  0.27130  1.0000 -0.2544855078
C   C104      1.0  0.66380  0.41130  0.77130  1.0000 -0.2544855078
C   C105      1.0  0.54410  0.07370  0.81420  1.0000 -0.1421384945
C   C106      1.0  0.95590  0.92630  0.31420  1.0000 -0.1421384945
C   C107      1.0  0.04410  0.42630  0.68580  1.0000 -0.1421384945
C   C108      1.0  0.45590  0.57370  0.18580  1.0000 -0.1421384945
C   C109      1.0  0.45590  0.92630  0.18580  1.0000 -0.1421384945
C   C110      1.0  0.04410  0.07370  0.68580  1.0000 -0.1421384945
C   C111      1.0  0.95590  0.57370  0.31420  1.0000 -0.1421384945
C   C112      1.0  0.54410  0.42630  0.81420  1.0000 -0.1421384945
C   C113      1.0  0.58700  0.07990  0.87680  1.0000 -0.2603957554
C   C114      1.0  0.91300  0.92010  0.37680  1.0000 -0.2603957554
C   C115      1.0  0.08700  0.42010  0.62320  1.0000 -0.2603957554
C   C116      1.0  0.41300  0.57990  0.12320  1.0000 -0.2603957554
C   C117      1.0  0.41300  0.92010  0.12320  1.0000 -0.2603957554
C   C118      1.0  0.08700  0.07990  0.62320  1.0000 -0.2603957554
C   C119      1.0  0.91300  0.57990  0.37680  1.0000 -0.2603957554
C   C120      1.0  0.58700  0.42010  0.87680  1.0000 -0.2603957554
C   C121      1.0  0.27830  0.06300  0.98350  1.0000 0.0794481865
C   C122      1.0  0.22170  0.93700  0.48350  1.0000 0.0794481865
C   C123      1.0  0.77830  0.43700  0.51650  1.0000 0.0794481865
C   C124      1.0  0.72170  0.56300  0.01650  1.0000 0.0794481865
C   C125      1.0  0.72170  0.93700  0.01650  1.0000 0.0794481865
C   C126      1.0  0.77830  0.06300  0.51650  1.0000 0.0794481865
C   C127      1.0  0.22170  0.56300  0.48350  1.0000 0.0794481865
C   C128      1.0  0.27830  0.43700  0.98350  1.0000 0.0794481865
C   C129      1.0  0.38080  0.08860  0.94910  1.0000 -0.202261264
C   C130      1.0  0.11920  0.91140  0.44910  1.0000 -0.202261264
C   C131      1.0  0.88080  0.41140  0.55090  1.0000 -0.202261264
C   C132      1.0  0.61920  0.58860  0.05090  1.0000 -0.202261264
C   C133      1.0  0.61920  0.91140  0.05090  1.0000 -0.202261264
C   C134      1.0  0.88080  0.08860  0.55090  1.0000 -0.202261264
C   C135      1.0  0.11920  0.58860  0.44910  1.0000 -0.202261264
C   C136      1.0  0.38080  0.41140  0.94910  1.0000 -0.202261264
C   C137      1.0  0.47170  0.05480  0.91650  1.0000 0.1632914791
C   C138      1.0  0.02830  0.94520  0.41650  1.0000 0.1632914791
C   C139      1.0  0.97170  0.44520  0.58350  1.0000 0.1632914791
C   C140      1.0  0.52830  0.55480  0.08350  1.0000 0.1632914791
C   C141      1.0  0.52830  0.94520  0.08350  1.0000 0.1632914791
C   C142      1.0  0.97170  0.05480  0.58350  1.0000 0.1632914791
C   C143      1.0  0.02830  0.55480  0.41650  1.0000 0.1632914791
C   C144      1.0  0.47170  0.44520  0.91650  1.0000 0.1632914791
C   C145      1.0  0.45270  0.99430  0.92080  1.0000 -0.202261264
C   C146      1.0  0.04730  0.00570  0.42080  1.0000 -0.202261264
C   C147      1.0  0.95270  0.50570  0.57920  1.0000 -0.202261264
C   C148      1.0  0.54730  0.49430  0.07920  1.0000 -0.202261264
C   C149      1.0  0.54730  0.00570  0.07920  1.0000 -0.202261264
C   C150      1.0  0.95270  0.99430  0.57920  1.0000 -0.202261264
C   C151      1.0  0.04730  0.49430  0.42080  1.0000 -0.202261264
C   C152      1.0  0.45270  0.50570  0.92080  1.0000 -0.202261264
C   C153      1.0  0.34930  0.97180  0.95590  1.0000 0.0673470577
C   C154      1.0  0.15070  0.02820  0.45590  1.0000 0.0673470577
C   C155      1.0  0.84930  0.52820  0.54410  1.0000 0.0673470577
C   C156      1.0  0.65070  0.47180  0.04410  1.0000 0.0673470577
C   C157      1.0  0.65070  0.02820  0.04410  1.0000 0.0673470577
C   C158      1.0  0.84930  0.97180  0.54410  1.0000 0.0673470577
C   C159      1.0  0.15070  0.47180  0.45590  1.0000 0.0673470577
C   C160      1.0  0.34930  0.52820  0.95590  1.0000 0.0673470577
N   N1        1.0  0.10750  0.25000  0.58330  1.0000 -0.2697836434
N   N2        1.0  0.39250  0.75000  0.08330  1.0000 -0.2697836434
N   N3        1.0  0.60750  0.25000  0.91670  1.0000 -0.2697836434
N   N4        1.0  0.89250  0.75000  0.41670  1.0000 -0.2697836434
N   N5        1.0  0.41720  0.25000  0.46720  1.0000 -0.2697836434
N   N6        1.0  0.08280  0.75000  0.96720  1.0000 -0.2697836434
N   N7        1.0  0.91720  0.25000  0.03280  1.0000 -0.2697836434
N   N8        1.0  0.58280  0.75000  0.53280  1.0000 -0.2697836434
N   N9        1.0  0.49130  0.05180  0.60270  1.0000 -0.202261264
N   N10       1.0  0.00870  0.94820  0.10270  1.0000 -0.202261264
N   N11       1.0  0.99130  0.44820  0.89730  1.0000 -0.202261264
N   N12       1.0  0.50870  0.55180  0.39730  1.0000 -0.202261264
N   N13       1.0  0.50870  0.94820  0.39730  1.0000 -0.202261264
N   N14       1.0  0.99130  0.05180  0.89730  1.0000 -0.202261264
N   N15       1.0  0.00870  0.55180  0.10270  1.0000 -0.202261264
N   N16       1.0  0.49130  0.44820  0.60270  1.0000 -0.202261264
N   N17       1.0  0.25990  0.00570  0.98780  1.0000 -0.202261264
N   N18       1.0  0.24010  0.99430  0.48780  1.0000 -0.202261264
N   N19       1.0  0.75990  0.49430  0.51220  1.0000 -0.202261264
N   N20       1.0  0.74010  0.50570  0.01220  1.0000 -0.202261264
N   N21       1.0  0.74010  0.99430  0.01220  1.0000 -0.202261264
N   N22       1.0  0.75990  0.00570  0.51220  1.0000 -0.202261264
N   N23       1.0  0.24010  0.50570  0.48780  1.0000 -0.202261264
N   N24       1.0  0.25990  0.49430  0.98780  1.0000 -0.202261264
O   O1        1.0  0.34820  0.25000  0.69910  1.0000 -0.5309910377
O   O2        1.0  0.15180  0.75000  0.19910  1.0000 -0.5309910377
O   O3        1.0  0.84820  0.25000  0.80090  1.0000 -0.5309910377
O   O4        1.0  0.65180  0.75000  0.30090  1.0000 -0.5309910377
O   O5        1.0  0.38320  0.25000  0.60380  1.0000 -0.5656321248
O   O6        1.0  0.11680  0.75000  0.10380  1.0000 -0.5656321248
O   O7        1.0  0.88320  0.25000  0.89620  1.0000 -0.5656321248
O   O8        1.0  0.61680  0.75000  0.39620  1.0000 -0.5656321248
O   O9        1.0  0.08420  0.25000  0.47380  1.0000 -0.5309910377
O   O10       1.0  0.41580  0.75000  0.97380  1.0000 -0.5309910377
O   O11       1.0  0.58420  0.25000  0.02620  1.0000 -0.5309910377
O   O12       1.0  0.91580  0.75000  0.52620  1.0000 -0.5309910377
O   O13       1.0  0.84320  0.25000  0.47600  1.0000 -0.4682712754
O   O14       1.0  0.65680  0.75000  0.97600  1.0000 -0.4682712754
O   O15       1.0  0.34320  0.25000  0.02400  1.0000 -0.4682712754
O   O16       1.0  0.15680  0.75000  0.52400  1.0000 -0.4682712754
O   O17       1.0  0.46260  0.09720  0.46270  1.0000 -0.5398540398
O   O18       1.0  0.03740  0.90280  0.96270  1.0000 -0.5398540398
O   O19       1.0  0.96260  0.40280  0.03730  1.0000 -0.5398540398
O   O20       1.0  0.53740  0.59720  0.53730  1.0000 -0.5398540398
O   O21       1.0  0.53740  0.90280  0.53730  1.0000 -0.5398540398
O   O22       1.0  0.96260  0.09720  0.03730  1.0000 -0.5398540398
O   O23       1.0  0.03740  0.59720  0.96270  1.0000 -0.5398540398
O   O24       1.0  0.46260  0.40280  0.46270  1.0000 -0.5398540398
O   O25       1.0  0.30730  0.15130  0.51190  1.0000 -0.5398540398
O   O26       1.0  0.19270  0.84870  0.01190  1.0000 -0.5398540398
O   O27       1.0  0.80730  0.34870  0.98810  1.0000 -0.5398540398
O   O28       1.0  0.69270  0.65130  0.48810  1.0000 -0.5398540398
O   O29       1.0  0.69270  0.84870  0.48810  1.0000 -0.5398540398
O   O30       1.0  0.80730  0.15130  0.98810  1.0000 -0.5398540398
O   O31       1.0  0.19270  0.65130  0.01190  1.0000 -0.5398540398
O   O32       1.0  0.30730  0.34870  0.51190  1.0000 -0.5398540398
