# DDEC6 charges by PACMAN v1.1 (https://github.com/mtap-research/PACMAN-charge/)
data_2012[Mg][nan]3[FSR]1
_chemical_formula_sum              "Mg16 H32 C40 N16 O48"
_cell_length_a       15.2253
_cell_length_b       15.2253
_cell_length_c       8.3587
_cell_angle_alpha    90
_cell_angle_beta     90
_cell_angle_gamma    90

_symmetry_space_group_name_H-M    "P 1"
_symmetry_Int_Tables_number       1

loop_
  _symmetry_equiv_pos_as_xyz
  'x, y, z'

loop_
  _atom_site_type_symbol
  _atom_site_label
  _atom_site_symmetry_multiplicity
  _atom_site_fract_x
  _atom_site_fract_y
  _atom_site_fract_z
  _atom_site_occupancy
  _atom_site_charge
Mg  Mg1       1.0  0.90109  0.90109  0.00000  1.0000 1.404130112
Mg  Mg2       1.0  0.09891  0.09891  0.50000  1.0000 1.404130112
Mg  Mg3       1.0  0.40109  0.59891  0.75000  1.0000 1.404130112
Mg  Mg4       1.0  0.59891  0.40109  0.25000  1.0000 1.404130112
Mg  Mg5       1.0  0.00055  0.88943  0.62997  1.0000 1.3364229757
Mg  Mg6       1.0  0.99945  0.11057  0.12997  1.0000 1.3364229757
Mg  Mg7       1.0  0.38943  0.49945  0.37997  1.0000 1.3364229757
Mg  Mg8       1.0  0.61057  0.50055  0.87997  1.0000 1.3364229757
Mg  Mg9       1.0  0.50055  0.61057  0.12003  1.0000 1.3364229757
Mg  Mg10      1.0  0.49945  0.38943  0.62003  1.0000 1.3364229757
Mg  Mg11      1.0  0.88943  0.00055  0.37003  1.0000 1.3364229757
Mg  Mg12      1.0  0.11057  0.99945  0.87003  1.0000 1.3364229757
Mg  Mg13      1.0  0.75252  0.75252  0.00000  1.0000 1.1844652403
Mg  Mg14      1.0  0.24748  0.24748  0.50000  1.0000 1.1844652403
Mg  Mg15      1.0  0.25252  0.74748  0.75000  1.0000 1.1844652403
Mg  Mg16      1.0  0.74748  0.25252  0.25000  1.0000 1.1844652403
H   H1        1.0  0.85840  0.63420  0.07980  1.0000 0.2679737877
H   H2        1.0  0.14160  0.36580  0.57980  1.0000 0.2679737877
H   H3        1.0  0.13420  0.64160  0.82980  1.0000 0.2679737877
H   H4        1.0  0.86580  0.35840  0.32980  1.0000 0.2679737877
H   H5        1.0  0.35840  0.86580  0.67020  1.0000 0.2679737877
H   H6        1.0  0.64160  0.13420  0.17020  1.0000 0.2679737877
H   H7        1.0  0.63420  0.85840  0.92020  1.0000 0.2679737877
H   H8        1.0  0.36580  0.14160  0.42020  1.0000 0.2679737877
H   H9        1.0  0.90050  0.69810  0.12950  1.0000 0.2952215779
H   H10       1.0  0.09950  0.30190  0.62950  1.0000 0.2952215779
H   H11       1.0  0.19810  0.59950  0.87950  1.0000 0.2952215779
H   H12       1.0  0.80190  0.40050  0.37950  1.0000 0.2952215779
H   H13       1.0  0.40050  0.80190  0.62050  1.0000 0.2952215779
H   H14       1.0  0.59950  0.19810  0.12050  1.0000 0.2952215779
H   H15       1.0  0.69810  0.90050  0.87050  1.0000 0.2952215779
H   H16       1.0  0.30190  0.09950  0.37050  1.0000 0.2952215779
H   H17       1.0  0.86730  0.03700  0.07730  1.0000 0.3828563202
H   H18       1.0  0.13270  0.96300  0.57730  1.0000 0.3828563202
H   H19       1.0  0.53700  0.63270  0.82730  1.0000 0.3828563202
H   H20       1.0  0.46300  0.36730  0.32730  1.0000 0.3828563202
H   H21       1.0  0.36730  0.46300  0.67270  1.0000 0.3828563202
H   H22       1.0  0.63270  0.53700  0.17270  1.0000 0.3828563202
H   H23       1.0  0.03700  0.86730  0.92270  1.0000 0.3828563202
H   H24       1.0  0.96300  0.13270  0.42270  1.0000 0.3828563202
H   H25       1.0  0.81290  0.63050  0.45840  1.0000 0.1523791212
H   H26       1.0  0.18710  0.36950  0.95840  1.0000 0.1523791212
H   H27       1.0  0.13050  0.68710  0.20840  1.0000 0.1523791212
H   H28       1.0  0.86950  0.31290  0.70840  1.0000 0.1523791212
H   H29       1.0  0.31290  0.86950  0.29160  1.0000 0.1523791212
H   H30       1.0  0.68710  0.13050  0.79160  1.0000 0.1523791212
H   H31       1.0  0.63050  0.81290  0.54160  1.0000 0.1523791212
H   H32       1.0  0.36950  0.18710  0.04160  1.0000 0.1523791212
C   C1        1.0  0.86468  0.75578  0.72546  1.0000 0.6177610267
C   C2        1.0  0.13532  0.24422  0.22546  1.0000 0.6177610267
C   C3        1.0  0.25578  0.63532  0.47546  1.0000 0.6177610267
C   C4        1.0  0.74422  0.36468  0.97546  1.0000 0.6177610267
C   C5        1.0  0.36468  0.74422  0.02454  1.0000 0.6177610267
C   C6        1.0  0.63532  0.25578  0.52454  1.0000 0.6177610267
C   C7        1.0  0.75578  0.86468  0.27454  1.0000 0.6177610267
C   C8        1.0  0.24422  0.13532  0.77454  1.0000 0.6177610267
C   C9        1.0  0.66667  0.50375  0.54053  1.0000 0.6177610267
C   C10       1.0  0.33333  0.49625  0.04053  1.0000 0.6177610267
C   C11       1.0  0.00375  0.83333  0.29053  1.0000 0.6177610267
C   C12       1.0  0.99625  0.16667  0.79053  1.0000 0.6177610267
C   C13       1.0  0.16667  0.99625  0.20947  1.0000 0.6177610267
C   C14       1.0  0.83333  0.00375  0.70947  1.0000 0.6177610267
C   C15       1.0  0.50375  0.66667  0.45947  1.0000 0.6177610267
C   C16       1.0  0.49625  0.33333  0.95947  1.0000 0.6177610267
C   C17       1.0  0.71869  0.57477  0.61533  1.0000 0.0311201313
C   C18       1.0  0.28131  0.42523  0.11533  1.0000 0.0311201313
C   C19       1.0  0.07477  0.78131  0.36533  1.0000 0.0311201313
C   C20       1.0  0.92523  0.21869  0.86533  1.0000 0.0311201313
C   C21       1.0  0.21869  0.92523  0.13467  1.0000 0.0311201313
C   C22       1.0  0.78131  0.07477  0.63467  1.0000 0.0311201313
C   C23       1.0  0.57477  0.71869  0.38467  1.0000 0.0311201313
C   C24       1.0  0.42523  0.28131  0.88467  1.0000 0.0311201313
C   C25       1.0  0.80245  0.68323  0.69358  1.0000 0.0311201313
C   C26       1.0  0.19755  0.31677  0.19358  1.0000 0.0311201313
C   C27       1.0  0.18323  0.69755  0.44358  1.0000 0.0311201313
C   C28       1.0  0.81677  0.30245  0.94358  1.0000 0.0311201313
C   C29       1.0  0.30245  0.81677  0.05642  1.0000 0.0311201313
C   C30       1.0  0.69755  0.18323  0.55642  1.0000 0.0311201313
C   C31       1.0  0.68323  0.80245  0.30642  1.0000 0.0311201313
C   C32       1.0  0.31677  0.19755  0.80642  1.0000 0.0311201313
C   C33       1.0  0.78709  0.62832  0.56342  1.0000 -0.2091811061
C   C34       1.0  0.21291  0.37168  0.06342  1.0000 -0.2091811061
C   C35       1.0  0.12832  0.71291  0.31342  1.0000 -0.2091811061
C   C36       1.0  0.87168  0.28709  0.81342  1.0000 -0.2091811061
C   C37       1.0  0.28709  0.87168  0.18658  1.0000 -0.2091811061
C   C38       1.0  0.71291  0.12832  0.68658  1.0000 -0.2091811061
C   C39       1.0  0.62832  0.78709  0.43658  1.0000 -0.2091811061
C   C40       1.0  0.37168  0.21291  0.93658  1.0000 -0.2091811061
N   N1        1.0  0.69574  0.59608  0.76746  1.0000 -0.2627256852
N   N2        1.0  0.30426  0.40392  0.26746  1.0000 -0.2627256852
N   N3        1.0  0.09608  0.80426  0.51746  1.0000 -0.2627256852
N   N4        1.0  0.90392  0.19574  0.01746  1.0000 -0.2627256852
N   N5        1.0  0.19574  0.90392  0.98254  1.0000 -0.2627256852
N   N6        1.0  0.80426  0.09608  0.48254  1.0000 -0.2627256852
N   N7        1.0  0.59608  0.69574  0.23254  1.0000 -0.2627256852
N   N8        1.0  0.40392  0.30426  0.73254  1.0000 -0.2627256852
N   N9        1.0  0.74661  0.66237  0.81473  1.0000 -0.3154619015
N   N10       1.0  0.25339  0.33763  0.31473  1.0000 -0.3154619015
N   N11       1.0  0.16237  0.75339  0.56473  1.0000 -0.3154619015
N   N12       1.0  0.83763  0.24661  0.06473  1.0000 -0.3154619015
N   N13       1.0  0.24661  0.83763  0.93527  1.0000 -0.3154619015
N   N14       1.0  0.75339  0.16237  0.43527  1.0000 -0.3154619015
N   N15       1.0  0.66237  0.74661  0.18527  1.0000 -0.3145441901
N   N16       1.0  0.33763  0.25339  0.68527  1.0000 -0.3154619015
O   O1        1.0  0.92352  0.77458  0.62818  1.0000 -0.5648571369
O   O2        1.0  0.07648  0.22542  0.12818  1.0000 -0.5648571369
O   O3        1.0  0.27458  0.57648  0.37818  1.0000 -0.5648571369
O   O4        1.0  0.72542  0.42352  0.87818  1.0000 -0.5648571369
O   O5        1.0  0.42352  0.72542  0.12182  1.0000 -0.5648571369
O   O6        1.0  0.57648  0.27458  0.62182  1.0000 -0.5648571369
O   O7        1.0  0.77458  0.92352  0.37182  1.0000 -0.5648571369
O   O8        1.0  0.22542  0.07648  0.87182  1.0000 -0.5648571369
O   O9        1.0  0.90307  0.01340  0.12966  1.0000 -1.0606536906
O   O10       1.0  0.09693  0.98660  0.62966  1.0000 -1.0606536906
O   O11       1.0  0.51340  0.59693  0.87966  1.0000 -1.0606536906
O   O12       1.0  0.48660  0.40307  0.37966  1.0000 -1.0606536906
O   O13       1.0  0.40307  0.48660  0.62034  1.0000 -1.0606536906
O   O14       1.0  0.59693  0.51340  0.12034  1.0000 -1.0606536906
O   O15       1.0  0.01340  0.90307  0.87034  1.0000 -1.0606536906
O   O16       1.0  0.98660  0.09693  0.37034  1.0000 -1.0606536906
O   O17       1.0  0.85353  0.79520  0.85917  1.0000 -0.7217905116
O   O18       1.0  0.14647  0.20480  0.35917  1.0000 -0.7217905116
O   O19       1.0  0.29520  0.64647  0.60917  1.0000 -0.7217905116
O   O20       1.0  0.70480  0.35353  0.10917  1.0000 -0.7217905116
O   O21       1.0  0.35353  0.70480  0.89083  1.0000 -0.7217905116
O   O22       1.0  0.64647  0.29520  0.39083  1.0000 -0.7217905116
O   O23       1.0  0.79520  0.85353  0.14083  1.0000 -0.7217905116
O   O24       1.0  0.20480  0.14647  0.64083  1.0000 -0.7217905116
O   O25       1.0  0.60399  0.47424  0.62757  1.0000 -0.6830680337
O   O26       1.0  0.39601  0.52576  0.12757  1.0000 -0.6830680337
O   O27       1.0  0.97424  0.89601  0.37757  1.0000 -0.6830680337
O   O28       1.0  0.02576  0.10399  0.87757  1.0000 -0.6830680337
O   O29       1.0  0.10399  0.02576  0.12243  1.0000 -0.6830680337
O   O30       1.0  0.89601  0.97424  0.62243  1.0000 -0.6830680337
O   O31       1.0  0.47424  0.60399  0.37243  1.0000 -0.6830680337
O   O32       1.0  0.52576  0.39601  0.87243  1.0000 -0.6830680337
O   O33       1.0  0.84690  0.67145  0.12339  1.0000 -0.6141456854
O   O34       1.0  0.15310  0.32855  0.62339  1.0000 -0.6141456854
O   O35       1.0  0.17145  0.65310  0.87339  1.0000 -0.6141456854
O   O36       1.0  0.82855  0.34690  0.37339  1.0000 -0.6141456854
O   O37       1.0  0.34690  0.82855  0.62661  1.0000 -0.6141456854
O   O38       1.0  0.65310  0.17145  0.12661  1.0000 -0.6141456854
O   O39       1.0  0.67145  0.84690  0.87661  1.0000 -0.6141456854
O   O40       1.0  0.32855  0.15310  0.37661  1.0000 -0.6141456854
O   O41       1.0  0.68291  0.47783  0.40224  1.0000 -0.5951995146
O   O42       1.0  0.31709  0.52217  0.90224  1.0000 -0.5951995146
O   O43       1.0  0.97783  0.81709  0.15224  1.0000 -0.5951995146
O   O44       1.0  0.02217  0.18291  0.65224  1.0000 -0.5951995146
O   O45       1.0  0.18291  0.02217  0.34776  1.0000 -0.5947613012
O   O46       1.0  0.81709  0.97783  0.84776  1.0000 -0.5951995146
O   O47       1.0  0.47783  0.68291  0.59776  1.0000 -0.5951995146
O   O48       1.0  0.52217  0.31709  0.09776  1.0000 -0.5951995146
