# DDEC6 charges by PACMAN v1.1 (https://github.com/mtap-research/PACMAN-charge/)
data_2012[Co][hex]3[FSR]1
_chemical_formula_sum              "Co12 H136 C216 N16 O48"
_cell_length_a       23.4531
_cell_length_b       23.4531
_cell_length_c       26.181
_cell_angle_alpha    61.7607
_cell_angle_beta     118.239
_cell_angle_gamma    145.374

_symmetry_space_group_name_H-M    "P 1"
_symmetry_Int_Tables_number       1

loop_
  _symmetry_equiv_pos_as_xyz
  'x, y, z'

loop_
  _atom_site_type_symbol
  _atom_site_label
  _atom_site_symmetry_multiplicity
  _atom_site_fract_x
  _atom_site_fract_y
  _atom_site_fract_z
  _atom_site_occupancy
  _atom_site_charge
Co  Co1       1.0  0.12332  0.37704  0.74146  1.0000 1.0609770745
Co  Co2       1.0  0.62296  0.87668  0.24146  1.0000 1.0609770745
Co  Co3       1.0  0.01639  0.45023  0.66527  1.0000 0.8704526753
Co  Co4       1.0  0.54977  0.98361  0.16527  1.0000 0.8704526753
Co  Co5       1.0  0.22653  0.31561  0.80952  1.0000 0.8458088517
Co  Co6       1.0  0.68439  0.77347  0.30952  1.0000 0.8458088517
Co  Co7       1.0  0.37704  0.12332  0.75854  1.0000 1.0609770745
Co  Co8       1.0  0.87668  0.62296  0.25854  1.0000 1.0609770745
Co  Co9       1.0  0.45023  0.01639  0.83473  1.0000 0.8704526753
Co  Co10      1.0  0.98361  0.54977  0.33473  1.0000 0.8704526753
Co  Co11      1.0  0.31561  0.22653  0.69048  1.0000 0.8458088517
Co  Co12      1.0  0.77347  0.68439  0.19048  1.0000 0.8458088517
H   H1        1.0  0.89310  0.14370  0.71440  1.0000 0.1303751474
H   H2        1.0  0.85630  0.10690  0.21440  1.0000 0.1303751474
H   H3        1.0  0.76480  0.97000  0.72370  1.0000 0.110303352
H   H4        1.0  0.03000  0.23520  0.22370  1.0000 0.110303352
H   H5        1.0  0.56810  0.94390  0.70920  1.0000 0.110303352
H   H6        1.0  0.05610  0.43190  0.20920  1.0000 0.110303352
H   H7        1.0  0.69690  0.11790  0.69970  1.0000 0.1180599201
H   H8        1.0  0.88210  0.30310  0.19970  1.0000 0.1180599201
H   H9        1.0  0.47340  0.78680  0.75380  1.0000 0.110303352
H   H10       1.0  0.21320  0.52660  0.25380  1.0000 0.110303352
H   H11       1.0  0.35210  0.61070  0.77060  1.0000 0.1303751474
H   H12       1.0  0.38930  0.64790  0.27060  1.0000 0.1303751474
H   H13       1.0  0.51040  0.65020  0.70890  1.0000 0.1180599201
H   H14       1.0  0.34980  0.48960  0.20890  1.0000 0.1180599201
H   H15       1.0  0.63500  0.82540  0.69780  1.0000 0.110303352
H   H16       1.0  0.17460  0.36500  0.19780  1.0000 0.110303352
H   H17       1.0  0.11780  0.57380  0.80620  1.0000 0.1180599201
H   H18       1.0  0.42620  0.88220  0.30620  1.0000 0.1180599201
H   H19       1.0  0.19310  0.64770  0.88590  1.0000 0.1180599201
H   H20       1.0  0.35230  0.80690  0.38590  1.0000 0.1180599201
H   H21       1.0  0.35860  0.61920  0.94910  1.0000 0.110303352
H   H22       1.0  0.38080  0.64140  0.44910  1.0000 0.110303352
H   H23       1.0  0.28130  0.53950  0.87250  1.0000 0.1180599201
H   H24       1.0  0.46050  0.71870  0.37250  1.0000 0.1180599201
H   H25       1.0  0.32300  0.78000  0.93500  1.0000 0.1180599201
H   H26       1.0  0.22000  0.67700  0.43500  1.0000 0.1180599201
H   H27       1.0  0.40520  0.86040  0.01360  1.0000 0.110303352
H   H28       1.0  0.13960  0.59480  0.51360  1.0000 0.110303352
H   H29       1.0  0.43070  0.68850  0.11650  1.0000 0.1180599201
H   H30       1.0  0.31150  0.56930  0.61650  1.0000 0.1180599201
H   H31       1.0  0.35220  0.61020  0.03740  1.0000 0.110303352
H   H32       1.0  0.38980  0.64780  0.53740  1.0000 0.110303352
H   H33       1.0  0.89800  0.48100  0.65080  1.0000 0.1180599201
H   H34       1.0  0.51900  0.10200  0.15080  1.0000 0.1180599201
H   H35       1.0  0.84640  0.60800  0.47620  1.0000 0.1426307757
H   H36       1.0  0.39200  0.15360  0.97620  1.0000 0.1426307757
H   H37       1.0  0.74540  0.71340  0.44330  1.0000 0.110303352
H   H38       1.0  0.28660  0.25460  0.94330  1.0000 0.110303352
H   H39       1.0  0.64890  0.60890  0.30720  1.0000 0.1426307757
H   H40       1.0  0.39110  0.35110  0.80720  1.0000 0.1426307757
H   H41       1.0  0.69730  0.54090  0.39210  1.0000 0.1303751474
H   H42       1.0  0.45910  0.30270  0.89210  1.0000 0.1303751474
H   H43       1.0  0.72400  0.61440  0.53670  1.0000 0.1303751474
H   H44       1.0  0.38560  0.27600  0.03670  1.0000 0.1303751474
H   H45       1.0  0.78640  0.58180  0.63360  1.0000 0.1180599201
H   H46       1.0  0.41820  0.21360  0.13360  1.0000 0.1180599201
H   H47       1.0  0.89020  0.58260  0.64880  1.0000 0.1303751474
H   H48       1.0  0.41740  0.10980  0.14880  1.0000 0.1303751474
H   H49       1.0  0.00670  0.67130  0.50370  1.0000 0.1303751474
H   H50       1.0  0.32870  0.99330  0.00370  1.0000 0.1303751474
H   H51       1.0  0.07420  0.61560  0.54810  1.0000 0.1303751474
H   H52       1.0  0.38440  0.92580  0.04810  1.0000 0.1303751474
H   H53       1.0  0.11160  0.15900  0.68210  1.0000 0.1303751474
H   H54       1.0  0.84100  0.88840  0.18210  1.0000 0.1303751474
H   H55       1.0  0.04920  0.09660  0.60110  1.0000 0.110303352
H   H56       1.0  0.90340  0.95080  0.10110  1.0000 0.110303352
H   H57       1.0  0.89330  0.14110  0.52810  1.0000 0.110303352
H   H58       1.0  0.85890  0.10670  0.02810  1.0000 0.110303352
H   H59       1.0  0.96230  0.21230  0.60890  1.0000 0.1180599201
H   H60       1.0  0.78770  0.03770  0.10890  1.0000 0.1180599201
H   H61       1.0  0.92120  0.97300  0.54650  1.0000 0.1180599201
H   H62       1.0  0.02700  0.07880  0.04650  1.0000 0.1180599201
H   H63       1.0  0.90580  0.15140  0.44270  1.0000 0.110303352
H   H64       1.0  0.84860  0.09420  0.94270  1.0000 0.110303352
H   H65       1.0  0.85610  0.90670  0.46590  1.0000 0.1180599201
H   H66       1.0  0.09330  0.14390  0.96590  1.0000 0.1180599201
H   H67       1.0  0.81710  0.06350  0.36730  1.0000 0.1303751474
H   H68       1.0  0.93650  0.18290  0.86730  1.0000 0.1303751474
H   H69       1.0  0.14370  0.89310  0.78560  1.0000 0.1303751474
H   H70       1.0  0.10690  0.85630  0.28560  1.0000 0.1303751474
H   H71       1.0  0.97000  0.76480  0.77630  1.0000 0.110303352
H   H72       1.0  0.23520  0.03000  0.27630  1.0000 0.110303352
H   H73       1.0  0.94390  0.56810  0.79080  1.0000 0.110303352
H   H74       1.0  0.43190  0.05610  0.29080  1.0000 0.110303352
H   H75       1.0  0.11790  0.69690  0.80030  1.0000 0.1180599201
H   H76       1.0  0.30310  0.88210  0.30030  1.0000 0.1180599201
H   H77       1.0  0.78680  0.47340  0.74620  1.0000 0.110303352
H   H78       1.0  0.52660  0.21320  0.24620  1.0000 0.110303352
H   H79       1.0  0.61070  0.35210  0.72940  1.0000 0.1303751474
H   H80       1.0  0.64790  0.38930  0.22940  1.0000 0.1303751474
H   H81       1.0  0.65020  0.51040  0.79110  1.0000 0.1180599201
H   H82       1.0  0.48960  0.34980  0.29110  1.0000 0.1180599201
H   H83       1.0  0.82540  0.63500  0.80220  1.0000 0.110303352
H   H84       1.0  0.36500  0.17460  0.30220  1.0000 0.110303352
H   H85       1.0  0.57380  0.11780  0.69380  1.0000 0.1180599201
H   H86       1.0  0.88220  0.42620  0.19380  1.0000 0.1180599201
H   H87       1.0  0.64770  0.19310  0.61410  1.0000 0.1180599201
H   H88       1.0  0.80690  0.35230  0.11410  1.0000 0.1180599201
H   H89       1.0  0.61920  0.35860  0.55090  1.0000 0.110303352
H   H90       1.0  0.64140  0.38080  0.05090  1.0000 0.110303352
H   H91       1.0  0.53950  0.28130  0.62750  1.0000 0.1180599201
H   H92       1.0  0.71870  0.46050  0.12750  1.0000 0.1180599201
H   H93       1.0  0.78000  0.32300  0.56500  1.0000 0.1180599201
H   H94       1.0  0.67700  0.22000  0.06500  1.0000 0.1180599201
H   H95       1.0  0.86040  0.40520  0.48640  1.0000 0.110303352
H   H96       1.0  0.59480  0.13960  0.98640  1.0000 0.110303352
H   H97       1.0  0.68850  0.43070  0.38350  1.0000 0.1180599201
H   H98       1.0  0.56930  0.31150  0.88350  1.0000 0.1180599201
H   H99       1.0  0.61020  0.35220  0.46260  1.0000 0.110303352
H   H100      1.0  0.64780  0.38980  0.96260  1.0000 0.110303352
H   H101      1.0  0.48100  0.89800  0.84920  1.0000 0.1180599201
H   H102      1.0  0.10200  0.51900  0.34920  1.0000 0.1180599201
H   H103      1.0  0.60800  0.84640  0.02380  1.0000 0.1426307757
H   H104      1.0  0.15360  0.39200  0.52380  1.0000 0.1426307757
H   H105      1.0  0.71340  0.74540  0.05670  1.0000 0.110303352
H   H106      1.0  0.25460  0.28660  0.55670  1.0000 0.110303352
H   H107      1.0  0.60890  0.64890  0.19280  1.0000 0.1426307757
H   H108      1.0  0.35110  0.39110  0.69280  1.0000 0.1426307757
H   H109      1.0  0.54090  0.69730  0.10790  1.0000 0.1303751474
H   H110      1.0  0.30270  0.45910  0.60790  1.0000 0.1303751474
H   H111      1.0  0.61440  0.72400  0.96330  1.0000 0.1303751474
H   H112      1.0  0.27600  0.38560  0.46330  1.0000 0.1303751474
H   H113      1.0  0.58180  0.78640  0.86640  1.0000 0.1180599201
H   H114      1.0  0.21360  0.41820  0.36640  1.0000 0.1180599201
H   H115      1.0  0.58260  0.89020  0.85120  1.0000 0.1303751474
H   H116      1.0  0.10980  0.41740  0.35120  1.0000 0.1303751474
H   H117      1.0  0.67130  0.00670  0.99630  1.0000 0.1303751474
H   H118      1.0  0.99330  0.32870  0.49630  1.0000 0.1303751474
H   H119      1.0  0.61560  0.07420  0.95190  1.0000 0.1303751474
H   H120      1.0  0.92580  0.38440  0.45190  1.0000 0.1303751474
H   H121      1.0  0.15900  0.11160  0.81790  1.0000 0.1303751474
H   H122      1.0  0.88840  0.84100  0.31790  1.0000 0.1303751474
H   H123      1.0  0.09660  0.04920  0.89890  1.0000 0.110303352
H   H124      1.0  0.95080  0.90340  0.39890  1.0000 0.110303352
H   H125      1.0  0.14110  0.89330  0.97190  1.0000 0.110303352
H   H126      1.0  0.10670  0.85890  0.47190  1.0000 0.110303352
H   H127      1.0  0.21230  0.96230  0.89110  1.0000 0.1180599201
H   H128      1.0  0.03770  0.78770  0.39110  1.0000 0.1180599201
H   H129      1.0  0.97300  0.92120  0.95350  1.0000 0.1180599201
H   H130      1.0  0.07880  0.02700  0.45350  1.0000 0.1180599201
H   H131      1.0  0.15140  0.90580  0.05730  1.0000 0.110303352
H   H132      1.0  0.09420  0.84860  0.55730  1.0000 0.110303352
H   H133      1.0  0.90670  0.85610  0.03410  1.0000 0.1180599201
H   H134      1.0  0.14390  0.09330  0.53410  1.0000 0.1180599201
H   H135      1.0  0.06350  0.81710  0.13270  1.0000 0.1303751474
H   H136      1.0  0.18290  0.93650  0.63270  1.0000 0.1303751474
C   C1        1.0  0.89197  0.26243  0.69300  1.0000 0.5688715309
C   C2        1.0  0.73757  0.10803  0.19300  1.0000 0.5688715309
C   C3        1.0  0.81002  0.14938  0.70380  1.0000 -0.0196050423
C   C4        1.0  0.85062  0.18998  0.20380  1.0000 -0.0196050423
C   C5        1.0  0.82700  0.10400  0.71250  1.0000 -0.0801721101
C   C6        1.0  0.89600  0.17300  0.21250  1.0000 -0.0801721101
C   C7        1.0  0.75060  0.99940  0.71890  1.0000 -0.1499352743
C   C8        1.0  0.00060  0.24940  0.21890  1.0000 -0.1499352743
C   C9        1.0  0.65150  0.93850  0.71830  1.0000 0.0706708856
C   C10       1.0  0.06150  0.34850  0.21830  1.0000 0.0706708856
C   C11       1.0  0.63390  0.98370  0.71040  1.0000 -0.1499352743
C   C12       1.0  0.01630  0.36610  0.21040  1.0000 -0.1499352743
C   C13       1.0  0.71058  0.08822  0.70390  1.0000 -0.1096896403
C   C14       1.0  0.91178  0.28942  0.20390  1.0000 -0.1096896403
C   C15       1.0  0.57062  0.82558  0.72540  1.0000 0.0706708856
C   C16       1.0  0.17442  0.42938  0.22540  1.0000 0.0706708856
C   C17       1.0  0.48310  0.76030  0.74630  1.0000 -0.1697419693
C   C18       1.0  0.23970  0.51690  0.24630  1.0000 -0.1697419693
C   C19       1.0  0.40920  0.65360  0.75570  1.0000 -0.0801721101
C   C20       1.0  0.34640  0.59080  0.25570  1.0000 -0.0801721101
C   C21       1.0  0.41969  0.61251  0.74360  1.0000 -0.0381589493
C   C22       1.0  0.38749  0.58031  0.24360  1.0000 -0.0381589493
C   C23       1.0  0.34632  0.50228  0.75810  1.0000 0.5569372654
C   C24       1.0  0.49772  0.65368  0.25810  1.0000 0.5569372654
C   C25       1.0  0.50340  0.67640  0.71980  1.0000 -0.0875619173
C   C26       1.0  0.32360  0.49660  0.21980  1.0000 -0.0875619173
C   C27       1.0  0.57770  0.78270  0.71250  1.0000 -0.1607164164
C   C28       1.0  0.21730  0.42230  0.21250  1.0000 -0.1607164164
C   C29       1.0  0.14410  0.50010  0.78050  1.0000 0.5956060022
C   C30       1.0  0.49990  0.85590  0.28050  1.0000 0.5956060022
C   C31       1.0  0.19136  0.54884  0.83160  1.0000 -0.0196050423
C   C32       1.0  0.45116  0.80864  0.33160  1.0000 -0.0196050423
C   C33       1.0  0.16570  0.58130  0.83540  1.0000 -0.0986770943
C   C34       1.0  0.41870  0.83430  0.33540  1.0000 -0.0986770943
C   C35       1.0  0.21150  0.62610  0.88350  1.0000 -0.1499352743
C   C36       1.0  0.37390  0.78850  0.38350  1.0000 -0.1499352743
C   C37       1.0  0.28250  0.63890  0.92700  1.0000 0.0706708856
C   C38       1.0  0.36110  0.71750  0.42700  1.0000 0.0706708856
C   C39       1.0  0.30830  0.60850  0.92090  1.0000 -0.1607164164
C   C40       1.0  0.39150  0.69170  0.42090  1.0000 -0.1607164164
C   C41       1.0  0.26310  0.56170  0.87440  1.0000 -0.1096896403
C   C42       1.0  0.43830  0.73690  0.37440  1.0000 -0.1096896403
C   C43       1.0  0.33110  0.68910  0.97760  1.0000 0.0706708856
C   C44       1.0  0.31090  0.66890  0.47760  1.0000 0.0706708856
C   C45       1.0  0.34570  0.76230  0.97110  1.0000 -0.1499352743
C   C46       1.0  0.23770  0.65430  0.47110  1.0000 -0.1499352743
C   C47       1.0  0.39430  0.81010  0.01830  1.0000 -0.0986770943
C   C48       1.0  0.18990  0.60570  0.51830  1.0000 -0.0986770943
C   C49       1.0  0.42609  0.78171  0.07240  1.0000 -0.0302501905
C   C50       1.0  0.21829  0.57391  0.57240  1.0000 -0.0302501905
C   C51       1.0  0.48039  0.83421  0.12320  1.0000 0.5865613997
C   C52       1.0  0.16579  0.51961  0.62320  1.0000 0.5865613997
C   C53       1.0  0.41010  0.70770  0.07990  1.0000 -0.1096896403
C   C54       1.0  0.29230  0.58990  0.57990  1.0000 -0.1096896403
C   C55       1.0  0.36250  0.66010  0.03240  1.0000 -0.1697419693
C   C56       1.0  0.33990  0.63750  0.53240  1.0000 -0.1697419693
C   C57       1.0  0.93326  0.52114  0.61960  1.0000 0.0985015642
C   C58       1.0  0.47886  0.06674  0.11960  1.0000 0.0985015642
C   C59       1.0  0.87153  0.58707  0.56370  1.0000 0.1633644767
C   C60       1.0  0.41293  0.12847  0.06370  1.0000 0.1633644767
C   C61       1.0  0.83303  0.60177  0.50790  1.0000 -0.2202807038
C   C62       1.0  0.39823  0.16697  0.00790  1.0000 -0.2202807038
C   C63       1.0  0.77650  0.60710  0.49840  1.0000 0.1671839163
C   C64       1.0  0.39290  0.22350  0.99840  1.0000 0.1671839163
C   C65       1.0  0.72718  0.67942  0.41950  1.0000 0.09232575
C   C66       1.0  0.32058  0.27282  0.91950  1.0000 0.09232575
C   C67       1.0  0.67420  0.62180  0.34520  1.0000 -0.0090913438
C   C68       1.0  0.37820  0.32580  0.84520  1.0000 -0.0090913438
C   C69       1.0  0.70110  0.58390  0.39180  1.0000 -0.0986770943
C   C70       1.0  0.41610  0.29890  0.89180  1.0000 -0.0986770943
C   C71       1.0  0.75930  0.60570  0.54370  1.0000 -0.2003087521
C   C72       1.0  0.39430  0.24070  0.04370  1.0000 -0.2003087521
C   C73       1.0  0.80040  0.58980  0.60140  1.0000 -0.0553897775
C   C74       1.0  0.41020  0.19960  0.10140  1.0000 -0.0553897775
C   C75       1.0  0.85860  0.58600  0.61090  1.0000 -0.1806707464
C   C76       1.0  0.41400  0.14140  0.11090  1.0000 -0.1806707464
C   C77       1.0  0.99260  0.62600  0.53860  1.0000 -0.0986770943
C   C78       1.0  0.37400  0.00740  0.03860  1.0000 -0.0986770943
C   C79       1.0  0.02970  0.59510  0.56330  1.0000 -0.0381589493
C   C80       1.0  0.40490  0.97030  0.06330  1.0000 -0.0381589493
C   C81       1.0  0.09366  0.24354  0.70470  1.0000 0.5688715309
C   C82       1.0  0.75646  0.90634  0.20470  1.0000 0.5688715309
C   C83       1.0  0.04759  0.19461  0.65350  1.0000 -0.0196050423
C   C84       1.0  0.80539  0.95241  0.15350  1.0000 -0.0196050423
C   C85       1.0  0.06930  0.15770  0.65070  1.0000 -0.0875619173
C   C86       1.0  0.84230  0.93070  0.15070  1.0000 -0.0875619173
C   C87       1.0  0.03060  0.11840  0.60290  1.0000 -0.1499352743
C   C88       1.0  0.88160  0.96940  0.10290  1.0000 -0.1499352743
C   C89       1.0  0.96270  0.11150  0.55690  1.0000 0.0706708856
C   C90       1.0  0.88850  0.03730  0.05690  1.0000 0.0706708856
C   C91       1.0  0.93820  0.14580  0.55900  1.0000 -0.1697419693
C   C92       1.0  0.85420  0.06180  0.05900  1.0000 -0.1697419693
C   C93       1.0  0.97942  0.18878  0.60750  1.0000 -0.1282961041
C   C94       1.0  0.81122  0.02058  0.10750  1.0000 -0.1282961041
C   C95       1.0  0.92010  0.06730  0.50460  1.0000 0.0781479694
C   C96       1.0  0.93270  0.07990  0.00460  1.0000 0.0781479694
C   C97       1.0  0.90340  0.99500  0.50990  1.0000 -0.1499352743
C   C98       1.0  0.00500  0.09660  0.00990  1.0000 -0.1448737204
C   C99       1.0  0.89150  0.09810  0.44900  1.0000 -0.1697419693
C   C100      1.0  0.90190  0.10850  0.94900  1.0000 -0.1607164164
C   C101      1.0  0.77120  0.92280  0.35850  1.0000 0.5865613997
C   C102      1.0  0.07720  0.22880  0.85850  1.0000 0.5865613997
C   C103      1.0  0.82430  0.97350  0.40950  1.0000 -0.0196050423
C   C104      1.0  0.02650  0.17570  0.90950  1.0000 -0.0196050423
C   C105      1.0  0.86010  0.95170  0.46170  1.0000 -0.1096896403
C   C106      1.0  0.04830  0.13990  0.96170  1.0000 -0.1096896403
C   C107      1.0  0.84060  0.04660  0.40340  1.0000 -0.0986770943
C   C108      1.0  0.95340  0.15940  0.90340  1.0000 -0.0986770943
C   C109      1.0  0.26243  0.89197  0.80700  1.0000 0.5688715309
C   C110      1.0  0.10803  0.73757  0.30700  1.0000 0.5688715309
C   C111      1.0  0.14938  0.81002  0.79620  1.0000 -0.0196050423
C   C112      1.0  0.18998  0.85062  0.29620  1.0000 -0.0196050423
C   C113      1.0  0.10400  0.82700  0.78750  1.0000 -0.0801721101
C   C114      1.0  0.17300  0.89600  0.28750  1.0000 -0.0801721101
C   C115      1.0  0.99940  0.75060  0.78110  1.0000 -0.1499352743
C   C116      1.0  0.24940  0.00060  0.28110  1.0000 -0.1499352743
C   C117      1.0  0.93850  0.65150  0.78170  1.0000 0.0706708856
C   C118      1.0  0.34850  0.06150  0.28170  1.0000 0.0706708856
C   C119      1.0  0.98370  0.63390  0.78960  1.0000 -0.1499352743
C   C120      1.0  0.36610  0.01630  0.28960  1.0000 -0.1499352743
C   C121      1.0  0.08822  0.71058  0.79610  1.0000 -0.1152191281
C   C122      1.0  0.28942  0.91178  0.29610  1.0000 -0.1152191281
C   C123      1.0  0.82558  0.57062  0.77460  1.0000 0.0706708856
C   C124      1.0  0.42938  0.17442  0.27460  1.0000 0.0706708856
C   C125      1.0  0.76030  0.48310  0.75370  1.0000 -0.1697419693
C   C126      1.0  0.51690  0.23970  0.25370  1.0000 -0.1697419693
C   C127      1.0  0.65360  0.40920  0.74430  1.0000 -0.0801721101
C   C128      1.0  0.59080  0.34640  0.24430  1.0000 -0.0801721101
C   C129      1.0  0.61251  0.41969  0.75640  1.0000 -0.0381589493
C   C130      1.0  0.58031  0.38749  0.25640  1.0000 -0.0381589493
C   C131      1.0  0.50228  0.34632  0.74190  1.0000 0.5569372654
C   C132      1.0  0.65368  0.49772  0.24190  1.0000 0.5569372654
C   C133      1.0  0.67640  0.50340  0.78020  1.0000 -0.0875619173
C   C134      1.0  0.49660  0.32360  0.28020  1.0000 -0.0875619173
C   C135      1.0  0.78270  0.57770  0.78750  1.0000 -0.1607164164
C   C136      1.0  0.42230  0.21730  0.28750  1.0000 -0.1607164164
C   C137      1.0  0.50010  0.14410  0.71950  1.0000 0.5956060022
C   C138      1.0  0.85590  0.49990  0.21950  1.0000 0.5956060022
C   C139      1.0  0.54884  0.19136  0.66840  1.0000 -0.0196050423
C   C140      1.0  0.80864  0.45116  0.16840  1.0000 -0.0196050423
C   C141      1.0  0.58130  0.16570  0.66460  1.0000 -0.0986770943
C   C142      1.0  0.83430  0.41870  0.16460  1.0000 -0.0986770943
C   C143      1.0  0.62610  0.21150  0.61650  1.0000 -0.1499352743
C   C144      1.0  0.78850  0.37390  0.11650  1.0000 -0.1499352743
C   C145      1.0  0.63890  0.28250  0.57300  1.0000 0.0706708856
C   C146      1.0  0.71750  0.36110  0.07300  1.0000 0.0706708856
C   C147      1.0  0.60850  0.30830  0.57910  1.0000 -0.1607164164
C   C148      1.0  0.69170  0.39150  0.07910  1.0000 -0.1607164164
C   C149      1.0  0.56170  0.26310  0.62560  1.0000 -0.1096896403
C   C150      1.0  0.73690  0.43830  0.12560  1.0000 -0.1096896403
C   C151      1.0  0.68910  0.33110  0.52240  1.0000 0.0706708856
C   C152      1.0  0.66890  0.31090  0.02240  1.0000 0.0706708856
C   C153      1.0  0.76230  0.34570  0.52890  1.0000 -0.1499352743
C   C154      1.0  0.65430  0.23770  0.02890  1.0000 -0.1499352743
C   C155      1.0  0.81010  0.39430  0.48170  1.0000 -0.0986770943
C   C156      1.0  0.60570  0.18990  0.98170  1.0000 -0.0986770943
C   C157      1.0  0.78171  0.42609  0.42760  1.0000 -0.0302501905
C   C158      1.0  0.57391  0.21829  0.92760  1.0000 -0.0302501905
C   C159      1.0  0.83421  0.48039  0.37680  1.0000 0.5865613997
C   C160      1.0  0.51961  0.16579  0.87680  1.0000 0.5865613997
C   C161      1.0  0.70770  0.41010  0.42010  1.0000 -0.1096896403
C   C162      1.0  0.58990  0.29230  0.92010  1.0000 -0.1096896403
C   C163      1.0  0.66010  0.36250  0.46760  1.0000 -0.1697419693
C   C164      1.0  0.63750  0.33990  0.96760  1.0000 -0.1697419693
C   C165      1.0  0.52114  0.93326  0.88040  1.0000 0.0985015642
C   C166      1.0  0.06674  0.47886  0.38040  1.0000 0.0985015642
C   C167      1.0  0.58707  0.87153  0.93630  1.0000 0.1633644767
C   C168      1.0  0.12847  0.41293  0.43630  1.0000 0.1633644767
C   C169      1.0  0.60177  0.83303  0.99210  1.0000 -0.2202807038
C   C170      1.0  0.16697  0.39823  0.49210  1.0000 -0.2202807038
C   C171      1.0  0.60710  0.77650  0.00160  1.0000 0.1671839163
C   C172      1.0  0.22350  0.39290  0.50160  1.0000 0.1671839163
C   C173      1.0  0.67942  0.72718  0.08050  1.0000 0.09232575
C   C174      1.0  0.27282  0.32058  0.58050  1.0000 0.09232575
C   C175      1.0  0.62180  0.67420  0.15480  1.0000 -0.0090913438
C   C176      1.0  0.32580  0.37820  0.65480  1.0000 -0.0090913438
C   C177      1.0  0.58390  0.70110  0.10820  1.0000 -0.0986770943
C   C178      1.0  0.29890  0.41610  0.60820  1.0000 -0.0986770943
C   C179      1.0  0.60570  0.75930  0.95630  1.0000 -0.2003087521
C   C180      1.0  0.24070  0.39430  0.45630  1.0000 -0.2003087521
C   C181      1.0  0.58980  0.80040  0.89860  1.0000 -0.0553897775
C   C182      1.0  0.19960  0.41020  0.39860  1.0000 -0.0553897775
C   C183      1.0  0.58600  0.85860  0.88910  1.0000 -0.1806707464
C   C184      1.0  0.14140  0.41400  0.38910  1.0000 -0.1806707464
C   C185      1.0  0.62600  0.99260  0.96140  1.0000 -0.0986770943
C   C186      1.0  0.00740  0.37400  0.46140  1.0000 -0.0986770943
C   C187      1.0  0.59510  0.02970  0.93670  1.0000 -0.0381589493
C   C188      1.0  0.97030  0.40490  0.43670  1.0000 -0.0381589493
C   C189      1.0  0.24354  0.09366  0.79530  1.0000 0.5688715309
C   C190      1.0  0.90634  0.75646  0.29530  1.0000 0.5688715309
C   C191      1.0  0.19461  0.04759  0.84650  1.0000 -0.0196050423
C   C192      1.0  0.95241  0.80539  0.34650  1.0000 -0.0196050423
C   C193      1.0  0.15770  0.06930  0.84930  1.0000 -0.0875619173
C   C194      1.0  0.93070  0.84230  0.34930  1.0000 -0.0875619173
C   C195      1.0  0.11840  0.03060  0.89710  1.0000 -0.1499352743
C   C196      1.0  0.96940  0.88160  0.39710  1.0000 -0.1499352743
C   C197      1.0  0.11150  0.96270  0.94310  1.0000 0.0706708856
C   C198      1.0  0.03730  0.88850  0.44310  1.0000 0.0706708856
C   C199      1.0  0.14580  0.93820  0.94100  1.0000 -0.1697419693
C   C200      1.0  0.06180  0.85420  0.44100  1.0000 -0.1697419693
C   C201      1.0  0.18878  0.97942  0.89250  1.0000 -0.1282961041
C   C202      1.0  0.02058  0.81122  0.39250  1.0000 -0.1282961041
C   C203      1.0  0.06730  0.92010  0.99540  1.0000 0.0781479694
C   C204      1.0  0.07990  0.93270  0.49540  1.0000 0.0781479694
C   C205      1.0  0.99500  0.90340  0.99010  1.0000 -0.1499352743
C   C206      1.0  0.09660  0.00500  0.49010  1.0000 -0.1499352743
C   C207      1.0  0.09810  0.89150  0.05100  1.0000 -0.1697419693
C   C208      1.0  0.10850  0.90190  0.55100  1.0000 -0.1697419693
C   C209      1.0  0.92280  0.77120  0.14150  1.0000 0.5865613997
C   C210      1.0  0.22880  0.07720  0.64150  1.0000 0.5865613997
C   C211      1.0  0.97350  0.82430  0.09050  1.0000 -0.0196050423
C   C212      1.0  0.17570  0.02650  0.59050  1.0000 -0.0196050423
C   C213      1.0  0.95170  0.86010  0.03830  1.0000 -0.1096896403
C   C214      1.0  0.13990  0.04830  0.53830  1.0000 -0.1096896403
C   C215      1.0  0.04660  0.84060  0.09660  1.0000 -0.0986770943
C   C216      1.0  0.15940  0.95340  0.59660  1.0000 -0.0986770943
N   N1        1.0  0.99257  0.52823  0.61500  1.0000 -0.2967327952
N   N2        1.0  0.47177  0.00743  0.11500  1.0000 -0.2967327952
N   N3        1.0  0.92943  0.57917  0.57370  1.0000 0.0024490182
N   N4        1.0  0.42083  0.07057  0.07370  1.0000 0.0024490182
N   N5        1.0  0.73553  0.62287  0.43880  1.0000 0.0024490182
N   N6        1.0  0.37713  0.26447  0.93880  1.0000 0.0024490182
N   N7        1.0  0.68910  0.68210  0.36140  1.0000 -0.3144594401
N   N8        1.0  0.31790  0.31090  0.86140  1.0000 -0.3144594401
N   N9        1.0  0.52823  0.99257  0.88500  1.0000 -0.2967327952
N   N10       1.0  0.00743  0.47177  0.38500  1.0000 -0.2967327952
N   N11       1.0  0.57917  0.92943  0.92630  1.0000 0.0024490182
N   N12       1.0  0.07057  0.42083  0.42630  1.0000 0.0024490182
N   N13       1.0  0.62287  0.73553  0.06120  1.0000 0.0024490182
N   N14       1.0  0.26447  0.37713  0.56120  1.0000 0.0024490182
N   N15       1.0  0.68210  0.68910  0.13860  1.0000 -0.3144594401
N   N16       1.0  0.31090  0.31790  0.63860  1.0000 -0.3144594401
O   O1        1.0  0.98344  0.31796  0.70040  1.0000 -0.5660347908
O   O2        1.0  0.68204  0.01656  0.20040  1.0000 -0.5660347908
O   O3        1.0  0.86871  0.30309  0.67270  1.0000 -0.5332046717
O   O4        1.0  0.69691  0.13129  0.17270  1.0000 -0.5332046717
O   O5        1.0  0.27091  0.44169  0.78327  1.0000 -0.5827668428
O   O6        1.0  0.55831  0.72909  0.28327  1.0000 -0.5827668428
O   O7        1.0  0.35911  0.46669  0.74850  1.0000 -0.5077538162
O   O8        1.0  0.53331  0.64089  0.24850  1.0000 -0.5077538162
O   O9        1.0  0.08296  0.49584  0.74088  1.0000 -0.5550096303
O   O10       1.0  0.50416  0.91704  0.24088  1.0000 -0.5502473871
O   O11       1.0  0.16880  0.46940  0.78130  1.0000 -0.5411463797
O   O12       1.0  0.53060  0.83120  0.28130  1.0000 -0.5411463797
O   O13       1.0  0.51428  0.81272  0.16930  1.0000 -0.5411463797
O   O14       1.0  0.18728  0.48572  0.66930  1.0000 -0.5411463797
O   O15       1.0  0.48732  0.89668  0.11458  1.0000 -0.5502473871
O   O16       1.0  0.10332  0.51268  0.61458  1.0000 -0.5502473871
O   O17       1.0  0.08039  0.28461  0.70259  1.0000 -0.5411463797
O   O18       1.0  0.71539  0.91961  0.20259  1.0000 -0.5411463797
O   O19       1.0  0.14582  0.23618  0.74717  1.0000 -0.5411463797
O   O20       1.0  0.76382  0.85418  0.24717  1.0000 -0.5411463797
O   O21       1.0  0.73346  0.94034  0.31430  1.0000 -0.5237539679
O   O22       1.0  0.05966  0.26654  0.81430  1.0000 -0.5237539679
O   O23       1.0  0.76332  0.85888  0.36810  1.0000 -0.5502473871
O   O24       1.0  0.14112  0.23668  0.86810  1.0000 -0.5502473871
O   O25       1.0  0.31796  0.98344  0.79960  1.0000 -0.5660347908
O   O26       1.0  0.01656  0.68204  0.29960  1.0000 -0.5660347908
O   O27       1.0  0.30309  0.86871  0.82730  1.0000 -0.5332046717
O   O28       1.0  0.13129  0.69691  0.32730  1.0000 -0.5332046717
O   O29       1.0  0.44169  0.27091  0.71673  1.0000 -0.5827668428
O   O30       1.0  0.72909  0.55831  0.21673  1.0000 -0.5827668428
O   O31       1.0  0.46669  0.35911  0.75150  1.0000 -0.5077538162
O   O32       1.0  0.64089  0.53331  0.25150  1.0000 -0.5077538162
O   O33       1.0  0.49584  0.08296  0.75912  1.0000 -0.5502473871
O   O34       1.0  0.91704  0.50416  0.25912  1.0000 -0.5502473871
O   O35       1.0  0.46940  0.16880  0.71870  1.0000 -0.5411463797
O   O36       1.0  0.83120  0.53060  0.21870  1.0000 -0.5411463797
O   O37       1.0  0.81272  0.51428  0.33070  1.0000 -0.5411463797
O   O38       1.0  0.48572  0.18728  0.83070  1.0000 -0.5411463797
O   O39       1.0  0.89668  0.48732  0.38542  1.0000 -0.5502473871
O   O40       1.0  0.51268  0.10332  0.88542  1.0000 -0.5502473871
O   O41       1.0  0.28461  0.08039  0.79741  1.0000 -0.5411463797
O   O42       1.0  0.91961  0.71539  0.29741  1.0000 -0.5411463797
O   O43       1.0  0.23618  0.14582  0.75283  1.0000 -0.5411463797
O   O44       1.0  0.85418  0.76382  0.25283  1.0000 -0.5411463797
O   O45       1.0  0.94034  0.73346  0.18570  1.0000 -0.5237539679
O   O46       1.0  0.26654  0.05966  0.68570  1.0000 -0.5237539679
O   O47       1.0  0.85888  0.76332  0.13190  1.0000 -0.5502473871
O   O48       1.0  0.23668  0.14112  0.63190  1.0000 -0.5502473871
