# DDEC6 charges by PACMAN v1.1 (https://github.com/mtap-research/PACMAN-charge/)
data_2012[CoPr][nan]3[FSR]1
_chemical_formula_sum              "Pr4 Co6 H40 C80 N16 O52"
_cell_length_a       10.477
_cell_length_b       7.6575
_cell_length_c       30.456
_cell_angle_alpha    90
_cell_angle_beta     99.06
_cell_angle_gamma    90

_symmetry_space_group_name_H-M    "P 1"
_symmetry_Int_Tables_number       1

loop_
  _symmetry_equiv_pos_as_xyz
  'x, y, z'

loop_
  _atom_site_type_symbol
  _atom_site_label
  _atom_site_symmetry_multiplicity
  _atom_site_fract_x
  _atom_site_fract_y
  _atom_site_fract_z
  _atom_site_occupancy
  _atom_site_charge
Pr  Pr1       1.0  0.55207  0.37153  0.76821  1.0000 2.1182199239
Pr  Pr2       1.0  0.44793  0.87153  0.73179  1.0000 2.1182199239
Pr  Pr3       1.0  0.44793  0.62847  0.23179  1.0000 2.1182199239
Pr  Pr4       1.0  0.55207  0.12847  0.26821  1.0000 2.1182199239
Co  Co1       1.0  0.00000  0.50000  0.00000  1.0000 0.8255401372
Co  Co2       1.0  0.00000  0.00000  0.50000  1.0000 0.8255401372
Co  Co3       1.0  0.71354  0.44581  0.13005  1.0000 0.9468685805
Co  Co4       1.0  0.28646  0.94581  0.36995  1.0000 0.9468685805
Co  Co5       1.0  0.28646  0.55419  0.86995  1.0000 0.9468685805
Co  Co6       1.0  0.71354  0.05419  0.63005  1.0000 0.9468685805
H   H1        1.0  0.75640  0.55620  0.91830  1.0000 0.1488981837
H   H2        1.0  0.24360  0.05620  0.58170  1.0000 0.1488981837
H   H3        1.0  0.24360  0.44380  0.08170  1.0000 0.1488981837
H   H4        1.0  0.75640  0.94380  0.41830  1.0000 0.1488981837
H   H5        1.0  0.79830  0.15020  0.87800  1.0000 0.1488981837
H   H6        1.0  0.20170  0.65020  0.62200  1.0000 0.1488981837
H   H7        1.0  0.20170  0.84980  0.12200  1.0000 0.1488981837
H   H8        1.0  0.79830  0.34980  0.37800  1.0000 0.1488981837
H   H9        1.0  0.12740  0.87770  0.98560  1.0000 0.1188585653
H   H10       1.0  0.87260  0.37770  0.51440  1.0000 0.1188585653
H   H11       1.0  0.87260  0.12230  0.01440  1.0000 0.1188585653
H   H12       1.0  0.12740  0.62230  0.48560  1.0000 0.1188585653
H   H13       1.0  0.07710  0.81850  0.21690  1.0000 0.1561326205
H   H14       1.0  0.92290  0.31850  0.28310  1.0000 0.1561326205
H   H15       1.0  0.92290  0.18150  0.78310  1.0000 0.1561326205
H   H16       1.0  0.07710  0.68150  0.71690  1.0000 0.1561326205
H   H17       1.0  0.02300  0.42490  0.18610  1.0000 0.1488981837
H   H18       1.0  0.97700  0.92490  0.31390  1.0000 0.1488981837
H   H19       1.0  0.97700  0.57510  0.81390  1.0000 0.1488981837
H   H20       1.0  0.02300  0.07510  0.68610  1.0000 0.1488981837
H   H21       1.0  0.68880  0.02860  0.12430  1.0000 0.1188585653
H   H22       1.0  0.31120  0.52860  0.37570  1.0000 0.1188585653
H   H23       1.0  0.31120  0.97140  0.87570  1.0000 0.1188585653
H   H24       1.0  0.68880  0.47140  0.62430  1.0000 0.1188585653
H   H25       1.0  0.03560  0.10590  0.93800  1.0000 0.3076559834
H   H26       1.0  0.96440  0.60590  0.56200  1.0000 0.3076559834
H   H27       1.0  0.96440  0.89410  0.06200  1.0000 0.3076559834
H   H28       1.0  0.03560  0.39410  0.43800  1.0000 0.3076559834
H   H29       1.0  0.83380  0.81290  0.16030  1.0000 0.3076559834
H   H30       1.0  0.16620  0.31290  0.33970  1.0000 0.3076559834
H   H31       1.0  0.16620  0.18710  0.83970  1.0000 0.3076559834
H   H32       1.0  0.83380  0.68710  0.66030  1.0000 0.3076559834
H   H33       1.0  0.55550  0.71590  0.13220  1.0000 0.369838339
H   H34       1.0  0.44450  0.21590  0.36780  1.0000 0.369838339
H   H35       1.0  0.44450  0.28410  0.86780  1.0000 0.369838339
H   H36       1.0  0.55550  0.78410  0.63220  1.0000 0.369838339
H   H37       1.0  0.57010  0.69040  0.08780  1.0000 0.3593075692
H   H38       1.0  0.42990  0.19040  0.41220  1.0000 0.3593075692
H   H39       1.0  0.42990  0.30960  0.91220  1.0000 0.3593075692
H   H40       1.0  0.57010  0.80960  0.58780  1.0000 0.3593075692
C   C1        1.0  0.79020  0.47030  0.04455  1.0000 0.456450653
C   C2        1.0  0.20980  0.97030  0.45545  1.0000 0.456450653
C   C3        1.0  0.20980  0.52970  0.95545  1.0000 0.456450653
C   C4        1.0  0.79020  0.02970  0.54455  1.0000 0.456450653
C   C5        1.0  0.89490  0.56770  0.07708  1.0000 0.4532772421
C   C6        1.0  0.10510  0.06770  0.42292  1.0000 0.4532772421
C   C7        1.0  0.10510  0.43230  0.92292  1.0000 0.4532772421
C   C8        1.0  0.89490  0.93230  0.57708  1.0000 0.4532772421
C   C9        1.0  0.55530  0.65160  0.86153  1.0000 0.6559850096
C   C10       1.0  0.44470  0.15160  0.63847  1.0000 0.6559850096
C   C11       1.0  0.44470  0.34840  0.13847  1.0000 0.6559850096
C   C12       1.0  0.55530  0.84840  0.36153  1.0000 0.6559850096
C   C13       1.0  0.67320  0.75500  0.87945  1.0000 -0.0344832346
C   C14       1.0  0.32680  0.25500  0.62055  1.0000 -0.0344832346
C   C15       1.0  0.32680  0.24500  0.12055  1.0000 -0.0344832346
C   C16       1.0  0.67320  0.74500  0.37945  1.0000 -0.0344832346
C   C17       1.0  0.76460  0.67530  0.91047  1.0000 -0.1744205535
C   C18       1.0  0.23540  0.17530  0.58953  1.0000 -0.1744205535
C   C19       1.0  0.23540  0.32470  0.08953  1.0000 -0.1744205535
C   C20       1.0  0.76460  0.82470  0.41047  1.0000 -0.1744205535
C   C21       1.0  0.86920  0.77500  0.92995  1.0000 0.1404755234
C   C22       1.0  0.13080  0.27500  0.57005  1.0000 0.1488981837
C   C23       1.0  0.13080  0.22500  0.07005  1.0000 0.1488981837
C   C24       1.0  0.86920  0.72500  0.42995  1.0000 0.1404755234
C   C25       1.0  0.88200  0.94920  0.91660  1.0000 0.127045539
C   C26       1.0  0.11800  0.44920  0.58340  1.0000 0.127045539
C   C27       1.0  0.11800  0.05080  0.08340  1.0000 0.127045539
C   C28       1.0  0.88200  0.55080  0.41660  1.0000 0.127045539
C   C29       1.0  0.78960  0.03150  0.88606  1.0000 -0.1857708276
C   C30       1.0  0.21040  0.53150  0.61394  1.0000 -0.1857708276
C   C31       1.0  0.21040  0.96850  0.11394  1.0000 -0.1857708276
C   C32       1.0  0.78960  0.46850  0.38606  1.0000 -0.1857708276
C   C33       1.0  0.68410  0.93270  0.86779  1.0000 -0.0677942515
C   C34       1.0  0.31590  0.43270  0.63221  1.0000 -0.0677942515
C   C35       1.0  0.31590  0.06730  0.13221  1.0000 -0.0677942515
C   C36       1.0  0.68410  0.56730  0.36779  1.0000 -0.0677942515
C   C37       1.0  0.58410  0.01370  0.83363  1.0000 0.6311813712
C   C38       1.0  0.41590  0.51370  0.66637  1.0000 0.6311813712
C   C39       1.0  0.41590  0.98630  0.16637  1.0000 0.6311813712
C   C40       1.0  0.58410  0.48630  0.33363  1.0000 0.6311813712
C   C41       1.0  0.04760  0.87130  0.96595  1.0000 0.1757094383
C   C42       1.0  0.95240  0.37130  0.53405  1.0000 0.1757094383
C   C43       1.0  0.95240  0.12870  0.03405  1.0000 0.1757094383
C   C44       1.0  0.04760  0.62870  0.46595  1.0000 0.1757094383
C   C45       1.0  0.26160  0.99880  0.26694  1.0000 0.6409626722
C   C46       1.0  0.73840  0.49880  0.23306  1.0000 0.6409626722
C   C47       1.0  0.73840  0.00120  0.73306  1.0000 0.6409626722
C   C48       1.0  0.26160  0.50120  0.76694  1.0000 0.6409626722
C   C49       1.0  0.15670  0.06040  0.23044  1.0000 -0.0172009727
C   C50       1.0  0.84330  0.56040  0.26956  1.0000 -0.0172009727
C   C51       1.0  0.84330  0.93960  0.76956  1.0000 -0.0172009727
C   C52       1.0  0.15670  0.43960  0.73044  1.0000 -0.0172009727
C   C53       1.0  0.06610  0.94010  0.21142  1.0000 -0.2119066299
C   C54       1.0  0.93390  0.44010  0.28858  1.0000 -0.2119066299
C   C55       1.0  0.93390  0.05990  0.78858  1.0000 -0.2119066299
C   C56       1.0  0.06610  0.55990  0.71142  1.0000 -0.2119066299
C   C57       1.0  0.95800  0.00530  0.18393  1.0000 0.1488981837
C   C58       1.0  0.04200  0.50530  0.31607  1.0000 0.1488981837
C   C59       1.0  0.04200  0.99470  0.81607  1.0000 0.1488981837
C   C60       1.0  0.95800  0.49470  0.68393  1.0000 0.1488981837
C   C61       1.0  0.93880  0.18450  0.17533  1.0000 0.1404755234
C   C62       1.0  0.06120  0.68450  0.32467  1.0000 0.1404755234
C   C63       1.0  0.06120  0.81550  0.82467  1.0000 0.1404755234
C   C64       1.0  0.93880  0.31550  0.67533  1.0000 0.1404755234
C   C65       1.0  0.03310  0.30390  0.19267  1.0000 -0.148898355
C   C66       1.0  0.96690  0.80390  0.30733  1.0000 -0.148898355
C   C67       1.0  0.96690  0.69610  0.80733  1.0000 -0.148898355
C   C68       1.0  0.03310  0.19610  0.69267  1.0000 -0.148898355
C   C69       1.0  0.14230  0.24190  0.21984  1.0000 -0.0753487286
C   C70       1.0  0.85770  0.74190  0.28016  1.0000 -0.0753487286
C   C71       1.0  0.85770  0.75810  0.78016  1.0000 -0.0753487286
C   C72       1.0  0.14230  0.25810  0.71984  1.0000 -0.0753487286
C   C73       1.0  0.24730  0.36890  0.23495  1.0000 0.6163460731
C   C74       1.0  0.75270  0.86890  0.26505  1.0000 0.6163460731
C   C75       1.0  0.75270  0.63110  0.76505  1.0000 0.6163460731
C   C76       1.0  0.24730  0.13110  0.73495  1.0000 0.6163460731
C   C77       1.0  0.77070  0.05170  0.14162  1.0000 0.201992151
C   C78       1.0  0.22930  0.55170  0.35838  1.0000 0.201992151
C   C79       1.0  0.22930  0.94830  0.85838  1.0000 0.201992151
C   C80       1.0  0.77070  0.44830  0.64162  1.0000 0.201992151
N   N1        1.0  0.97390  0.73170  0.96170  1.0000 -0.3780127086
N   N2        1.0  0.02610  0.23170  0.53830  1.0000 -0.3780127086
N   N3        1.0  0.02610  0.26830  0.03830  1.0000 -0.3780127086
N   N4        1.0  0.97390  0.76830  0.46170  1.0000 -0.3780127086
N   N5        1.0  0.99930  0.00310  0.93995  1.0000 -0.2488819615
N   N6        1.0  0.00070  0.50310  0.56005  1.0000 -0.2488819615
N   N7        1.0  0.00070  0.99690  0.06005  1.0000 -0.2488819615
N   N8        1.0  0.99930  0.49690  0.43995  1.0000 -0.2488819615
N   N9        1.0  0.81900  0.21030  0.14863  1.0000 -0.3780127086
N   N10       1.0  0.18100  0.71030  0.35137  1.0000 -0.3780127086
N   N11       1.0  0.18100  0.78970  0.85137  1.0000 -0.3780127086
N   N12       1.0  0.81900  0.28970  0.64863  1.0000 -0.3780127086
N   N13       1.0  0.84930  0.92590  0.16149  1.0000 -0.2488819615
N   N14       1.0  0.15070  0.42590  0.33851  1.0000 -0.2488819615
N   N15       1.0  0.15070  0.07410  0.83851  1.0000 -0.2488819615
N   N16       1.0  0.84930  0.57410  0.66149  1.0000 -0.2488819615
O   O1        1.0  0.98960  0.62980  0.06099  1.0000 -0.5000278272
O   O2        1.0  0.01040  0.12980  0.43901  1.0000 -0.5000278272
O   O3        1.0  0.01040  0.37020  0.93901  1.0000 -0.5000278272
O   O4        1.0  0.98960  0.87020  0.56099  1.0000 -0.5000278272
O   O5        1.0  0.80340  0.46440  0.00415  1.0000 -0.5000278272
O   O6        1.0  0.19660  0.96440  0.49585  1.0000 -0.5000278272
O   O7        1.0  0.19660  0.53560  0.99585  1.0000 -0.5000278272
O   O8        1.0  0.80340  0.03560  0.50415  1.0000 -0.5000278272
O   O9        1.0  0.87750  0.58030  0.11642  1.0000 -0.5000278272
O   O10       1.0  0.12250  0.08030  0.38358  1.0000 -0.5000278272
O   O11       1.0  0.12250  0.41970  0.88358  1.0000 -0.5000278272
O   O12       1.0  0.87750  0.91970  0.61642  1.0000 -0.5000278272
O   O13       1.0  0.69960  0.40520  0.06108  1.0000 -0.5000278272
O   O14       1.0  0.30040  0.90520  0.43892  1.0000 -0.5000278272
O   O15       1.0  0.30040  0.59480  0.93892  1.0000 -0.5000278272
O   O16       1.0  0.69960  0.09480  0.56108  1.0000 -0.5000278272
O   O17       1.0  0.45510  0.68650  0.87744  1.0000 -0.5450010181
O   O18       1.0  0.54490  0.18650  0.62256  1.0000 -0.5450010181
O   O19       1.0  0.54490  0.31350  0.12256  1.0000 -0.5450010181
O   O20       1.0  0.45510  0.81350  0.37744  1.0000 -0.5450010181
O   O21       1.0  0.56630  0.52900  0.83492  1.0000 -0.7044901729
O   O22       1.0  0.43370  0.02900  0.66508  1.0000 -0.7044901729
O   O23       1.0  0.43370  0.47100  0.16508  1.0000 -0.7044901729
O   O24       1.0  0.56630  0.97100  0.33492  1.0000 -0.7044901729
O   O25       1.0  0.50850  0.91430  0.80919  1.0000 -0.6486108184
O   O26       1.0  0.49150  0.41430  0.69081  1.0000 -0.6486108184
O   O27       1.0  0.49150  0.08570  0.19081  1.0000 -0.6486108184
O   O28       1.0  0.50850  0.58570  0.30919  1.0000 -0.6486108184
O   O29       1.0  0.58240  0.17800  0.83088  1.0000 -0.6673152924
O   O30       1.0  0.41760  0.67800  0.66912  1.0000 -0.6673152924
O   O31       1.0  0.41760  0.82200  0.16912  1.0000 -0.6673152924
O   O32       1.0  0.58240  0.32200  0.33088  1.0000 -0.6673152924
O   O33       1.0  0.24700  0.03960  0.30515  1.0000 -0.5434010059
O   O34       1.0  0.75300  0.53960  0.19485  1.0000 -0.5434010059
O   O35       1.0  0.75300  0.96040  0.69485  1.0000 -0.5434010059
O   O36       1.0  0.24700  0.46040  0.80515  1.0000 -0.5434010059
O   O37       1.0  0.35680  0.91070  0.25702  1.0000 -0.7396942258
O   O38       1.0  0.64320  0.41070  0.24298  1.0000 -0.7396942258
O   O39       1.0  0.64320  0.08930  0.74298  1.0000 -0.7396942258
O   O40       1.0  0.35680  0.58930  0.75702  1.0000 -0.7396942258
O   O41       1.0  0.36170  0.31440  0.24943  1.0000 -0.7612106384
O   O42       1.0  0.63830  0.81440  0.25057  1.0000 -0.7612106384
O   O43       1.0  0.63830  0.68560  0.75057  1.0000 -0.7612106384
O   O44       1.0  0.36170  0.18560  0.74943  1.0000 -0.7612106384
O   O45       1.0  0.22560  0.53060  0.23103  1.0000 -0.615576911
O   O46       1.0  0.77440  0.03060  0.26897  1.0000 -0.615576911
O   O47       1.0  0.77440  0.46940  0.76897  1.0000 -0.615576911
O   O48       1.0  0.22560  0.96940  0.73103  1.0000 -0.615576911
O   O49       1.0  0.60780  0.68980  0.11452  1.0000 -0.6608471752
O   O50       1.0  0.39220  0.18980  0.38548  1.0000 -0.6608471752
O   O51       1.0  0.39220  0.31020  0.88548  1.0000 -0.6608471752
O   O52       1.0  0.60780  0.81020  0.61452  1.0000 -0.6608471752
