# DDEC6 charges by PACMAN v1.1 (https://github.com/mtap-research/PACMAN-charge/)
data_2012[Eu][gra]3[FSR]1
_chemical_formula_sum              "Eu8 H80 C160 O92"
_cell_length_a       23.198
_cell_length_b       15.455
_cell_length_c       34.046
_cell_angle_alpha    90
_cell_angle_beta     130.442
_cell_angle_gamma    90

_symmetry_space_group_name_H-M    "P 1"
_symmetry_Int_Tables_number       1

loop_
  _symmetry_equiv_pos_as_xyz
  'x, y, z'

loop_
  _atom_site_type_symbol
  _atom_site_label
  _atom_site_symmetry_multiplicity
  _atom_site_fract_x
  _atom_site_fract_y
  _atom_site_fract_z
  _atom_site_occupancy
  _atom_site_charge
Eu  Eu1       1.0  0.54501  0.74215  0.41305  1.0000 2.0800487365
Eu  Eu2       1.0  0.45499  0.24215  0.08695  1.0000 2.0800487365
Eu  Eu3       1.0  0.45499  0.25785  0.58695  1.0000 2.0800487365
Eu  Eu4       1.0  0.54501  0.75785  0.91305  1.0000 2.0800487365
Eu  Eu5       1.0  0.97964  0.73500  0.35427  1.0000 1.9698821868
Eu  Eu6       1.0  0.02036  0.23500  0.14573  1.0000 1.9698821868
Eu  Eu7       1.0  0.02036  0.26500  0.64573  1.0000 1.9698821868
Eu  Eu8       1.0  0.97964  0.76500  0.85427  1.0000 1.9698821868
H   H1        1.0  0.80910  0.72620  0.58580  1.0000 0.1397621506
H   H2        1.0  0.19090  0.22620  0.91420  1.0000 0.1397621506
H   H3        1.0  0.19090  0.27380  0.41420  1.0000 0.1397621506
H   H4        1.0  0.80910  0.77380  0.08580  1.0000 0.1397621506
H   H5        1.0  0.63890  0.75350  0.58940  1.0000 0.1308729678
H   H6        1.0  0.36110  0.25350  0.91060  1.0000 0.1308729678
H   H7        1.0  0.36110  0.24650  0.41060  1.0000 0.1308729678
H   H8        1.0  0.63890  0.74650  0.08940  1.0000 0.1308729678
H   H9        1.0  0.50480  0.10870  0.45730  1.0000 0.1397621506
H   H10       1.0  0.49520  0.60870  0.04270  1.0000 0.1397621506
H   H11       1.0  0.49520  0.89130  0.54270  1.0000 0.1397621506
H   H12       1.0  0.50480  0.39130  0.95730  1.0000 0.1397621506
H   H13       1.0  0.51610  0.85960  0.48780  1.0000 0.1308729678
H   H14       1.0  0.48390  0.35960  0.01220  1.0000 0.1308729678
H   H15       1.0  0.48390  0.14040  0.51220  1.0000 0.1308729678
H   H16       1.0  0.51610  0.64040  0.98780  1.0000 0.1308729678
H   H17       1.0  0.52070  0.38230  0.46760  1.0000 0.1397621506
H   H18       1.0  0.47930  0.88230  0.03240  1.0000 0.1397621506
H   H19       1.0  0.47930  0.61770  0.53240  1.0000 0.1397621506
H   H20       1.0  0.52070  0.11770  0.96760  1.0000 0.1397621506
H   H21       1.0  0.47140  0.63520  0.46180  1.0000 0.1211431663
H   H22       1.0  0.52860  0.13520  0.03820  1.0000 0.1211431663
H   H23       1.0  0.52860  0.36480  0.53820  1.0000 0.1211431663
H   H24       1.0  0.47140  0.86480  0.96180  1.0000 0.1211431663
H   H25       1.0  0.20870  0.76400  0.30040  1.0000 0.1397621506
H   H26       1.0  0.79130  0.26400  0.19960  1.0000 0.1397621506
H   H27       1.0  0.79130  0.23600  0.69960  1.0000 0.1397621506
H   H28       1.0  0.20870  0.73600  0.80040  1.0000 0.1397621506
H   H29       1.0  0.13300  0.76420  0.32160  1.0000 0.1308729678
H   H30       1.0  0.86700  0.26420  0.17840  1.0000 0.1308729678
H   H31       1.0  0.86700  0.23580  0.67840  1.0000 0.1308729678
H   H32       1.0  0.13300  0.73580  0.82160  1.0000 0.1308729678
H   H33       1.0  0.31910  0.75300  0.47240  1.0000 0.1308729678
H   H34       1.0  0.68090  0.25300  0.02760  1.0000 0.1308729678
H   H35       1.0  0.68090  0.24700  0.52760  1.0000 0.1308729678
H   H36       1.0  0.31910  0.74700  0.97240  1.0000 0.1308729678
H   H37       1.0  0.39540  0.75670  0.45200  1.0000 0.1308729678
H   H38       1.0  0.60460  0.25670  0.04800  1.0000 0.1308729678
H   H39       1.0  0.60460  0.24330  0.54800  1.0000 0.1308729678
H   H40       1.0  0.39540  0.74330  0.95200  1.0000 0.1308729678
H   H41       1.0  0.69880  0.60160  0.37040  1.0000 0.1397621506
H   H42       1.0  0.30120  0.10160  0.12960  1.0000 0.1397621506
H   H43       1.0  0.30120  0.39840  0.62960  1.0000 0.1397621506
H   H44       1.0  0.69880  0.89840  0.87040  1.0000 0.1397621506
H   H45       1.0  0.78520  0.60190  0.36150  1.0000 0.1397621506
H   H46       1.0  0.21480  0.10190  0.13850  1.0000 0.1397621506
H   H47       1.0  0.21480  0.39810  0.63850  1.0000 0.1397621506
H   H48       1.0  0.78520  0.89810  0.86150  1.0000 0.1397621506
H   H49       1.0  0.80880  0.85690  0.37940  1.0000 0.1397621506
H   H50       1.0  0.19120  0.35690  0.12060  1.0000 0.1397621506
H   H51       1.0  0.19120  0.14310  0.62060  1.0000 0.1397621506
H   H52       1.0  0.80880  0.64310  0.87940  1.0000 0.1397621506
H   H53       1.0  0.71640  0.85980  0.38640  1.0000 0.1397621506
H   H54       1.0  0.28360  0.35980  0.11360  1.0000 0.1397621506
H   H55       1.0  0.28360  0.14020  0.61360  1.0000 0.1397621506
H   H56       1.0  0.71640  0.64020  0.88640  1.0000 0.1397621506
H   H57       1.0  0.89600  0.72830  0.67620  1.0000 0.1308729678
H   H58       1.0  0.10400  0.22830  0.82380  1.0000 0.1308729678
H   H59       1.0  0.10400  0.27170  0.32380  1.0000 0.1308729678
H   H60       1.0  0.89600  0.77170  0.17620  1.0000 0.1308729678
H   H61       1.0  0.72820  0.75800  0.67970  1.0000 0.1397621506
H   H62       1.0  0.27180  0.25800  0.82030  1.0000 0.1397621506
H   H63       1.0  0.27180  0.24200  0.32030  1.0000 0.1397621506
H   H64       1.0  0.72820  0.74200  0.17970  1.0000 0.1397621506
H   H65       1.0  0.98260  0.44680  0.29080  1.0000 0.1397621506
H   H66       1.0  0.01740  0.94680  0.20920  1.0000 0.1397621506
H   H67       1.0  0.01740  0.55320  0.70920  1.0000 0.1397621506
H   H68       1.0  0.98260  0.05320  0.79080  1.0000 0.1397621506
H   H69       1.0  0.95970  0.29980  0.28080  1.0000 0.1308729678
H   H70       1.0  0.04030  0.79980  0.21920  1.0000 0.1308729678
H   H71       1.0  0.04030  0.70020  0.71920  1.0000 0.1308729678
H   H72       1.0  0.95970  0.20020  0.78080  1.0000 0.1308729678
H   H73       1.0  0.95730  0.29960  0.39440  1.0000 0.1109707918
H   H74       1.0  0.04270  0.79960  0.10560  1.0000 0.1109707918
H   H75       1.0  0.04270  0.70040  0.60560  1.0000 0.1109707918
H   H76       1.0  0.95730  0.20040  0.89440  1.0000 0.1109707918
H   H77       1.0  0.98430  0.44480  0.40880  1.0000 0.1397621506
H   H78       1.0  0.01570  0.94480  0.09120  1.0000 0.1397621506
H   H79       1.0  0.01570  0.55520  0.59120  1.0000 0.1397621506
H   H80       1.0  0.98430  0.05520  0.90880  1.0000 0.1397621506
C   C1        1.0  0.65700  0.73440  0.52230  1.0000 0.5691526722
C   C2        1.0  0.34300  0.23440  0.97770  1.0000 0.5691526722
C   C3        1.0  0.34300  0.26560  0.47770  1.0000 0.5691526722
C   C4        1.0  0.65700  0.76560  0.02230  1.0000 0.5691526722
C   C5        1.0  0.71350  0.73730  0.57770  1.0000 -0.0423325409
C   C6        1.0  0.28650  0.23730  0.92230  1.0000 -0.0423325409
C   C7        1.0  0.28650  0.26270  0.42230  1.0000 -0.0423325409
C   C8        1.0  0.71350  0.76270  0.07770  1.0000 -0.0423325409
C   C9        1.0  0.79230  0.73120  0.60410  1.0000 -0.0608615711
C   C10       1.0  0.20770  0.23120  0.89590  1.0000 -0.0608615711
C   C11       1.0  0.20770  0.26880  0.39590  1.0000 -0.0608615711
C   C12       1.0  0.79230  0.76880  0.10410  1.0000 -0.0608615711
C   C13       1.0  0.69020  0.74790  0.60630  1.0000 -0.0703939466
C   C14       1.0  0.30980  0.24790  0.89370  1.0000 -0.0703939466
C   C15       1.0  0.30980  0.25210  0.39370  1.0000 -0.0703939466
C   C16       1.0  0.69020  0.75210  0.10630  1.0000 -0.0703939466
C   C17       1.0  0.52440  0.96230  0.42680  1.0000 0.6121615733
C   C18       1.0  0.47560  0.46230  0.07320  1.0000 0.6121615733
C   C19       1.0  0.47560  0.03770  0.57320  1.0000 0.6121615733
C   C20       1.0  0.52440  0.53770  0.92680  1.0000 0.6121615733
C   C21       1.0  0.51390  0.98220  0.46610  1.0000 0.0096431473
C   C22       1.0  0.48610  0.48220  0.03390  1.0000 0.0096431473
C   C23       1.0  0.48610  0.01780  0.53390  1.0000 0.0096431473
C   C24       1.0  0.51390  0.51780  0.96610  1.0000 0.0096431473
C   C25       1.0  0.50320  0.06350  0.47470  1.0000 -0.1106795293
C   C26       1.0  0.49680  0.56350  0.02530  1.0000 -0.1106795293
C   C27       1.0  0.49680  0.93650  0.52530  1.0000 -0.1106795293
C   C28       1.0  0.50320  0.43650  0.97470  1.0000 -0.1106795293
C   C29       1.0  0.50990  0.91700  0.49250  1.0000 -0.0796348077
C   C30       1.0  0.49010  0.41700  0.00750  1.0000 -0.0796348077
C   C31       1.0  0.49010  0.08300  0.50750  1.0000 -0.0796348077
C   C32       1.0  0.50990  0.58300  0.99250  1.0000 -0.0796348077
C   C33       1.0  0.50140  0.52270  0.41540  1.0000 0.6121615733
C   C34       1.0  0.49860  0.02270  0.08460  1.0000 0.6121615733
C   C35       1.0  0.49860  0.47730  0.58460  1.0000 0.6121615733
C   C36       1.0  0.50140  0.97730  0.91540  1.0000 0.6121615733
C   C37       1.0  0.49960  0.50940  0.45870  1.0000 0.0162583072
C   C38       1.0  0.50040  0.00940  0.04130  1.0000 0.0162583072
C   C39       1.0  0.50040  0.49060  0.54130  1.0000 0.0162583072
C   C40       1.0  0.49960  0.99060  0.95870  1.0000 0.0162583072
C   C41       1.0  0.51330  0.42960  0.48080  1.0000 -0.1179160901
C   C42       1.0  0.48670  0.92960  0.01920  1.0000 -0.1179160901
C   C43       1.0  0.48670  0.57040  0.51920  1.0000 -0.1179160901
C   C44       1.0  0.51330  0.07040  0.98080  1.0000 -0.1179160901
C   C45       1.0  0.48370  0.58140  0.47770  1.0000 -0.0608615711
C   C46       1.0  0.51630  0.08140  0.02230  1.0000 -0.0608615711
C   C47       1.0  0.51630  0.41860  0.52230  1.0000 -0.0608615711
C   C48       1.0  0.48370  0.91860  0.97770  1.0000 -0.0608615711
C   C49       1.0  0.35990  0.76580  0.36000  1.0000 0.5691526722
C   C50       1.0  0.64010  0.26580  0.14000  1.0000 0.5691526722
C   C51       1.0  0.64010  0.23420  0.64000  1.0000 0.5691526722
C   C52       1.0  0.35990  0.73420  0.86000  1.0000 0.5691526722
C   C53       1.0  0.30960  0.76310  0.37380  1.0000 0.0304060376
C   C54       1.0  0.69040  0.26310  0.12620  1.0000 0.0304060376
C   C55       1.0  0.69040  0.23690  0.62620  1.0000 0.0304060376
C   C56       1.0  0.30960  0.73690  0.87380  1.0000 0.0304060376
C   C57       1.0  0.23050  0.76300  0.33490  1.0000 -0.1026735414
C   C58       1.0  0.76950  0.26300  0.16510  1.0000 -0.1026735414
C   C59       1.0  0.76950  0.23700  0.66510  1.0000 -0.1026735414
C   C60       1.0  0.23050  0.73700  0.83490  1.0000 -0.1026735414
C   C61       1.0  0.18530  0.76160  0.34760  1.0000 -0.0796348077
C   C62       1.0  0.81470  0.26160  0.15240  1.0000 -0.0796348077
C   C63       1.0  0.81470  0.23840  0.65240  1.0000 -0.0796348077
C   C64       1.0  0.18530  0.73840  0.84760  1.0000 -0.0796348077
C   C65       1.0  0.21640  0.75630  0.39820  1.0000 -0.0199734975
C   C66       1.0  0.78360  0.25630  0.10180  1.0000 -0.0199734975
C   C67       1.0  0.78360  0.24370  0.60180  1.0000 -0.0199734975
C   C68       1.0  0.21640  0.74370  0.89820  1.0000 -0.0199734975
C   C69       1.0  0.29760  0.75540  0.43790  1.0000 -0.0884261019
C   C70       1.0  0.70240  0.25540  0.06210  1.0000 -0.0884261019
C   C71       1.0  0.70240  0.24460  0.56210  1.0000 -0.0884261019
C   C72       1.0  0.29760  0.74460  0.93790  1.0000 -0.0884261019
C   C73       1.0  0.34300  0.75810  0.42610  1.0000 -0.1106795293
C   C74       1.0  0.65700  0.25810  0.07390  1.0000 -0.1106795293
C   C75       1.0  0.65700  0.24190  0.57390  1.0000 -0.1106795293
C   C76       1.0  0.34300  0.74190  0.92610  1.0000 -0.1106795293
C   C77       1.0  0.16560  0.75080  0.41020  1.0000 0.5691526722
C   C78       1.0  0.83440  0.25080  0.08980  1.0000 0.5691526722
C   C79       1.0  0.83440  0.24920  0.58980  1.0000 0.5691526722
C   C80       1.0  0.16560  0.74920  0.91020  1.0000 0.5691526722
C   C81       1.0  0.63960  0.73270  0.38700  1.0000 0.5691526722
C   C82       1.0  0.36040  0.23270  0.11300  1.0000 0.5691526722
C   C83       1.0  0.36040  0.26730  0.61300  1.0000 0.5691526722
C   C84       1.0  0.63960  0.76730  0.88700  1.0000 0.5691526722
C   C85       1.0  0.69750  0.72920  0.38100  1.0000 -0.0111042804
C   C86       1.0  0.30250  0.22920  0.11900  1.0000 -0.0111042804
C   C87       1.0  0.30250  0.27080  0.61900  1.0000 -0.0199734975
C   C88       1.0  0.69750  0.77080  0.88100  1.0000 -0.0111042804
C   C89       1.0  0.72040  0.65400  0.37250  1.0000 -0.0796348077
C   C90       1.0  0.27960  0.15400  0.12750  1.0000 -0.0796348077
C   C91       1.0  0.27960  0.34600  0.62750  1.0000 -0.0796348077
C   C92       1.0  0.72040  0.84600  0.87250  1.0000 -0.0796348077
C   C93       1.0  0.77200  0.65450  0.36710  1.0000 -0.0884261019
C   C94       1.0  0.22800  0.15450  0.13290  1.0000 -0.0884261019
C   C95       1.0  0.22800  0.34550  0.63290  1.0000 -0.0884261019
C   C96       1.0  0.77200  0.84550  0.86710  1.0000 -0.0884261019
C   C97       1.0  0.80730  0.72820  0.36920  1.0000 0.0096431473
C   C98       1.0  0.19270  0.22820  0.13080  1.0000 0.0096431473
C   C99       1.0  0.19270  0.27180  0.63080  1.0000 0.0096431473
C   C100      1.0  0.80730  0.77180  0.86920  1.0000 0.0096431473
C   C101      1.0  0.78610  0.80560  0.37730  1.0000 -0.0884261019
C   C102      1.0  0.21390  0.30560  0.12270  1.0000 -0.0884261019
C   C103      1.0  0.21390  0.19440  0.62270  1.0000 -0.0884261019
C   C104      1.0  0.78610  0.69440  0.87730  1.0000 -0.0884261019
C   C105      1.0  0.73130  0.80710  0.38230  1.0000 -0.0703939466
C   C106      1.0  0.26870  0.30710  0.11770  1.0000 -0.0703939466
C   C107      1.0  0.26870  0.19290  0.61770  1.0000 -0.0703939466
C   C108      1.0  0.73130  0.69290  0.88230  1.0000 -0.0703939466
C   C109      1.0  0.87000  0.72610  0.36660  1.0000 0.5508882891
C   C110      1.0  0.13000  0.22610  0.13340  1.0000 0.5508882891
C   C111      1.0  0.13000  0.27390  0.63340  1.0000 0.5508882891
C   C112      1.0  0.87000  0.77390  0.86660  1.0000 0.5508882891
C   C113      1.0  0.87810  0.74500  0.74500  1.0000 0.5626364763
C   C114      1.0  0.12190  0.24500  0.75500  1.0000 0.5626364763
C   C115      1.0  0.12190  0.25500  0.25500  1.0000 0.5626364763
C   C116      1.0  0.87810  0.75500  0.24500  1.0000 0.5626364763
C   C117      1.0  0.82050  0.74070  0.68610  1.0000 0.0162583072
C   C118      1.0  0.17950  0.24070  0.81390  1.0000 0.0162583072
C   C119      1.0  0.17950  0.25930  0.31390  1.0000 0.0162583072
C   C120      1.0  0.82050  0.75930  0.18610  1.0000 0.0162583072
C   C121      1.0  0.84450  0.73270  0.65860  1.0000 -0.0884261019
C   C122      1.0  0.15550  0.23270  0.84140  1.0000 -0.0884261019
C   C123      1.0  0.15550  0.26730  0.34140  1.0000 -0.0884261019
C   C124      1.0  0.84450  0.76730  0.15860  1.0000 -0.0884261019
C   C125      1.0  0.74400  0.75020  0.66090  1.0000 -0.0884261019
C   C126      1.0  0.25600  0.25020  0.83910  1.0000 -0.0884261019
C   C127      1.0  0.25600  0.24980  0.33910  1.0000 -0.0884261019
C   C128      1.0  0.74400  0.74980  0.16090  1.0000 -0.0884261019
C   C129      1.0  0.00090  0.55770  0.35670  1.0000 0.5508882891
C   C130      1.0  0.99910  0.05770  0.14330  1.0000 0.5508882891
C   C131      1.0  0.99910  0.44230  0.64330  1.0000 0.5508882891
C   C132      1.0  0.00090  0.94230  0.85670  1.0000 0.5508882891
C   C133      1.0  0.98870  0.45980  0.35340  1.0000 0.0304060376
C   C134      1.0  0.01130  0.95980  0.14660  1.0000 0.0304060376
C   C135      1.0  0.01130  0.54020  0.64660  1.0000 0.0304060376
C   C136      1.0  0.98870  0.04020  0.85340  1.0000 0.0304060376
C   C137      1.0  0.97850  0.41690  0.31260  1.0000 -0.0796348077
C   C138      1.0  0.02150  0.91690  0.18740  1.0000 -0.0796348077
C   C139      1.0  0.02150  0.58310  0.68740  1.0000 -0.0796348077
C   C140      1.0  0.97850  0.08310  0.81260  1.0000 -0.0796348077
C   C141      1.0  0.96210  0.32860  0.30580  1.0000 -0.0884261019
C   C142      1.0  0.03790  0.82860  0.19420  1.0000 -0.0884261019
C   C143      1.0  0.03790  0.67140  0.69420  1.0000 -0.0884261019
C   C144      1.0  0.96210  0.17140  0.80580  1.0000 -0.0884261019
C   C145      1.0  0.94930  0.28170  0.33380  1.0000 -0.0796348077
C   C146      1.0  0.05070  0.78170  0.16620  1.0000 -0.0796348077
C   C147      1.0  0.05070  0.71830  0.66620  1.0000 -0.0796348077
C   C148      1.0  0.94930  0.21830  0.83380  1.0000 -0.0796348077
C   C149      1.0  0.96140  0.32900  0.37240  1.0000 -0.0608615711
C   C150      1.0  0.03860  0.82900  0.12760  1.0000 -0.0608615711
C   C151      1.0  0.03860  0.67100  0.62760  1.0000 -0.0608615711
C   C152      1.0  0.96140  0.17100  0.87240  1.0000 -0.0608615711
C   C153      1.0  0.97930  0.41720  0.38250  1.0000 -0.0884261019
C   C154      1.0  0.02070  0.91720  0.11750  1.0000 -0.0884261019
C   C155      1.0  0.02070  0.58280  0.61750  1.0000 -0.0884261019
C   C156      1.0  0.97930  0.08280  0.88250  1.0000 -0.0884261019
C   C157      1.0  0.92850  0.19300  0.32530  1.0000 0.5109417106
C   C158      1.0  0.07150  0.69300  0.17470  1.0000 0.5109417106
C   C159      1.0  0.07150  0.80700  0.67470  1.0000 0.5109417106
C   C160      1.0  0.92850  0.30700  0.82530  1.0000 0.5109417106
O   O1        1.0  0.58730  0.73320  0.49950  1.0000 -0.6017495428
O   O2        1.0  0.41270  0.23320  0.00050  1.0000 -0.6017495428
O   O3        1.0  0.41270  0.26680  0.50050  1.0000 -0.6017495428
O   O4        1.0  0.58730  0.76680  0.99950  1.0000 -0.6017495428
O   O5        1.0  0.44800  0.74680  0.31880  1.0000 -0.1940264289
O   O6        1.0  0.55200  0.24680  0.18120  1.0000 -0.1940264289
O   O7        1.0  0.55200  0.25320  0.68120  1.0000 -0.1964338829
O   O8        1.0  0.44800  0.75320  0.81880  1.0000 -0.1964338829
O   O9        1.0  0.67720  0.73710  0.49510  1.0000 -0.5807438825
O   O10       1.0  0.32280  0.23710  0.00490  1.0000 -0.5807438825
O   O11       1.0  0.32280  0.26290  0.50490  1.0000 -0.5807438825
O   O12       1.0  0.67720  0.76290  0.99510  1.0000 -0.5807438825
O   O13       1.0  0.98050  0.89220  0.34480  1.0000 -0.0316590049
O   O14       1.0  0.01950  0.39220  0.15520  1.0000 -0.0316590049
O   O15       1.0  0.01950  0.10780  0.65520  1.0000 -0.0316590049
O   O16       1.0  0.98050  0.60780  0.84480  1.0000 -0.0316590049
O   O17       1.0  0.55150  0.88750  0.43080  1.0000 -0.6632663642
O   O18       1.0  0.44850  0.38750  0.06920  1.0000 -0.6632663642
O   O19       1.0  0.44850  0.11250  0.56920  1.0000 -0.6632663642
O   O20       1.0  0.55150  0.61250  0.93080  1.0000 -0.6632663642
O   O21       1.0  0.07080  0.76680  0.44740  1.0000 0.086130895
O   O22       1.0  0.92920  0.26680  0.05260  1.0000 0.086130895
O   O23       1.0  0.92920  0.23320  0.55260  1.0000 0.084780779
O   O24       1.0  0.07080  0.73320  0.94740  1.0000 0.084780779
O   O25       1.0  0.51290  0.01930  0.39830  1.0000 -0.3818734919
O   O26       1.0  0.48710  0.51930  0.10170  1.0000 -0.3818734919
O   O27       1.0  0.48710  0.98070  0.60170  1.0000 -0.3818734919
O   O28       1.0  0.51290  0.48070  0.89830  1.0000 -0.3818734919
O   O29       1.0  0.51480  0.59810  0.40970  1.0000 -0.6439005469
O   O30       1.0  0.48520  0.09810  0.09030  1.0000 -0.6439005469
O   O31       1.0  0.48520  0.40190  0.59030  1.0000 -0.6439005469
O   O32       1.0  0.51480  0.90190  0.90970  1.0000 -0.6439005469
O   O33       1.0  0.49570  0.45950  0.39080  1.0000 -0.411189269
O   O34       1.0  0.50430  0.95950  0.10920  1.0000 -0.411189269
O   O35       1.0  0.50430  0.54050  0.60920  1.0000 -0.411189269
O   O36       1.0  0.49570  0.04050  0.89080  1.0000 -0.411189269
O   O37       1.0  0.43010  0.76470  0.39630  1.0000 -0.6251553927
O   O38       1.0  0.56990  0.26470  0.10370  1.0000 -0.6251553927
O   O39       1.0  0.56990  0.23530  0.60370  1.0000 -0.6248339449
O   O40       1.0  0.43010  0.73530  0.89630  1.0000 -0.6248339449
O   O41       1.0  0.33030  0.76800  0.31290  1.0000 -0.3855403696
O   O42       1.0  0.66970  0.26800  0.18710  1.0000 -0.3855403696
O   O43       1.0  0.66970  0.23200  0.68710  1.0000 -0.3855403696
O   O44       1.0  0.33030  0.73200  0.81290  1.0000 -0.3855403696
O   O45       1.0  0.09680  0.75210  0.37420  1.0000 -0.5913644989
O   O46       1.0  0.90320  0.25210  0.12580  1.0000 -0.5913644989
O   O47       1.0  0.90320  0.24790  0.62580  1.0000 -0.5913644989
O   O48       1.0  0.09680  0.74790  0.87420  1.0000 -0.5913644989
O   O49       1.0  0.19750  0.74510  0.45880  1.0000 -0.4260888432
O   O50       1.0  0.80250  0.24510  0.04120  1.0000 -0.4260888432
O   O51       1.0  0.80250  0.25490  0.54120  1.0000 -0.4260888432
O   O52       1.0  0.19750  0.75490  0.95880  1.0000 -0.4260888432
O   O53       1.0  0.61740  0.66510  0.39200  1.0000 -0.5345289145
O   O54       1.0  0.38260  0.16510  0.10800  1.0000 -0.5345289145
O   O55       1.0  0.38260  0.33490  0.60800  1.0000 -0.5345289145
O   O56       1.0  0.61740  0.83490  0.89200  1.0000 -0.5345289145
O   O57       1.0  0.61930  0.80400  0.39200  1.0000 -0.5601332073
O   O58       1.0  0.38070  0.30400  0.10800  1.0000 -0.5601332073
O   O59       1.0  0.38070  0.19600  0.60800  1.0000 -0.5601332073
O   O60       1.0  0.61930  0.69600  0.89200  1.0000 -0.5601332073
O   O61       1.0  0.88520  0.66050  0.35660  1.0000 -0.5428460275
O   O62       1.0  0.11480  0.16050  0.14340  1.0000 -0.5428460275
O   O63       1.0  0.11480  0.33950  0.64340  1.0000 -0.5428460275
O   O64       1.0  0.88520  0.83950  0.85660  1.0000 -0.5428460275
O   O65       1.0  0.90360  0.79670  0.37430  1.0000 -0.5807438825
O   O66       1.0  0.09640  0.29670  0.12570  1.0000 -0.5807438825
O   O67       1.0  0.09640  0.20330  0.62570  1.0000 -0.5807438825
O   O68       1.0  0.90360  0.70330  0.87430  1.0000 -0.5807438825
O   O69       1.0  0.94800  0.74210  0.76810  1.0000 -0.5674690638
O   O70       1.0  0.05200  0.24210  0.73190  1.0000 -0.5674690638
O   O71       1.0  0.05200  0.25790  0.23190  1.0000 -0.5674690638
O   O72       1.0  0.94800  0.75790  0.26810  1.0000 -0.5674690638
O   O73       1.0  0.85280  0.74990  0.76810  1.0000 -0.5913644989
O   O74       1.0  0.14720  0.24990  0.73190  1.0000 -0.5913644989
O   O75       1.0  0.14720  0.25010  0.23190  1.0000 -0.5913644989
O   O76       1.0  0.85280  0.75010  0.26810  1.0000 -0.5913644989
O   O77       1.0  0.97170  0.59710  0.31700  1.0000 -0.5428460275
O   O78       1.0  0.02830  0.09710  0.18300  1.0000 -0.5450864468
O   O79       1.0  0.02830  0.40290  0.68300  1.0000 -0.5450864468
O   O80       1.0  0.97170  0.90290  0.81700  1.0000 -0.5428460275
O   O81       1.0  0.03290  0.59020  0.39960  1.0000 -0.5601332073
O   O82       1.0  0.96710  0.09020  0.10040  1.0000 -0.5601332073
O   O83       1.0  0.96710  0.40980  0.60040  1.0000 -0.5601332073
O   O84       1.0  0.03290  0.90980  0.89960  1.0000 -0.5601332073
O   O85       1.0  0.93570  0.14750  0.29990  1.0000 -0.3704087172
O   O86       1.0  0.06430  0.64750  0.20010  1.0000 -0.3704087172
O   O87       1.0  0.06430  0.85250  0.70010  1.0000 -0.3704087172
O   O88       1.0  0.93570  0.35250  0.79990  1.0000 -0.3704087172
O   O89       1.0  0.89310  0.16190  0.33950  1.0000 -0.3625986685
O   O90       1.0  0.10690  0.66190  0.16050  1.0000 -0.3625986685
O   O91       1.0  0.10690  0.83810  0.66050  1.0000 -0.3625986685
O   O92       1.0  0.89310  0.33810  0.83950  1.0000 -0.3625986685
