# DDEC6 charges by PACMAN v1.1 (https://github.com/mtap-research/PACMAN-charge/)
data_2012[Zn][nan]3[FSR]26
_chemical_formula_sum              "Zn8 H60 C56 N4 O32"
_cell_length_a       10.337
_cell_length_b       11.649
_cell_length_c       20.464
_cell_angle_alpha    90
_cell_angle_beta     90
_cell_angle_gamma    90

_symmetry_space_group_name_H-M    "P 1"
_symmetry_Int_Tables_number       1

loop_
  _symmetry_equiv_pos_as_xyz
  'x, y, z'

loop_
  _atom_site_type_symbol
  _atom_site_label
  _atom_site_symmetry_multiplicity
  _atom_site_fract_x
  _atom_site_fract_y
  _atom_site_fract_z
  _atom_site_occupancy
  _atom_site_charge
Zn  Zn1       1.0  0.04354  0.42234  0.99322  1.0000 0.9799685543
Zn  Zn2       1.0  0.45646  0.57766  0.49322  1.0000 0.9799685543
Zn  Zn3       1.0  0.95646  0.92234  0.50678  1.0000 0.9799685543
Zn  Zn4       1.0  0.54354  0.07766  0.00678  1.0000 0.9799685543
Zn  Zn5       1.0  0.35700  0.32479  0.99272  1.0000 0.949927873
Zn  Zn6       1.0  0.14300  0.67521  0.49272  1.0000 0.949927873
Zn  Zn7       1.0  0.64300  0.82479  0.50728  1.0000 0.949927873
Zn  Zn8       1.0  0.85700  0.17521  0.00728  1.0000 0.949927873
H   H1        1.0  0.05960  0.52740  0.18840  1.0000 0.1095377198
H   H2        1.0  0.44040  0.47260  0.68840  1.0000 0.1095377198
H   H3        1.0  0.94040  0.02740  0.31160  1.0000 0.1095377198
H   H4        1.0  0.55960  0.97260  0.81160  1.0000 0.1095377198
H   H5        1.0  0.43460  0.43850  0.18500  1.0000 0.1290048903
H   H6        1.0  0.06540  0.56150  0.68500  1.0000 0.1290048903
H   H7        1.0  0.56540  0.93850  0.31500  1.0000 0.1290048903
H   H8        1.0  0.93460  0.06150  0.81500  1.0000 0.1290048903
H   H9        1.0  0.07730  0.57430  0.29860  1.0000 0.1290048903
H   H10       1.0  0.42270  0.42570  0.79860  1.0000 0.1290048903
H   H11       1.0  0.92270  0.07430  0.20140  1.0000 0.1290048903
H   H12       1.0  0.57730  0.92570  0.70140  1.0000 0.1290048903
H   H13       1.0  0.45310  0.48440  0.29470  1.0000 0.1290048903
H   H14       1.0  0.04690  0.51560  0.79470  1.0000 0.1290048903
H   H15       1.0  0.54690  0.98440  0.20530  1.0000 0.1290048903
H   H16       1.0  0.95310  0.01560  0.70530  1.0000 0.1290048903
H   H17       1.0  0.26360  0.02540  0.00730  1.0000 0.0944335973
H   H18       1.0  0.23640  0.97460  0.50730  1.0000 0.0944335973
H   H19       1.0  0.73640  0.52540  0.49270  1.0000 0.0944335973
H   H20       1.0  0.76360  0.47460  0.99270  1.0000 0.0944335973
H   H21       1.0  0.35010  0.03920  0.11360  1.0000 0.1403148396
H   H22       1.0  0.14990  0.96080  0.61360  1.0000 0.1403148396
H   H23       1.0  0.64990  0.53920  0.38640  1.0000 0.1403148396
H   H24       1.0  0.85010  0.46080  0.88640  1.0000 0.1403148396
H   H25       1.0  0.19860  0.03850  0.11650  1.0000 0.1290048903
H   H26       1.0  0.30140  0.96150  0.61650  1.0000 0.1290048903
H   H27       1.0  0.80140  0.53850  0.38350  1.0000 0.1290048903
H   H28       1.0  0.69860  0.46150  0.88350  1.0000 0.1290048903
H   H29       1.0  0.27430  0.15410  0.12470  1.0000 0.1403148396
H   H30       1.0  0.22570  0.84590  0.62470  1.0000 0.1403148396
H   H31       1.0  0.72570  0.65410  0.37530  1.0000 0.1403148396
H   H32       1.0  0.77430  0.34590  0.87530  1.0000 0.1403148396
H   H33       1.0  0.04010  0.64350  0.07050  1.0000 0.1010057693
H   H34       1.0  0.45990  0.35650  0.57050  1.0000 0.1010057693
H   H35       1.0  0.95990  0.14350  0.42950  1.0000 0.1010057693
H   H36       1.0  0.54010  0.85650  0.92950  1.0000 0.1010057693
H   H37       1.0  0.82770  0.74160  0.95740  1.0000 0.1403148396
H   H38       1.0  0.67230  0.25840  0.45740  1.0000 0.1403148396
H   H39       1.0  0.17230  0.24160  0.54260  1.0000 0.1403148396
H   H40       1.0  0.32770  0.75840  0.04260  1.0000 0.1403148396
H   H41       1.0  0.86870  0.87000  0.96750  1.0000 0.1500582015
H   H42       1.0  0.63130  0.13000  0.46750  1.0000 0.1500582015
H   H43       1.0  0.13130  0.37000  0.53250  1.0000 0.1500582015
H   H44       1.0  0.36870  0.63000  0.03250  1.0000 0.1500582015
H   H45       1.0  0.75690  0.81720  0.00970  1.0000 0.1403148396
H   H46       1.0  0.74310  0.18280  0.50970  1.0000 0.1403148396
H   H47       1.0  0.24310  0.31720  0.49030  1.0000 0.1403148396
H   H48       1.0  0.25690  0.68280  0.99030  1.0000 0.1403148396
H   H49       1.0  0.02690  0.81710  0.11770  1.0000 0.1290048903
H   H50       1.0  0.47310  0.18290  0.61770  1.0000 0.1290048903
H   H51       1.0  0.97310  0.31710  0.38230  1.0000 0.1290048903
H   H52       1.0  0.52690  0.68290  0.88230  1.0000 0.1290048903
H   H53       1.0  0.88600  0.86630  0.11340  1.0000 0.1403148396
H   H54       1.0  0.61400  0.13370  0.61340  1.0000 0.1403148396
H   H55       1.0  0.11400  0.36630  0.38660  1.0000 0.1403148396
H   H56       1.0  0.38600  0.63370  0.88660  1.0000 0.1403148396
H   H57       1.0  0.99580  0.91790  0.06950  1.0000 0.1500582015
H   H58       1.0  0.50420  0.08210  0.56950  1.0000 0.1500582015
H   H59       1.0  0.00420  0.41790  0.43050  1.0000 0.1500582015
H   H60       1.0  0.49580  0.58210  0.93050  1.0000 0.1500582015
C   C1        1.0  0.23290  0.44670  0.10468  1.0000 0.5828192895
C   C2        1.0  0.26710  0.55330  0.60468  1.0000 0.5828192895
C   C3        1.0  0.76710  0.94670  0.39532  1.0000 0.5828192895
C   C4        1.0  0.73290  0.05330  0.89532  1.0000 0.5828192895
C   C5        1.0  0.24540  0.47780  0.17575  1.0000 -0.0331490627
C   C6        1.0  0.25460  0.52220  0.67575  1.0000 -0.0331490627
C   C7        1.0  0.75460  0.97780  0.32425  1.0000 -0.0331490627
C   C8        1.0  0.74540  0.02220  0.82425  1.0000 -0.0331490627
C   C9        1.0  0.13840  0.51870  0.20975  1.0000 -0.1153599219
C   C10       1.0  0.36160  0.48130  0.70975  1.0000 -0.1153599219
C   C11       1.0  0.86160  0.01870  0.29025  1.0000 -0.1153599219
C   C12       1.0  0.63840  0.98130  0.79025  1.0000 -0.1153599219
C   C13       1.0  0.36290  0.46540  0.20773  1.0000 -0.1048827404
C   C14       1.0  0.13710  0.53460  0.70773  1.0000 -0.1048827404
C   C15       1.0  0.63710  0.96540  0.29227  1.0000 -0.1048827404
C   C16       1.0  0.86290  0.03460  0.79227  1.0000 -0.1048827404
C   C17       1.0  0.14890  0.54670  0.27605  1.0000 -0.1091799931
C   C18       1.0  0.35110  0.45330  0.77605  1.0000 -0.1091799931
C   C19       1.0  0.85110  0.04670  0.22395  1.0000 -0.1091799931
C   C20       1.0  0.64890  0.95330  0.72395  1.0000 -0.1091799931
C   C21       1.0  0.37400  0.49290  0.27356  1.0000 -0.1091799931
C   C22       1.0  0.12600  0.50710  0.77356  1.0000 -0.1091799931
C   C23       1.0  0.62600  0.99290  0.22644  1.0000 -0.1091799931
C   C24       1.0  0.87400  0.00710  0.72644  1.0000 -0.1091799931
C   C25       1.0  0.26660  0.53320  0.30809  1.0000 -0.0331490627
C   C26       1.0  0.23340  0.46680  0.80809  1.0000 -0.0331490627
C   C27       1.0  0.73340  0.03320  0.19191  1.0000 -0.0331490627
C   C28       1.0  0.76660  0.96680  0.69191  1.0000 -0.0331490627
C   C29       1.0  0.27720  0.56200  0.37939  1.0000 0.5828192895
C   C30       1.0  0.22280  0.43800  0.87939  1.0000 0.5828192895
C   C31       1.0  0.72280  0.06200  0.12061  1.0000 0.5828192895
C   C32       1.0  0.77720  0.93800  0.62061  1.0000 0.5828192895
C   C33       1.0  0.14600  0.16700  0.01210  1.0000 0.5861281371
C   C34       1.0  0.35400  0.83300  0.51210  1.0000 0.5861281371
C   C35       1.0  0.85400  0.66700  0.48790  1.0000 0.5861281371
C   C36       1.0  0.64600  0.33300  0.98790  1.0000 0.5861281371
C   C37       1.0  0.26760  0.10040  0.02896  1.0000 0.1095377198
C   C38       1.0  0.23240  0.89960  0.52896  1.0000 0.1095377198
C   C39       1.0  0.73240  0.60040  0.47104  1.0000 0.1095377198
C   C40       1.0  0.76760  0.39960  0.97104  1.0000 0.1095377198
C   C41       1.0  0.27320  0.08130  0.10280  1.0000 -0.462683999
C   C42       1.0  0.22680  0.91870  0.60280  1.0000 -0.462683999
C   C43       1.0  0.72680  0.58130  0.39720  1.0000 -0.462683999
C   C44       1.0  0.77320  0.41870  0.89720  1.0000 -0.462683999
C   C45       1.0  0.98320  0.66280  0.03705  1.0000 0.286887533
C   C46       1.0  0.51680  0.33720  0.53705  1.0000 0.286887533
C   C47       1.0  0.01680  0.16280  0.46295  1.0000 0.286887533
C   C48       1.0  0.48320  0.83720  0.96295  1.0000 0.286887533
C   C49       1.0  0.83840  0.80180  0.98900  1.0000 -0.3399813408
C   C50       1.0  0.66160  0.19820  0.48900  1.0000 -0.3399813408
C   C51       1.0  0.16160  0.30180  0.51100  1.0000 -0.3399813408
C   C52       1.0  0.33840  0.69820  0.01100  1.0000 -0.3399813408
C   C53       1.0  0.96280  0.84890  0.08900  1.0000 -0.3487339476
C   C54       1.0  0.53720  0.15110  0.58900  1.0000 -0.3487339476
C   C55       1.0  0.03720  0.34890  0.41100  1.0000 -0.3487339476
C   C56       1.0  0.46280  0.65110  0.91100  1.0000 -0.3487339476
N   N1        1.0  0.93220  0.76630  0.03800  1.0000 0.0331194652
N   N2        1.0  0.56780  0.23370  0.53800  1.0000 0.0331194652
N   N3        1.0  0.06780  0.26630  0.46200  1.0000 0.0331194652
N   N4        1.0  0.43220  0.73370  0.96200  1.0000 0.0331194652
O   O1        1.0  0.33290  0.41410  0.07553  1.0000 -0.5420408779
O   O2        1.0  0.16710  0.58590  0.57553  1.0000 -0.5420408779
O   O3        1.0  0.66710  0.91410  0.42447  1.0000 -0.5420408779
O   O4        1.0  0.83290  0.08590  0.92447  1.0000 -0.5420408779
O   O5        1.0  0.12190  0.45790  0.07990  1.0000 -0.5772737199
O   O6        1.0  0.37810  0.54210  0.57990  1.0000 -0.5772737199
O   O7        1.0  0.87810  0.95790  0.42010  1.0000 -0.5772737199
O   O8        1.0  0.62190  0.04210  0.92010  1.0000 -0.5772737199
O   O9        1.0  0.38180  0.53530  0.40725  1.0000 -0.562518158
O   O10       1.0  0.11820  0.46470  0.90725  1.0000 -0.562518158
O   O11       1.0  0.61820  0.03530  0.09275  1.0000 -0.562518158
O   O12       1.0  0.88180  0.96470  0.59275  1.0000 -0.562518158
O   O13       1.0  0.18000  0.60880  0.40491  1.0000 -0.5420408779
O   O14       1.0  0.32000  0.39120  0.90491  1.0000 -0.5420408779
O   O15       1.0  0.82000  0.10880  0.09509  1.0000 -0.5420408779
O   O16       1.0  0.68000  0.89120  0.59509  1.0000 -0.5420408779
O   O17       1.0  0.15860  0.27080  0.99465  1.0000 -0.585282811
O   O18       1.0  0.34140  0.72920  0.49465  1.0000 -0.585282811
O   O19       1.0  0.84140  0.77080  0.50535  1.0000 -0.585282811
O   O20       1.0  0.65860  0.22920  0.00535  1.0000 -0.585282811
O   O21       1.0  0.04030  0.11560  0.01848  1.0000 -0.5246620411
O   O22       1.0  0.45970  0.88440  0.51848  1.0000 -0.5246620411
O   O23       1.0  0.95970  0.61560  0.48152  1.0000 -0.5246620411
O   O24       1.0  0.54030  0.38440  0.98152  1.0000 -0.5246620411
O   O25       1.0  0.38010  0.15880  0.00706  1.0000 -0.6206145817
O   O26       1.0  0.11990  0.84120  0.50706  1.0000 -0.6206145817
O   O27       1.0  0.61990  0.65880  0.49294  1.0000 -0.6206145817
O   O28       1.0  0.88010  0.34120  0.99294  1.0000 -0.6206145817
O   O29       1.0  0.96080  0.58920  0.99478  1.0000 -0.4521668712
O   O30       1.0  0.53920  0.41080  0.49478  1.0000 -0.4521668712
O   O31       1.0  0.03920  0.08920  0.50522  1.0000 -0.4521668712
O   O32       1.0  0.46080  0.91080  0.00522  1.0000 -0.4521668712
