# DDEC6 charges by PACMAN v1.1 (https://github.com/mtap-research/PACMAN-charge/)
data_2012[U][nan]3[FSR]3
_chemical_formula_sum              "U12 P16 H32 C48 O76 F4"
_cell_length_a       11.248
_cell_length_b       20.8734
_cell_length_c       15.9501
_cell_angle_alpha    90
_cell_angle_beta     117.537
_cell_angle_gamma    90

_symmetry_space_group_name_H-M    "P 1"
_symmetry_Int_Tables_number       1

loop_
  _symmetry_equiv_pos_as_xyz
  'x, y, z'

loop_
  _atom_site_type_symbol
  _atom_site_label
  _atom_site_symmetry_multiplicity
  _atom_site_fract_x
  _atom_site_fract_y
  _atom_site_fract_z
  _atom_site_occupancy
  _atom_site_charge
U   U1        1.0  0.21843  0.22522  0.44121  1.0000 2.6025438926
U   U2        1.0  0.78157  0.72522  0.05879  1.0000 2.6025438926
U   U3        1.0  0.78157  0.77478  0.55879  1.0000 2.6025438926
U   U4        1.0  0.21843  0.27478  0.94121  1.0000 2.6025438926
U   U5        1.0  0.50183  0.01483  0.62716  1.0000 2.6025438926
U   U6        1.0  0.49817  0.51483  0.87284  1.0000 2.6025438926
U   U7        1.0  0.49817  0.98517  0.37284  1.0000 2.6025438926
U   U8        1.0  0.50183  0.48517  0.12716  1.0000 2.6025438926
U   U9        1.0  0.38711  0.41889  0.46367  1.0000 2.5858528933
U   U10       1.0  0.61289  0.91889  0.03633  1.0000 2.5858528933
U   U11       1.0  0.61289  0.58111  0.53633  1.0000 2.5858528933
U   U12       1.0  0.38711  0.08111  0.96367  1.0000 2.5858528933
P   P1        1.0  0.21649  0.11596  0.61463  1.0000 1.3478786073
P   P2        1.0  0.78351  0.61596  0.88537  1.0000 1.3478786073
P   P3        1.0  0.78351  0.88404  0.38537  1.0000 1.3478786073
P   P4        1.0  0.21649  0.38404  0.11463  1.0000 1.3478786073
P   P5        1.0  0.57618  0.44694  0.37176  1.0000 1.3634906135
P   P6        1.0  0.42382  0.94694  0.12824  1.0000 1.3634906135
P   P7        1.0  0.42382  0.55306  0.62824  1.0000 1.3634906135
P   P8        1.0  0.57618  0.05306  0.87176  1.0000 1.3634906135
P   P9        1.0  0.74997  0.94630  0.62360  1.0000 1.3478786073
P   P10       1.0  0.25003  0.44630  0.87640  1.0000 1.3478786073
P   P11       1.0  0.25003  0.05370  0.37640  1.0000 1.3478786073
P   P12       1.0  0.74997  0.55370  0.12360  1.0000 1.3478786073
P   P13       1.0  0.19224  0.36435  0.57513  1.0000 1.3387762627
P   P14       1.0  0.80776  0.86435  0.92487  1.0000 1.3387762627
P   P15       1.0  0.80776  0.63565  0.42487  1.0000 1.3387762627
P   P16       1.0  0.19224  0.13565  0.07513  1.0000 1.3387762627
H   H1        1.0  0.96570  0.14290  0.61340  1.0000 0.1406102208
H   H2        1.0  0.03430  0.64290  0.88660  1.0000 0.1406102208
H   H3        1.0  0.03430  0.85710  0.38660  1.0000 0.1406102208
H   H4        1.0  0.96570  0.35710  0.11340  1.0000 0.1406102208
H   H5        1.0  0.79540  0.08150  0.61560  1.0000 0.1406102208
H   H6        1.0  0.20460  0.58150  0.88440  1.0000 0.1406102208
H   H7        1.0  0.20460  0.91850  0.38440  1.0000 0.1406102208
H   H8        1.0  0.79540  0.41850  0.11560  1.0000 0.1406102208
H   H9        1.0  0.00510  0.92140  0.63530  1.0000 0.1472960582
H   H10       1.0  0.99490  0.42140  0.86470  1.0000 0.1472960582
H   H11       1.0  0.99490  0.07860  0.36470  1.0000 0.1472960582
H   H12       1.0  0.00510  0.57860  0.13530  1.0000 0.1472960582
H   H13       1.0  0.17630  0.98360  0.63360  1.0000 0.1406102208
H   H14       1.0  0.82370  0.48360  0.86640  1.0000 0.1406102208
H   H15       1.0  0.82370  0.01640  0.36640  1.0000 0.1406102208
H   H16       1.0  0.17630  0.51640  0.13360  1.0000 0.1406102208
H   H17       1.0  0.74750  0.38270  0.54420  1.0000 0.1406102208
H   H18       1.0  0.25250  0.88270  0.95580  1.0000 0.1406102208
H   H19       1.0  0.25250  0.61730  0.45580  1.0000 0.1406102208
H   H20       1.0  0.74750  0.11730  0.04420  1.0000 0.1406102208
H   H21       1.0  0.97350  0.35350  0.62060  1.0000 0.1320421419
H   H22       1.0  0.02650  0.85350  0.87940  1.0000 0.1320421419
H   H23       1.0  0.02650  0.64650  0.37940  1.0000 0.1320421419
H   H24       1.0  0.97350  0.14650  0.12060  1.0000 0.1320421419
H   H25       1.0  0.02260  0.42860  0.40620  1.0000 0.1406102208
H   H26       1.0  0.97740  0.92860  0.09380  1.0000 0.1406102208
H   H27       1.0  0.97740  0.57140  0.59380  1.0000 0.1406102208
H   H28       1.0  0.02260  0.07140  0.90620  1.0000 0.1406102208
H   H29       1.0  0.79640  0.45790  0.32920  1.0000 0.1406102208
H   H30       1.0  0.20360  0.95790  0.17080  1.0000 0.1406102208
H   H31       1.0  0.20360  0.54210  0.67080  1.0000 0.1406102208
H   H32       1.0  0.79640  0.04210  0.82920  1.0000 0.1406102208
C   C1        1.0  0.08850  0.06980  0.62340  1.0000 -0.134018583
C   C2        1.0  0.91150  0.56980  0.87660  1.0000 -0.134018583
C   C3        1.0  0.91150  0.93020  0.37660  1.0000 -0.134018583
C   C4        1.0  0.08850  0.43020  0.12340  1.0000 -0.134018583
C   C5        1.0  0.97500  0.09760  0.61820  1.0000 -0.056246327
C   C6        1.0  0.02500  0.59760  0.88180  1.0000 -0.056246327
C   C7        1.0  0.02500  0.90240  0.38180  1.0000 -0.0483673542
C   C8        1.0  0.97500  0.40240  0.11820  1.0000 -0.0483673542
C   C9        1.0  0.87330  0.06100  0.61960  1.0000 -0.0483673542
C   C10       1.0  0.12670  0.56100  0.88040  1.0000 -0.0483673542
C   C11       1.0  0.12670  0.93900  0.38040  1.0000 -0.0483673542
C   C12       1.0  0.87330  0.43900  0.11960  1.0000 -0.0483673542
C   C13       1.0  0.88420  0.99480  0.62680  1.0000 -0.1439853234
C   C14       1.0  0.11580  0.49480  0.87320  1.0000 -0.1439853234
C   C15       1.0  0.11580  0.00520  0.37320  1.0000 -0.1439853234
C   C16       1.0  0.88420  0.50520  0.12680  1.0000 -0.1439853234
C   C17       1.0  0.99640  0.96680  0.63130  1.0000 -0.0483673542
C   C18       1.0  0.00360  0.46680  0.86870  1.0000 -0.0483673542
C   C19       1.0  0.00360  0.03320  0.36870  1.0000 -0.0483673542
C   C20       1.0  0.99640  0.53320  0.13130  1.0000 -0.0483673542
C   C21       1.0  0.09850  0.00400  0.62990  1.0000 -0.0407820576
C   C22       1.0  0.90150  0.50400  0.87010  1.0000 -0.0407820576
C   C23       1.0  0.90150  0.99600  0.37010  1.0000 -0.0407820576
C   C24       1.0  0.09850  0.49600  0.12990  1.0000 -0.0407820576
C   C25       1.0  0.74860  0.42280  0.42940  1.0000 -0.1439853234
C   C26       1.0  0.25140  0.92280  0.07060  1.0000 -0.1439853234
C   C27       1.0  0.25140  0.57720  0.57060  1.0000 -0.1439853234
C   C28       1.0  0.74860  0.07720  0.92940  1.0000 -0.1439853234
C   C29       1.0  0.80290  0.39210  0.51540  1.0000 -0.0407820576
C   C30       1.0  0.19710  0.89210  0.98460  1.0000 -0.0407820576
C   C31       1.0  0.19710  0.60790  0.48460  1.0000 -0.0407820576
C   C32       1.0  0.80290  0.10790  0.01540  1.0000 -0.0407820576
C   C33       1.0  0.93780  0.37450  0.56100  1.0000 -0.0407820576
C   C34       1.0  0.06220  0.87450  0.93900  1.0000 -0.0483673542
C   C35       1.0  0.06220  0.62550  0.43900  1.0000 -0.0483673542
C   C36       1.0  0.93780  0.12550  0.06100  1.0000 -0.0483673542
C   C37       1.0  0.01970  0.38730  0.52010  1.0000 -0.1473482342
C   C38       1.0  0.98030  0.88730  0.97990  1.0000 -0.1473482342
C   C39       1.0  0.98030  0.61270  0.47990  1.0000 -0.1473482342
C   C40       1.0  0.01970  0.11270  0.02010  1.0000 -0.1473482342
C   C41       1.0  0.96660  0.41880  0.43440  1.0000 -0.0483673542
C   C42       1.0  0.03340  0.91880  0.06560  1.0000 -0.0483673542
C   C43       1.0  0.03340  0.58120  0.56560  1.0000 -0.0483673542
C   C44       1.0  0.96660  0.08120  0.93440  1.0000 -0.0483673542
C   C45       1.0  0.83170  0.43650  0.38840  1.0000 -0.0258385853
C   C46       1.0  0.16830  0.93650  0.11160  1.0000 -0.0241581131
C   C47       1.0  0.16830  0.56350  0.61160  1.0000 -0.0241581131
C   C48       1.0  0.83170  0.06350  0.88840  1.0000 -0.0241581131
O   O1        1.0  0.39460  0.21319  0.52170  1.0000 -0.6966348568
O   O2        1.0  0.60540  0.71319  0.97830  1.0000 -0.6966348568
O   O3        1.0  0.60540  0.78681  0.47830  1.0000 -0.6966348568
O   O4        1.0  0.39460  0.28681  0.02170  1.0000 -0.6966348568
O   O5        1.0  0.04370  0.23780  0.36170  1.0000 -0.6804854551
O   O6        1.0  0.95630  0.73780  0.13830  1.0000 -0.6804854551
O   O7        1.0  0.95630  0.76220  0.63830  1.0000 -0.6804854551
O   O8        1.0  0.04370  0.26220  0.86170  1.0000 -0.6804854551
O   O9        1.0  0.41770  0.93977  0.61340  1.0000 -0.6490355676
O   O10       1.0  0.58230  0.43977  0.88660  1.0000 -0.6490355676
O   O11       1.0  0.58230  0.06023  0.38660  1.0000 -0.6490355676
O   O12       1.0  0.41770  0.56023  0.11340  1.0000 -0.6490355676
O   O13       1.0  0.58960  0.08917  0.64090  1.0000 -0.6596089367
O   O14       1.0  0.41040  0.58917  0.85910  1.0000 -0.6596089367
O   O15       1.0  0.41040  0.91083  0.35910  1.0000 -0.6596089367
O   O16       1.0  0.58960  0.41083  0.14090  1.0000 -0.6596089367
O   O17       1.0  0.25560  0.46137  0.37090  1.0000 -0.6490355676
O   O18       1.0  0.74440  0.96137  0.12910  1.0000 -0.6490355676
O   O19       1.0  0.74440  0.53863  0.62910  1.0000 -0.6490355676
O   O20       1.0  0.25560  0.03863  0.87090  1.0000 -0.6490355676
O   O21       1.0  0.52090  0.37521  0.55440  1.0000 -0.6596089367
O   O22       1.0  0.47910  0.87521  0.94560  1.0000 -0.6596089367
O   O23       1.0  0.47910  0.62479  0.44560  1.0000 -0.6596089367
O   O24       1.0  0.52090  0.12479  0.05440  1.0000 -0.6490355676
O   O25       1.0  0.26010  0.23107  0.30040  1.0000 0.2296730053
O   O26       1.0  0.73990  0.73107  0.19960  1.0000 0.2296730053
O   O27       1.0  0.73990  0.76893  0.69960  1.0000 0.2296730053
O   O28       1.0  0.26010  0.26893  0.80040  1.0000 0.2247239969
O   O29       1.0  0.15080  0.16124  0.53170  1.0000 -0.7974828758
O   O30       1.0  0.84920  0.66124  0.96830  1.0000 -0.7974828758
O   O31       1.0  0.84920  0.83876  0.46830  1.0000 -0.7974828758
O   O32       1.0  0.15080  0.33876  0.03170  1.0000 -0.7974828758
O   O33       1.0  0.31680  0.06967  0.61080  1.0000 -0.7974828758
O   O34       1.0  0.68320  0.56967  0.88920  1.0000 -0.7974828758
O   O35       1.0  0.68320  0.93033  0.38920  1.0000 -0.7974828758
O   O36       1.0  0.31680  0.43033  0.11080  1.0000 -0.7974828758
O   O37       1.0  0.28770  0.15786  0.70720  1.0000 -0.5762935707
O   O38       1.0  0.71230  0.65786  0.79280  1.0000 -0.5762935707
O   O39       1.0  0.71230  0.84214  0.29280  1.0000 -0.5762935707
O   O40       1.0  0.28770  0.34214  0.20720  1.0000 -0.5762935707
O   O41       1.0  0.54920  0.48246  0.28300  1.0000 -0.7547305247
O   O42       1.0  0.45080  0.98246  0.21700  1.0000 -0.755732862
O   O43       1.0  0.45080  0.51754  0.71700  1.0000 -0.7547305247
O   O44       1.0  0.54920  0.01754  0.78300  1.0000 -0.7547305247
O   O45       1.0  0.48380  0.38875  0.35690  1.0000 -0.7236194739
O   O46       1.0  0.51620  0.88875  0.14310  1.0000 -0.7236194739
O   O47       1.0  0.51620  0.61125  0.64310  1.0000 -0.7236194739
O   O48       1.0  0.48380  0.11125  0.85690  1.0000 -0.7236194739
O   O49       1.0  0.55040  0.48780  0.44260  1.0000 -0.8719516227
O   O50       1.0  0.44960  0.98780  0.05740  1.0000 -0.8719516227
O   O51       1.0  0.44960  0.51220  0.55740  1.0000 -0.8719516227
O   O52       1.0  0.55040  0.01220  0.94260  1.0000 -0.8719516227
O   O53       1.0  0.72420  0.96208  0.70860  1.0000 -0.7117261568
O   O54       1.0  0.27580  0.46208  0.79140  1.0000 -0.7117261568
O   O55       1.0  0.27580  0.03792  0.29140  1.0000 -0.7117261568
O   O56       1.0  0.72420  0.53792  0.20860  1.0000 -0.7117261568
O   O57       1.0  0.61840  0.96948  0.53940  1.0000 -0.8857335129
O   O58       1.0  0.38160  0.46948  0.96060  1.0000 -0.8857335129
O   O59       1.0  0.38160  0.03052  0.46060  1.0000 -0.8857335129
O   O60       1.0  0.61840  0.53052  0.03940  1.0000 -0.8857335129
O   O61       1.0  0.78460  0.87749  0.62010  1.0000 -0.7547305247
O   O62       1.0  0.21540  0.37749  0.87990  1.0000 -0.7547305247
O   O63       1.0  0.21540  0.12251  0.37990  1.0000 -0.7547305247
O   O64       1.0  0.78460  0.62251  0.12010  1.0000 -0.7547305247
O   O65       1.0  0.24220  0.36661  0.68480  1.0000 -0.5294648686
O   O66       1.0  0.75780  0.86661  0.81520  1.0000 -0.5294648686
O   O67       1.0  0.75780  0.63339  0.31520  1.0000 -0.5294648686
O   O68       1.0  0.24220  0.13339  0.18480  1.0000 -0.5294648686
O   O69       1.0  0.20610  0.29606  0.55100  1.0000 -0.8078725913
O   O70       1.0  0.79390  0.79606  0.94900  1.0000 -0.8078725913
O   O71       1.0  0.79390  0.70394  0.44900  1.0000 -0.8078725913
O   O72       1.0  0.20610  0.20394  0.05100  1.0000 -0.8078725913
O   O73       1.0  0.26660  0.41297  0.54590  1.0000 -0.7974828758
O   O74       1.0  0.73340  0.91297  0.95410  1.0000 -0.7974828758
O   O75       1.0  0.73340  0.58703  0.45410  1.0000 -0.7974828758
O   O76       1.0  0.26660  0.08703  0.04590  1.0000 -0.7974828758
F   F1        1.0  0.27210  0.32695  0.40560  1.0000 -0.6204522678
F   F2        1.0  0.72790  0.82695  0.09440  1.0000 -0.6204522678
F   F3        1.0  0.72790  0.67305  0.59440  1.0000 -0.6204522678
F   F4        1.0  0.27210  0.17305  0.90560  1.0000 -0.6204522678
