# DDEC6 charges by PACMAN v1.1 (https://github.com/mtap-research/PACMAN-charge/)
data_2012[Cd][nan]3[FSR]2
_chemical_formula_sum              "Cd6 H68 C108 N4 O24"
_cell_length_a       13.3185
_cell_length_b       9.4298
_cell_length_c       25.8321
_cell_angle_alpha    90
_cell_angle_beta     116.342
_cell_angle_gamma    90

_symmetry_space_group_name_H-M    "P 1"
_symmetry_Int_Tables_number       1

loop_
  _symmetry_equiv_pos_as_xyz
  'x, y, z'

loop_
  _atom_site_type_symbol
  _atom_site_label
  _atom_site_symmetry_multiplicity
  _atom_site_fract_x
  _atom_site_fract_y
  _atom_site_fract_z
  _atom_site_occupancy
  _atom_site_charge
Cd  Cd1       1.0  0.07287  0.34797  0.04541  1.0000 0.9131527573
Cd  Cd2       1.0  0.92713  0.34797  0.45459  1.0000 0.9131527573
Cd  Cd3       1.0  0.92713  0.65203  0.95459  1.0000 0.9131527573
Cd  Cd4       1.0  0.07287  0.65203  0.54541  1.0000 0.9131527573
Cd  Cd5       1.0  0.00000  0.00000  0.50000  1.0000 1.0993877679
Cd  Cd6       1.0  0.00000  0.00000  0.00000  1.0000 1.0993877679
H   H1        1.0  0.61210  0.14710  0.27650  1.0000 0.1207694735
H   H2        1.0  0.38790  0.14710  0.22350  1.0000 0.1207694735
H   H3        1.0  0.38790  0.85290  0.72350  1.0000 0.1207694735
H   H4        1.0  0.61210  0.85290  0.77650  1.0000 0.1207694735
H   H5        1.0  0.54280  0.98400  0.20290  1.0000 0.1113819241
H   H6        1.0  0.45720  0.98400  0.29710  1.0000 0.1113819241
H   H7        1.0  0.45720  0.01600  0.79710  1.0000 0.1113819241
H   H8        1.0  0.54280  0.01600  0.70290  1.0000 0.1113819241
H   H9        1.0  0.80330  0.73770  0.28800  1.0000 0.1113819241
H   H10       1.0  0.19670  0.73770  0.21200  1.0000 0.1113819241
H   H11       1.0  0.19670  0.26230  0.71200  1.0000 0.1113819241
H   H12       1.0  0.80330  0.26230  0.78800  1.0000 0.1113819241
H   H13       1.0  0.87130  0.89640  0.36320  1.0000 0.1207694735
H   H14       1.0  0.12870  0.89640  0.13680  1.0000 0.1207694735
H   H15       1.0  0.12870  0.10360  0.63680  1.0000 0.1207694735
H   H16       1.0  0.87130  0.10360  0.86320  1.0000 0.1207694735
H   H17       1.0  0.65050  0.64420  0.20720  1.0000 0.1113819241
H   H18       1.0  0.34950  0.64420  0.29280  1.0000 0.1113819241
H   H19       1.0  0.34950  0.35580  0.79280  1.0000 0.1113819241
H   H20       1.0  0.65050  0.35580  0.70720  1.0000 0.1113819241
H   H21       1.0  0.72390  0.96340  0.16320  1.0000 0.1207694735
H   H22       1.0  0.27610  0.96340  0.33680  1.0000 0.1207694735
H   H23       1.0  0.27610  0.03660  0.83680  1.0000 0.1207694735
H   H24       1.0  0.72390  0.03660  0.66320  1.0000 0.1207694735
H   H25       1.0  0.82050  0.98170  0.10800  1.0000 0.1207694735
H   H26       1.0  0.17950  0.98170  0.39200  1.0000 0.1207694735
H   H27       1.0  0.17950  0.01830  0.89200  1.0000 0.1207694735
H   H28       1.0  0.82050  0.01830  0.60800  1.0000 0.1207694735
H   H29       1.0  0.78030  0.57040  0.07530  1.0000 0.1207694735
H   H30       1.0  0.21970  0.57040  0.42470  1.0000 0.1207694735
H   H31       1.0  0.21970  0.42960  0.92470  1.0000 0.1207694735
H   H32       1.0  0.78030  0.42960  0.57530  1.0000 0.1207694735
H   H33       1.0  0.68910  0.54940  0.13130  1.0000 0.1207694735
H   H34       1.0  0.31090  0.54940  0.36870  1.0000 0.1207694735
H   H35       1.0  0.31090  0.45060  0.86870  1.0000 0.1207694735
H   H36       1.0  0.68910  0.45060  0.63130  1.0000 0.1207694735
H   H37       1.0  0.47690  0.56230  0.18860  1.0000 0.1207694735
H   H38       1.0  0.52310  0.56230  0.31140  1.0000 0.1207694735
H   H39       1.0  0.52310  0.43770  0.81140  1.0000 0.1207694735
H   H40       1.0  0.47690  0.43770  0.68860  1.0000 0.1207694735
H   H41       1.0  0.28720  0.53990  0.12860  1.0000 0.1207694735
H   H42       1.0  0.71280  0.53990  0.37140  1.0000 0.1207694735
H   H43       1.0  0.71280  0.46010  0.87140  1.0000 0.1207694735
H   H44       1.0  0.28720  0.46010  0.62860  1.0000 0.1207694735
H   H45       1.0  0.30070  0.88410  0.04130  1.0000 0.1289243244
H   H46       1.0  0.69930  0.88410  0.45870  1.0000 0.1289243244
H   H47       1.0  0.69930  0.11590  0.95870  1.0000 0.1289243244
H   H48       1.0  0.30070  0.11590  0.54130  1.0000 0.1289243244
H   H49       1.0  0.49020  0.90090  0.09970  1.0000 0.1207694735
H   H50       1.0  0.50980  0.90090  0.40030  1.0000 0.1207694735
H   H51       1.0  0.50980  0.09910  0.90030  1.0000 0.1207694735
H   H52       1.0  0.49020  0.09910  0.59970  1.0000 0.1207694735
H   H53       1.0  0.07170  0.57470  0.13890  1.0000 0.0995788381
H   H54       1.0  0.92830  0.57470  0.36110  1.0000 0.0995788381
H   H55       1.0  0.92830  0.42530  0.86110  1.0000 0.0995788381
H   H56       1.0  0.07170  0.42530  0.63890  1.0000 0.0995788381
H   H57       1.0  0.05650  0.58550  0.22370  1.0000 0.1289243244
H   H58       1.0  0.94350  0.58550  0.27630  1.0000 0.1289243244
H   H59       1.0  0.94350  0.41450  0.77630  1.0000 0.1289243244
H   H60       1.0  0.05650  0.41450  0.72370  1.0000 0.1289243244
H   H61       1.0  0.94160  0.18960  0.19630  1.0000 0.1369651214
H   H62       1.0  0.05840  0.18960  0.30370  1.0000 0.1369651214
H   H63       1.0  0.05840  0.81040  0.80370  1.0000 0.1369651214
H   H64       1.0  0.94160  0.81040  0.69630  1.0000 0.1369651214
H   H65       1.0  0.95070  0.19400  0.11030  1.0000 0.1113819241
H   H66       1.0  0.04930  0.19400  0.38970  1.0000 0.1113819241
H   H67       1.0  0.04930  0.80600  0.88970  1.0000 0.1113819241
H   H68       1.0  0.95070  0.80600  0.61030  1.0000 0.1113819241
C   C1        1.0  0.79680  0.14700  0.37441  1.0000 0.5685374767
C   C2        1.0  0.20320  0.14700  0.12559  1.0000 0.5685374767
C   C3        1.0  0.20320  0.85300  0.62559  1.0000 0.5685374767
C   C4        1.0  0.79680  0.85300  0.87441  1.0000 0.5685374767
C   C5        1.0  0.74840  0.04040  0.32693  1.0000 -0.0256377988
C   C6        1.0  0.25160  0.04040  0.17307  1.0000 -0.0256377988
C   C7        1.0  0.25160  0.95960  0.67307  1.0000 -0.0256377988
C   C8        1.0  0.74840  0.95960  0.82693  1.0000 -0.0256377988
C   C9        1.0  0.65170  0.06380  0.27950  1.0000 -0.0997042291
C   C10       1.0  0.34830  0.06380  0.22050  1.0000 -0.0997042291
C   C11       1.0  0.34830  0.93620  0.72050  1.0000 -0.0997042291
C   C12       1.0  0.65170  0.93620  0.77950  1.0000 -0.0997042291
C   C13       1.0  0.61040  0.96600  0.23500  1.0000 -0.1500482331
C   C14       1.0  0.38960  0.96600  0.26500  1.0000 -0.1500482331
C   C15       1.0  0.38960  0.03400  0.76500  1.0000 -0.1500482331
C   C16       1.0  0.61040  0.03400  0.73500  1.0000 -0.1500482331
C   C17       1.0  0.66600  0.84520  0.23731  1.0000 0.092627681
C   C18       1.0  0.33400  0.84520  0.26269  1.0000 0.092627681
C   C19       1.0  0.33400  0.15480  0.76269  1.0000 0.092627681
C   C20       1.0  0.66600  0.15480  0.73731  1.0000 0.092627681
C   C21       1.0  0.76370  0.82070  0.28540  1.0000 -0.1627605108
C   C22       1.0  0.23630  0.82070  0.21460  1.0000 -0.1627605108
C   C23       1.0  0.23630  0.17930  0.71460  1.0000 -0.1627605108
C   C24       1.0  0.76370  0.17930  0.78540  1.0000 -0.1627605108
C   C25       1.0  0.80510  0.91600  0.33050  1.0000 -0.1093492664
C   C26       1.0  0.19490  0.91600  0.16950  1.0000 -0.1093492664
C   C27       1.0  0.19490  0.08400  0.66950  1.0000 -0.1093492664
C   C28       1.0  0.80510  0.08400  0.83050  1.0000 -0.1093492664
C   C29       1.0  0.62960  0.73740  0.18867  1.0000 -0.1500482331
C   C30       1.0  0.37040  0.73740  0.31133  1.0000 -0.1500482331
C   C31       1.0  0.37040  0.26260  0.81133  1.0000 -0.1500482331
C   C32       1.0  0.62960  0.26260  0.68867  1.0000 -0.1500482331
C   C33       1.0  0.69530  0.75520  0.15337  1.0000 0.0995788381
C   C34       1.0  0.30470  0.75520  0.34663  1.0000 0.0995788381
C   C35       1.0  0.30470  0.24480  0.84663  1.0000 0.0995788381
C   C36       1.0  0.69530  0.24480  0.65337  1.0000 0.0995788381
C   C37       1.0  0.73510  0.88280  0.14570  1.0000 -0.1627605108
C   C38       1.0  0.26490  0.88280  0.35430  1.0000 -0.1627605108
C   C39       1.0  0.26490  0.11720  0.85430  1.0000 -0.1627605108
C   C40       1.0  0.73510  0.11720  0.64570  1.0000 -0.1627605108
C   C41       1.0  0.79250  0.89410  0.11190  1.0000 -0.1093492664
C   C42       1.0  0.20750  0.89410  0.38810  1.0000 -0.1093492664
C   C43       1.0  0.20750  0.10590  0.88810  1.0000 -0.1093492664
C   C44       1.0  0.79250  0.10590  0.61190  1.0000 -0.1093492664
C   C45       1.0  0.80820  0.77940  0.08460  1.0000 -0.0398029562
C   C46       1.0  0.19180  0.77940  0.41540  1.0000 -0.0398029562
C   C47       1.0  0.19180  0.22060  0.91540  1.0000 -0.0398029562
C   C48       1.0  0.80820  0.22060  0.58460  1.0000 -0.0398029562
C   C49       1.0  0.76910  0.65070  0.09300  1.0000 -0.0997042291
C   C50       1.0  0.23090  0.65070  0.40700  1.0000 -0.0997042291
C   C51       1.0  0.23090  0.34930  0.90700  1.0000 -0.0997042291
C   C52       1.0  0.76910  0.34930  0.59300  1.0000 -0.0997042291
C   C53       1.0  0.71430  0.63810  0.12640  1.0000 -0.1627605108
C   C54       1.0  0.28570  0.63810  0.37360  1.0000 -0.1627605108
C   C55       1.0  0.28570  0.36190  0.87360  1.0000 -0.1627605108
C   C56       1.0  0.71430  0.36190  0.62640  1.0000 -0.1627605108
C   C57       1.0  0.86650  0.79080  0.04679  1.0000 0.5761107683
C   C58       1.0  0.13350  0.79080  0.45321  1.0000 0.5761107683
C   C59       1.0  0.13350  0.20920  0.95321  1.0000 0.5761107683
C   C60       1.0  0.86650  0.20920  0.54679  1.0000 0.5761107683
C   C61       1.0  0.50340  0.73120  0.14986  1.0000 0.0995788381
C   C62       1.0  0.49660  0.73120  0.35014  1.0000 0.0995788381
C   C63       1.0  0.49660  0.26880  0.85014  1.0000 0.0995788381
C   C64       1.0  0.50340  0.26880  0.64986  1.0000 0.0995788381
C   C65       1.0  0.44190  0.62620  0.15840  1.0000 -0.1627605108
C   C66       1.0  0.55810  0.62620  0.34160  1.0000 -0.1627605108
C   C67       1.0  0.55810  0.37380  0.84160  1.0000 -0.1627605108
C   C68       1.0  0.44190  0.37380  0.65840  1.0000 -0.1627605108
C   C69       1.0  0.32780  0.61340  0.12290  1.0000 -0.0914137743
C   C70       1.0  0.67220  0.61340  0.37710  1.0000 -0.0914137743
C   C71       1.0  0.67220  0.38660  0.87710  1.0000 -0.0914137743
C   C72       1.0  0.32780  0.38660  0.62290  1.0000 -0.0914137743
C   C73       1.0  0.27420  0.71130  0.07851  1.0000 -0.0398029562
C   C74       1.0  0.72580  0.71130  0.42149  1.0000 -0.0398029562
C   C75       1.0  0.72580  0.28870  0.92149  1.0000 -0.0398029562
C   C76       1.0  0.27420  0.28870  0.57851  1.0000 -0.0398029562
C   C77       1.0  0.33570  0.81800  0.07050  1.0000 -0.0914137743
C   C78       1.0  0.66430  0.81800  0.42950  1.0000 -0.0914137743
C   C79       1.0  0.66430  0.18200  0.92950  1.0000 -0.0914137743
C   C80       1.0  0.33570  0.18200  0.57050  1.0000 -0.0914137743
C   C81       1.0  0.44940  0.82820  0.10570  1.0000 -0.1500482331
C   C82       1.0  0.55060  0.82820  0.39430  1.0000 -0.1500482331
C   C83       1.0  0.55060  0.17180  0.89430  1.0000 -0.1500482331
C   C84       1.0  0.44940  0.17180  0.60570  1.0000 -0.1500482331
C   C85       1.0  0.15240  0.69630  0.03955  1.0000 0.5685374767
C   C86       1.0  0.84760  0.69630  0.46045  1.0000 0.5685374767
C   C87       1.0  0.84760  0.30370  0.96045  1.0000 0.5685374767
C   C88       1.0  0.15240  0.30370  0.53955  1.0000 0.5685374767
C   C89       1.0  0.04430  0.49590  0.15020  1.0000 0.092627681
C   C90       1.0  0.95570  0.49590  0.34980  1.0000 0.092627681
C   C91       1.0  0.95570  0.50410  0.84980  1.0000 0.092627681
C   C92       1.0  0.04430  0.50410  0.65020  1.0000 0.092627681
C   C93       1.0  0.03700  0.50240  0.20210  1.0000 -0.206645754
C   C94       1.0  0.96300  0.50240  0.29790  1.0000 -0.206645754
C   C95       1.0  0.96300  0.49760  0.79790  1.0000 -0.206645754
C   C96       1.0  0.03700  0.49760  0.70210  1.0000 -0.206645754
C   C97       1.0  0.00160  0.38760  0.22180  1.0000 0.1113819241
C   C98       1.0  0.99840  0.38760  0.27820  1.0000 0.1113819241
C   C99       1.0  0.99840  0.61240  0.77820  1.0000 0.1113819241
C   C100      1.0  0.00160  0.61240  0.72180  1.0000 0.1113819241
C   C101      1.0  0.96830  0.27000  0.18560  1.0000 -0.1947545528
C   C102      1.0  0.03170  0.27000  0.31440  1.0000 -0.1947545528
C   C103      1.0  0.03170  0.73000  0.81440  1.0000 -0.1951922745
C   C104      1.0  0.96830  0.73000  0.68560  1.0000 -0.1947545528
C   C105      1.0  0.97480  0.27310  0.13410  1.0000 0.0658273503
C   C106      1.0  0.02520  0.27310  0.36590  1.0000 0.0658273503
C   C107      1.0  0.02520  0.72690  0.86590  1.0000 0.0658273503
C   C108      1.0  0.97480  0.72690  0.63410  1.0000 0.0658273503
N   N1        1.0  0.01450  0.38490  0.11635  1.0000 -0.2302484818
N   N2        1.0  0.98550  0.38490  0.38365  1.0000 -0.2302484818
N   N3        1.0  0.98550  0.61510  0.88365  1.0000 -0.2302484818
N   N4        1.0  0.01450  0.61510  0.61635  1.0000 -0.2302484818
O   O1        1.0  0.88390  0.11340  0.41917  1.0000 -0.5843401521
O   O2        1.0  0.11610  0.11340  0.08083  1.0000 -0.5843401521
O   O3        1.0  0.11610  0.88660  0.58083  1.0000 -0.5843401521
O   O4        1.0  0.88390  0.88660  0.91917  1.0000 -0.5843401521
O   O5        1.0  0.75640  0.26810  0.36868  1.0000 -0.5294951171
O   O6        1.0  0.24360  0.26810  0.13132  1.0000 -0.5294951171
O   O7        1.0  0.24360  0.73190  0.63132  1.0000 -0.5294951171
O   O8        1.0  0.75640  0.73190  0.86868  1.0000 -0.5294951171
O   O9        1.0  0.10170  0.58440  0.04030  1.0000 -0.5527647108
O   O10       1.0  0.89830  0.58440  0.45970  1.0000 -0.5527647108
O   O11       1.0  0.89830  0.41560  0.95970  1.0000 -0.5527647108
O   O12       1.0  0.10170  0.41560  0.54030  1.0000 -0.5527647108
O   O13       1.0  0.10210  0.79320  0.00498  1.0000 -0.5696644157
O   O14       1.0  0.89790  0.79320  0.49502  1.0000 -0.5696644157
O   O15       1.0  0.89790  0.20680  0.99502  1.0000 -0.5696644157
O   O16       1.0  0.10210  0.20680  0.50498  1.0000 -0.5696644157
O   O17       1.0  0.91780  0.90380  0.04871  1.0000 -0.5696644157
O   O18       1.0  0.08220  0.90380  0.45129  1.0000 -0.5696644157
O   O19       1.0  0.08220  0.09620  0.95129  1.0000 -0.5696644157
O   O20       1.0  0.91780  0.09620  0.54871  1.0000 -0.5696644157
O   O21       1.0  0.85960  0.68540  0.01675  1.0000 -0.5194482177
O   O22       1.0  0.14040  0.68540  0.48325  1.0000 -0.5194482177
O   O23       1.0  0.14040  0.31460  0.98325  1.0000 -0.5194482177
O   O24       1.0  0.85960  0.31460  0.51675  1.0000 -0.5194482177
