# DDEC6 charges by PACMAN v1.1 (https://github.com/mtap-research/PACMAN-charge/)
data_2012[Gd][pcu]3[FSR]1
_chemical_formula_sum              "Gd8 H160 C216 N64 O160"
_cell_length_a       13.103
_cell_length_b       30.424
_cell_length_c       24.4855
_cell_angle_alpha    90
_cell_angle_beta     110.249
_cell_angle_gamma    90

_symmetry_space_group_name_H-M    "P 1"
_symmetry_Int_Tables_number       1

loop_
  _symmetry_equiv_pos_as_xyz
  'x, y, z'

loop_
  _atom_site_type_symbol
  _atom_site_label
  _atom_site_symmetry_multiplicity
  _atom_site_fract_x
  _atom_site_fract_y
  _atom_site_fract_z
  _atom_site_occupancy
  _atom_site_charge
Gd  Gd1       1.0  0.87804  0.23067  0.72851  1.0000 1.9893721986
Gd  Gd2       1.0  0.12196  0.73067  0.77149  1.0000 1.9893721986
Gd  Gd3       1.0  0.12196  0.76933  0.27149  1.0000 1.9893721986
Gd  Gd4       1.0  0.87804  0.26933  0.22851  1.0000 1.9893721986
Gd  Gd5       1.0  0.64441  0.25831  0.79659  1.0000 2.0120881247
Gd  Gd6       1.0  0.35559  0.75831  0.70341  1.0000 2.0120881247
Gd  Gd7       1.0  0.35559  0.74169  0.20341  1.0000 2.0120881247
Gd  Gd8       1.0  0.64441  0.24169  0.29659  1.0000 2.0120881247
H   H1        1.0  0.46610  0.27110  0.65590  1.0000 0.1505048341
H   H2        1.0  0.53390  0.77110  0.84410  1.0000 0.1505048341
H   H3        1.0  0.53390  0.72890  0.34410  1.0000 0.1505048341
H   H4        1.0  0.46610  0.22890  0.15590  1.0000 0.1505048341
H   H5        1.0  0.57780  0.20510  0.54620  1.0000 0.140745954
H   H6        1.0  0.42220  0.70510  0.95380  1.0000 0.140745954
H   H7        1.0  0.42220  0.79490  0.45380  1.0000 0.140745954
H   H8        1.0  0.57780  0.29490  0.04620  1.0000 0.140745954
H   H9        1.0  0.97560  0.19200  0.46140  1.0000 0.140745954
H   H10       1.0  0.02440  0.69200  0.03860  1.0000 0.140745954
H   H11       1.0  0.02440  0.80800  0.53860  1.0000 0.140745954
H   H12       1.0  0.97560  0.30800  0.96140  1.0000 0.140745954
H   H13       1.0  0.04780  0.28690  0.36720  1.0000 0.1505048341
H   H14       1.0  0.95220  0.78690  0.13280  1.0000 0.1505048341
H   H15       1.0  0.95220  0.71310  0.63280  1.0000 0.1505048341
H   H16       1.0  0.04780  0.21310  0.86720  1.0000 0.1505048341
H   H17       1.0  0.71270  0.40130  0.78470  1.0000 0.1505048341
H   H18       1.0  0.28730  0.90130  0.71530  1.0000 0.1505048341
H   H19       1.0  0.28730  0.59870  0.21530  1.0000 0.1505048341
H   H20       1.0  0.71270  0.09870  0.28470  1.0000 0.1505048341
H   H21       1.0  0.90370  0.37540  0.69180  1.0000 0.140745954
H   H22       1.0  0.09630  0.87540  0.80820  1.0000 0.140745954
H   H23       1.0  0.09630  0.62460  0.30820  1.0000 0.140745954
H   H24       1.0  0.90370  0.12460  0.19180  1.0000 0.140745954
H   H25       1.0  0.85270  0.61430  0.67810  1.0000 0.1505048341
H   H26       1.0  0.14730  0.11430  0.82190  1.0000 0.1505048341
H   H27       1.0  0.14730  0.38570  0.32190  1.0000 0.1505048341
H   H28       1.0  0.85270  0.88570  0.17810  1.0000 0.1505048341
H   H29       1.0  0.04450  0.58640  0.84110  1.0000 0.1505048341
H   H30       1.0  0.95550  0.08640  0.65890  1.0000 0.1505048341
H   H31       1.0  0.95550  0.41360  0.15890  1.0000 0.1505048341
H   H32       1.0  0.04450  0.91360  0.34110  1.0000 0.1505048341
H   H33       1.0  0.79720  0.08750  0.72800  1.0000 0.1505048341
H   H34       1.0  0.20280  0.58750  0.77200  1.0000 0.1505048341
H   H35       1.0  0.20280  0.91250  0.27200  1.0000 0.1505048341
H   H36       1.0  0.79720  0.41250  0.22800  1.0000 0.1505048341
H   H37       1.0  0.58520  0.11130  0.80840  1.0000 0.140745954
H   H38       1.0  0.41480  0.61130  0.69160  1.0000 0.140745954
H   H39       1.0  0.41480  0.88870  0.19160  1.0000 0.140745954
H   H40       1.0  0.58520  0.38870  0.30840  1.0000 0.140745954
H   H41       1.0  0.46020  0.90350  0.64780  1.0000 0.1554186988
H   H42       1.0  0.53980  0.40350  0.85220  1.0000 0.1554186988
H   H43       1.0  0.53980  0.09650  0.35220  1.0000 0.1554186988
H   H44       1.0  0.46020  0.59650  0.14780  1.0000 0.1554186988
H   H45       1.0  0.61980  0.87370  0.81510  1.0000 0.140745954
H   H46       1.0  0.38020  0.37370  0.68490  1.0000 0.140745954
H   H47       1.0  0.38020  0.12630  0.18490  1.0000 0.140745954
H   H48       1.0  0.61980  0.62630  0.31510  1.0000 0.140745954
H   H49       1.0  0.89990  0.23180  0.59190  1.0000 0.1100800867
H   H50       1.0  0.10010  0.73180  0.90810  1.0000 0.1100800867
H   H51       1.0  0.10010  0.76820  0.40810  1.0000 0.1100800867
H   H52       1.0  0.89990  0.26820  0.09190  1.0000 0.1100800867
H   H53       1.0  0.01920  0.32790  0.64890  1.0000 0.1311472344
H   H54       1.0  0.98080  0.82790  0.85110  1.0000 0.1311472344
H   H55       1.0  0.98080  0.67210  0.35110  1.0000 0.1311472344
H   H56       1.0  0.01920  0.17210  0.14890  1.0000 0.1311472344
H   H57       1.0  0.05810  0.33780  0.59640  1.0000 0.1311472344
H   H58       1.0  0.94190  0.83780  0.90360  1.0000 0.1311472344
H   H59       1.0  0.94190  0.66220  0.40360  1.0000 0.1311472344
H   H60       1.0  0.05810  0.16220  0.09640  1.0000 0.1311472344
H   H61       1.0  0.94410  0.35450  0.59520  1.0000 0.1311472344
H   H62       1.0  0.05590  0.85450  0.90480  1.0000 0.1311472344
H   H63       1.0  0.05590  0.64550  0.40480  1.0000 0.1311472344
H   H64       1.0  0.94410  0.14550  0.09520  1.0000 0.1311472344
H   H65       1.0  0.87770  0.26020  0.50320  1.0000 0.1311472344
H   H66       1.0  0.12230  0.76020  0.99680  1.0000 0.1311472344
H   H67       1.0  0.12230  0.73980  0.49680  1.0000 0.1311472344
H   H68       1.0  0.87770  0.23980  0.00320  1.0000 0.1311472344
H   H69       1.0  0.85390  0.31080  0.50080  1.0000 0.1311472344
H   H70       1.0  0.14610  0.81080  0.99920  1.0000 0.1311472344
H   H71       1.0  0.14610  0.68920  0.49920  1.0000 0.1311472344
H   H72       1.0  0.85390  0.18920  0.00080  1.0000 0.1311472344
H   H73       1.0  0.96830  0.29380  0.50310  1.0000 0.140745954
H   H74       1.0  0.03170  0.79380  0.99690  1.0000 0.140745954
H   H75       1.0  0.03170  0.70620  0.49690  1.0000 0.140745954
H   H76       1.0  0.96830  0.20620  0.00310  1.0000 0.140745954
H   H77       1.0  0.12890  0.27870  0.75110  1.0000 0.1209104705
H   H78       1.0  0.87110  0.77870  0.74890  1.0000 0.1209104705
H   H79       1.0  0.87110  0.72130  0.24890  1.0000 0.1209104705
H   H80       1.0  0.12890  0.22130  0.25110  1.0000 0.1209104705
H   H81       1.0  0.14320  0.35220  0.87220  1.0000 0.140745954
H   H82       1.0  0.85680  0.85220  0.62780  1.0000 0.140745954
H   H83       1.0  0.85680  0.64780  0.12780  1.0000 0.140745954
H   H84       1.0  0.14320  0.14780  0.37220  1.0000 0.140745954
H   H85       1.0  0.10420  0.38730  0.82240  1.0000 0.1311472344
H   H86       1.0  0.89580  0.88730  0.67760  1.0000 0.1311472344
H   H87       1.0  0.89580  0.61270  0.17760  1.0000 0.1311472344
H   H88       1.0  0.10420  0.11270  0.32240  1.0000 0.1311472344
H   H89       1.0  0.02820  0.34780  0.82370  1.0000 0.1311472344
H   H90       1.0  0.97180  0.84780  0.67630  1.0000 0.1311472344
H   H91       1.0  0.97180  0.65220  0.17630  1.0000 0.1311472344
H   H92       1.0  0.02820  0.15220  0.32370  1.0000 0.1311472344
H   H93       1.0  0.27060  0.32850  0.76810  1.0000 0.1311472344
H   H94       1.0  0.72940  0.82850  0.73190  1.0000 0.1311472344
H   H95       1.0  0.72940  0.67150  0.23190  1.0000 0.1311472344
H   H96       1.0  0.27060  0.17150  0.26810  1.0000 0.1311472344
H   H97       1.0  0.21040  0.37380  0.75940  1.0000 0.1311472344
H   H98       1.0  0.78960  0.87380  0.74060  1.0000 0.1311472344
H   H99       1.0  0.78960  0.62620  0.24060  1.0000 0.1311472344
H   H100      1.0  0.21040  0.12620  0.25940  1.0000 0.1311472344
H   H101      1.0  0.28770  0.35970  0.82150  1.0000 0.140745954
H   H102      1.0  0.71230  0.85970  0.67850  1.0000 0.140745954
H   H103      1.0  0.71230  0.64030  0.17850  1.0000 0.140745954
H   H104      1.0  0.28770  0.14030  0.32150  1.0000 0.140745954
H   H105      1.0  0.65670  0.24970  0.95000  1.0000 0.1013798314
H   H106      1.0  0.34330  0.74970  0.55000  1.0000 0.1013798314
H   H107      1.0  0.34330  0.75030  0.05000  1.0000 0.1013798314
H   H108      1.0  0.65670  0.25030  0.45000  1.0000 0.1013798314
H   H109      1.0  0.59270  0.12850  0.92740  1.0000 0.1311472344
H   H110      1.0  0.40730  0.62850  0.57260  1.0000 0.1311472344
H   H111      1.0  0.40730  0.87150  0.07260  1.0000 0.1311472344
H   H112      1.0  0.59270  0.37150  0.42740  1.0000 0.1311472344
H   H113      1.0  0.48260  0.14590  0.93100  1.0000 0.1311472344
H   H114      1.0  0.51740  0.64590  0.56900  1.0000 0.1311472344
H   H115      1.0  0.51740  0.85410  0.06900  1.0000 0.1311472344
H   H116      1.0  0.48260  0.35410  0.43100  1.0000 0.1311472344
H   H117      1.0  0.51980  0.16040  0.87940  1.0000 0.140745954
H   H118      1.0  0.48020  0.66040  0.62060  1.0000 0.140745954
H   H119      1.0  0.48020  0.83960  0.12060  1.0000 0.140745954
H   H120      1.0  0.51980  0.33960  0.37940  1.0000 0.140745954
H   H121      1.0  0.66260  0.21730  0.03300  1.0000 0.1209104705
H   H122      1.0  0.33740  0.71730  0.46700  1.0000 0.1209104705
H   H123      1.0  0.33740  0.78270  0.96700  1.0000 0.1209104705
H   H124      1.0  0.66260  0.28270  0.53300  1.0000 0.1209104705
H   H125      1.0  0.57050  0.18300  0.02770  1.0000 0.140745954
H   H126      1.0  0.42950  0.68300  0.47230  1.0000 0.140745954
H   H127      1.0  0.42950  0.81700  0.97230  1.0000 0.140745954
H   H128      1.0  0.57050  0.31700  0.52770  1.0000 0.140745954
H   H129      1.0  0.68690  0.16690  0.03230  1.0000 0.140745954
H   H130      1.0  0.31310  0.66690  0.46770  1.0000 0.140745954
H   H131      1.0  0.31310  0.83310  0.96770  1.0000 0.140745954
H   H132      1.0  0.68690  0.33310  0.53230  1.0000 0.140745954
H   H133      1.0  0.47080  0.17650  0.71210  1.0000 0.0942479941
H   H134      1.0  0.52920  0.67650  0.78790  1.0000 0.0942479941
H   H135      1.0  0.52920  0.82350  0.28790  1.0000 0.0942479941
H   H136      1.0  0.47080  0.32350  0.21210  1.0000 0.0942479941
H   H137      1.0  0.34990  0.12090  0.68430  1.0000 0.1311472344
H   H138      1.0  0.65010  0.62090  0.81570  1.0000 0.1311472344
H   H139      1.0  0.65010  0.87910  0.31570  1.0000 0.1311472344
H   H140      1.0  0.34990  0.37910  0.18430  1.0000 0.1311472344
H   H141      1.0  0.29360  0.11090  0.73000  1.0000 0.1311472344
H   H142      1.0  0.70640  0.61090  0.77000  1.0000 0.1311472344
H   H143      1.0  0.70640  0.88910  0.27000  1.0000 0.1311472344
H   H144      1.0  0.29360  0.38910  0.23000  1.0000 0.1311472344
H   H145      1.0  0.23050  0.13680  0.67290  1.0000 0.140745954
H   H146      1.0  0.76950  0.63680  0.82710  1.0000 0.140745954
H   H147      1.0  0.76950  0.86320  0.32710  1.0000 0.140745954
H   H148      1.0  0.23050  0.36320  0.17290  1.0000 0.140745954
H   H149      1.0  0.32170  0.21720  0.78660  1.0000 0.140745954
H   H150      1.0  0.67830  0.71720  0.71340  1.0000 0.140745954
H   H151      1.0  0.67830  0.78280  0.21340  1.0000 0.140745954
H   H152      1.0  0.32170  0.28280  0.28660  1.0000 0.140745954
H   H153      1.0  0.21260  0.20320  0.73810  1.0000 0.1311472344
H   H154      1.0  0.78740  0.70320  0.76190  1.0000 0.1311472344
H   H155      1.0  0.78740  0.79680  0.26190  1.0000 0.1311472344
H   H156      1.0  0.21260  0.29680  0.23810  1.0000 0.1311472344
H   H157      1.0  0.26910  0.17150  0.79030  1.0000 0.1311472344
H   H158      1.0  0.73090  0.67150  0.70970  1.0000 0.1311472344
H   H159      1.0  0.73090  0.82850  0.20970  1.0000 0.1311472344
H   H160      1.0  0.26910  0.32850  0.29030  1.0000 0.1311472344
C   C1        1.0  0.65070  0.23583  0.65340  1.0000 0.6139420765
C   C2        1.0  0.34930  0.73583  0.84660  1.0000 0.6139420765
C   C3        1.0  0.34930  0.76417  0.34660  1.0000 0.6139420765
C   C4        1.0  0.65070  0.26417  0.15340  1.0000 0.6139420765
C   C5        1.0  0.53880  0.23714  0.60880  1.0000 0.0107544073
C   C6        1.0  0.46120  0.73714  0.89120  1.0000 0.0107544073
C   C7        1.0  0.46120  0.76286  0.39120  1.0000 0.0107544073
C   C8        1.0  0.53880  0.26286  0.10880  1.0000 0.0107544073
C   C9        1.0  0.45420  0.25757  0.62020  1.0000 -0.1272599469
C   C10       1.0  0.54580  0.75757  0.87980  1.0000 -0.1272599469
C   C11       1.0  0.54580  0.74243  0.37980  1.0000 -0.1272599469
C   C12       1.0  0.45420  0.24243  0.12020  1.0000 -0.1272599469
C   C13       1.0  0.35140  0.25774  0.57800  1.0000 0.0195697722
C   C14       1.0  0.64860  0.75774  0.92200  1.0000 0.0195697722
C   C15       1.0  0.64860  0.74226  0.42200  1.0000 0.0195697722
C   C16       1.0  0.35140  0.24226  0.07800  1.0000 0.0195697722
C   C17       1.0  0.32780  0.23643  0.52410  1.0000 -0.0089611318
C   C18       1.0  0.67220  0.73643  0.97590  1.0000 -0.0089611318
C   C19       1.0  0.67220  0.76357  0.47590  1.0000 -0.0089611318
C   C20       1.0  0.32780  0.26357  0.02410  1.0000 -0.0089611318
C   C21       1.0  0.41530  0.21663  0.51440  1.0000 0.0309201281
C   C22       1.0  0.58470  0.71663  0.98560  1.0000 0.0309201281
C   C23       1.0  0.58470  0.78337  0.48560  1.0000 0.0309201281
C   C24       1.0  0.41530  0.28337  0.01440  1.0000 0.0309201281
C   C25       1.0  0.52050  0.21750  0.55500  1.0000 -0.1465253186
C   C26       1.0  0.47950  0.71750  0.94500  1.0000 -0.1465253186
C   C27       1.0  0.47950  0.78250  0.44500  1.0000 -0.1465253186
C   C28       1.0  0.52050  0.28250  0.05500  1.0000 -0.1465253186
C   C29       1.0  0.21370  0.23548  0.48090  1.0000 -0.0024777037
C   C30       1.0  0.78630  0.73548  0.01910  1.0000 -0.0024777037
C   C31       1.0  0.78630  0.76452  0.51910  1.0000 -0.0024777037
C   C32       1.0  0.21370  0.26452  0.98090  1.0000 -0.0024777037
C   C33       1.0  0.13460  0.20884  0.48920  1.0000 0.0309201281
C   C34       1.0  0.86540  0.70884  0.01080  1.0000 0.0309201281
C   C35       1.0  0.86540  0.79116  0.51080  1.0000 0.0309201281
C   C36       1.0  0.13460  0.29116  0.98920  1.0000 0.0309201281
C   C37       1.0  0.02630  0.21018  0.45400  1.0000 -0.1397524652
C   C38       1.0  0.97370  0.71018  0.04600  1.0000 -0.1397524652
C   C39       1.0  0.97370  0.78982  0.54600  1.0000 -0.1397524652
C   C40       1.0  0.02630  0.28982  0.95400  1.0000 -0.1397524652
C   C41       1.0  0.99440  0.23931  0.40710  1.0000 0.0195697722
C   C42       1.0  0.00560  0.73931  0.09290  1.0000 0.0107544073
C   C43       1.0  0.00560  0.76069  0.59290  1.0000 0.0107544073
C   C44       1.0  0.99440  0.26069  0.90710  1.0000 0.0107544073
C   C45       1.0  0.06920  0.26683  0.39770  1.0000 -0.1233491536
C   C46       1.0  0.93080  0.76683  0.10230  1.0000 -0.1233491536
C   C47       1.0  0.93080  0.73317  0.60230  1.0000 -0.1233491536
C   C48       1.0  0.06920  0.23317  0.89770  1.0000 -0.1233491536
C   C49       1.0  0.17730  0.26464  0.43400  1.0000 0.0309201281
C   C50       1.0  0.82270  0.76464  0.06600  1.0000 0.0309201281
C   C51       1.0  0.82270  0.73536  0.56600  1.0000 0.0309201281
C   C52       1.0  0.17730  0.23536  0.93400  1.0000 0.0309201281
C   C53       1.0  0.87550  0.24132  0.36830  1.0000 0.601709311
C   C54       1.0  0.12450  0.74132  0.13170  1.0000 0.601709311
C   C55       1.0  0.12450  0.75868  0.63170  1.0000 0.601709311
C   C56       1.0  0.87550  0.25868  0.86830  1.0000 0.601709311
C   C57       1.0  0.78750  0.33192  0.74360  1.0000 0.6183089736
C   C58       1.0  0.21250  0.83192  0.75640  1.0000 0.6183089736
C   C59       1.0  0.21250  0.66808  0.25640  1.0000 0.6183089736
C   C60       1.0  0.78750  0.16808  0.24360  1.0000 0.6183089736
C   C61       1.0  0.80630  0.38084  0.73880  1.0000 0.0107544073
C   C62       1.0  0.19370  0.88084  0.76120  1.0000 0.0107544073
C   C63       1.0  0.19370  0.61916  0.26120  1.0000 0.0107544073
C   C64       1.0  0.80630  0.11916  0.23880  1.0000 0.0107544073
C   C65       1.0  0.75900  0.41082  0.76570  1.0000 -0.1084171617
C   C66       1.0  0.24100  0.91082  0.73430  1.0000 -0.1084171617
C   C67       1.0  0.24100  0.58918  0.23430  1.0000 -0.1084171617
C   C68       1.0  0.75900  0.08918  0.26570  1.0000 -0.1084171617
C   C69       1.0  0.78160  0.45498  0.76380  1.0000 0.0309201281
C   C70       1.0  0.21840  0.95498  0.73620  1.0000 0.0309201281
C   C71       1.0  0.21840  0.54502  0.23620  1.0000 0.0309201281
C   C72       1.0  0.78160  0.04502  0.26380  1.0000 0.0309201281
C   C73       1.0  0.85100  0.47167  0.73720  1.0000 0.0195697722
C   C74       1.0  0.14900  0.97167  0.76280  1.0000 0.0195697722
C   C75       1.0  0.14900  0.52833  0.26280  1.0000 0.0195697722
C   C76       1.0  0.85100  0.02833  0.23720  1.0000 0.0195697722
C   C77       1.0  0.89670  0.43998  0.71070  1.0000 0.0309201281
C   C78       1.0  0.10330  0.93998  0.78930  1.0000 0.0309201281
C   C79       1.0  0.10330  0.56002  0.28930  1.0000 0.0309201281
C   C80       1.0  0.89670  0.06002  0.21070  1.0000 0.0309201281
C   C81       1.0  0.87350  0.39523  0.71080  1.0000 -0.1233491536
C   C82       1.0  0.12650  0.89523  0.78920  1.0000 -0.1233491536
C   C83       1.0  0.12650  0.60477  0.28920  1.0000 -0.1233491536
C   C84       1.0  0.87350  0.10477  0.21080  1.0000 -0.1233491536
C   C85       1.0  0.88650  0.51901  0.74460  1.0000 0.0107544073
C   C86       1.0  0.11350  0.01901  0.75540  1.0000 0.0107544073
C   C87       1.0  0.11350  0.48099  0.25540  1.0000 0.0107544073
C   C88       1.0  0.88650  0.98099  0.24460  1.0000 0.0107544073
C   C89       1.0  0.84520  0.55128  0.70090  1.0000 0.0309201281
C   C90       1.0  0.15480  0.05128  0.79910  1.0000 0.0309201281
C   C91       1.0  0.15480  0.44872  0.29910  1.0000 0.0309201281
C   C92       1.0  0.84520  0.94872  0.20090  1.0000 0.0309201281
C   C93       1.0  0.88050  0.59413  0.70820  1.0000 -0.1272599469
C   C94       1.0  0.11950  0.09413  0.79180  1.0000 -0.1272599469
C   C95       1.0  0.11950  0.40587  0.29180  1.0000 -0.1272599469
C   C96       1.0  0.88050  0.90587  0.20820  1.0000 -0.1272599469
C   C97       1.0  0.95730  0.60735  0.76030  1.0000 0.0107544073
C   C98       1.0  0.04270  0.10735  0.73970  1.0000 0.0107544073
C   C99       1.0  0.04270  0.39265  0.23970  1.0000 0.0107544073
C   C100      1.0  0.95730  0.89265  0.26030  1.0000 0.0107544073
C   C101      1.0  0.99560  0.57756  0.80530  1.0000 -0.1272599469
C   C102      1.0  0.00440  0.07756  0.69470  1.0000 -0.1272599469
C   C103      1.0  0.00440  0.42244  0.19470  1.0000 -0.1233491536
C   C104      1.0  0.99560  0.92244  0.30530  1.0000 -0.1272599469
C   C105      1.0  0.96050  0.53413  0.79650  1.0000 0.0195697722
C   C106      1.0  0.03950  0.03413  0.70350  1.0000 0.0195697722
C   C107      1.0  0.03950  0.46587  0.20350  1.0000 0.0195697722
C   C108      1.0  0.96050  0.96587  0.29650  1.0000 0.0195697722
C   C109      1.0  0.00230  0.65317  0.76810  1.0000 0.5598637434
C   C110      1.0  0.99770  0.15317  0.73190  1.0000 0.5598637434
C   C111      1.0  0.99770  0.34683  0.23190  1.0000 0.5598637434
C   C112      1.0  0.00230  0.84683  0.26810  1.0000 0.5598637434
C   C113      1.0  0.72310  0.15556  0.77040  1.0000 0.6183089736
C   C114      1.0  0.27690  0.65556  0.72960  1.0000 0.6183089736
C   C115      1.0  0.27690  0.84444  0.22960  1.0000 0.6183089736
C   C116      1.0  0.72310  0.34444  0.27040  1.0000 0.6183089736
C   C117      1.0  0.69620  0.10665  0.76950  1.0000 0.0107544073
C   C118      1.0  0.30380  0.60665  0.73050  1.0000 0.0107544073
C   C119      1.0  0.30380  0.89335  0.23050  1.0000 0.0107544073
C   C120      1.0  0.69620  0.39335  0.26950  1.0000 0.0107544073
C   C121      1.0  0.74540  0.07764  0.74320  1.0000 -0.1084171617
C   C122      1.0  0.25460  0.57764  0.75680  1.0000 -0.1084171617
C   C123      1.0  0.25460  0.92236  0.25680  1.0000 -0.1084171617
C   C124      1.0  0.74540  0.42236  0.24320  1.0000 -0.1084171617
C   C125      1.0  0.71710  0.03356  0.73960  1.0000 0.0309201281
C   C126      1.0  0.28290  0.53356  0.76040  1.0000 0.0309201281
C   C127      1.0  0.28290  0.96644  0.26040  1.0000 0.0309201281
C   C128      1.0  0.71710  0.46644  0.23960  1.0000 0.0309201281
C   C129      1.0  0.63930  0.01642  0.76100  1.0000 0.0107544073
C   C130      1.0  0.36070  0.51642  0.73900  1.0000 0.0107544073
C   C131      1.0  0.36070  0.98358  0.23900  1.0000 0.0107544073
C   C132      1.0  0.63930  0.48358  0.26100  1.0000 0.0107544073
C   C133      1.0  0.59130  0.04753  0.78630  1.0000 0.037398723
C   C134      1.0  0.40870  0.54753  0.71370  1.0000 0.037398723
C   C135      1.0  0.40870  0.95247  0.21370  1.0000 0.037398723
C   C136      1.0  0.59130  0.45247  0.28630  1.0000 0.037398723
C   C137      1.0  0.61910  0.09185  0.79090  1.0000 -0.1272599469
C   C138      1.0  0.38090  0.59185  0.70910  1.0000 -0.1272599469
C   C139      1.0  0.38090  0.90815  0.20910  1.0000 -0.1272599469
C   C140      1.0  0.61910  0.40815  0.29090  1.0000 -0.1272599469
C   C141      1.0  0.60480  0.96934  0.75090  1.0000 -0.0024777037
C   C142      1.0  0.39520  0.46934  0.74910  1.0000 -0.0024777037
C   C143      1.0  0.39520  0.03066  0.24910  1.0000 -0.0024777037
C   C144      1.0  0.60480  0.53066  0.25090  1.0000 -0.0024777037
C   C145      1.0  0.53830  0.95472  0.69670  1.0000 0.0309201281
C   C146      1.0  0.46170  0.45472  0.80330  1.0000 0.0309201281
C   C147      1.0  0.46170  0.04528  0.30330  1.0000 0.0309201281
C   C148      1.0  0.53830  0.54528  0.19670  1.0000 0.0309201281
C   C149      1.0  0.50210  0.91189  0.68540  1.0000 -0.1272599469
C   C150      1.0  0.49790  0.41189  0.81460  1.0000 -0.1272599469
C   C151      1.0  0.49790  0.08811  0.31460  1.0000 -0.1272599469
C   C152      1.0  0.50210  0.58811  0.18540  1.0000 -0.1272599469
C   C153      1.0  0.52840  0.88162  0.73010  1.0000 0.0107544073
C   C154      1.0  0.47160  0.38162  0.76990  1.0000 0.0107544073
C   C155      1.0  0.47160  0.11838  0.26990  1.0000 0.0107544073
C   C156      1.0  0.52840  0.61838  0.23010  1.0000 0.0107544073
C   C157      1.0  0.59910  0.89391  0.78480  1.0000 -0.1397524652
C   C158      1.0  0.40090  0.39391  0.71520  1.0000 -0.1397524652
C   C159      1.0  0.40090  0.10609  0.21520  1.0000 -0.1397524652
C   C160      1.0  0.59910  0.60609  0.28480  1.0000 -0.1397524652
C   C161      1.0  0.63830  0.93631  0.79370  1.0000 0.0309201281
C   C162      1.0  0.36170  0.43631  0.70630  1.0000 0.0309201281
C   C163      1.0  0.36170  0.06369  0.20630  1.0000 0.0309201281
C   C164      1.0  0.63830  0.56369  0.29370  1.0000 0.0195697722
C   C165      1.0  0.47880  0.83626  0.72060  1.0000 0.5598637434
C   C166      1.0  0.52120  0.33626  0.77940  1.0000 0.5598637434
C   C167      1.0  0.52120  0.16374  0.27940  1.0000 0.5598637434
C   C168      1.0  0.47880  0.66374  0.22060  1.0000 0.5598637434
C   C169      1.0  0.93360  0.25710  0.61120  1.0000 0.3160944852
C   C170      1.0  0.06640  0.75710  0.88880  1.0000 0.3160944852
C   C171      1.0  0.06640  0.74290  0.38880  1.0000 0.3160944852
C   C172      1.0  0.93360  0.24290  0.11120  1.0000 0.3160944852
C   C173      1.0  0.99620  0.33110  0.60740  1.0000 -0.320734213
C   C174      1.0  0.00380  0.83110  0.89260  1.0000 -0.320734213
C   C175      1.0  0.00380  0.66890  0.39260  1.0000 -0.320734213
C   C176      1.0  0.99620  0.16890  0.10740  1.0000 -0.320734213
C   C177      1.0  0.90840  0.28860  0.51630  1.0000 -0.346308629
C   C178      1.0  0.09160  0.78860  0.98370  1.0000 -0.346308629
C   C179      1.0  0.09160  0.71140  0.48370  1.0000 -0.346308629
C   C180      1.0  0.90840  0.21140  0.01630  1.0000 -0.346308629
C   C181      1.0  0.10240  0.29340  0.77680  1.0000 0.2972934666
C   C182      1.0  0.89760  0.79340  0.72320  1.0000 0.2972934666
C   C183      1.0  0.89760  0.70660  0.22320  1.0000 0.2972934666
C   C184      1.0  0.10240  0.20660  0.27680  1.0000 0.2972934666
C   C185      1.0  0.10230  0.35670  0.83170  1.0000 -0.3412109939
C   C186      1.0  0.89770  0.85670  0.66830  1.0000 -0.3412109939
C   C187      1.0  0.89770  0.64330  0.16830  1.0000 -0.3412109939
C   C188      1.0  0.10230  0.14330  0.33170  1.0000 -0.3412109939
C   C189      1.0  0.23620  0.34940  0.78540  1.0000 -0.2633186027
C   C190      1.0  0.76380  0.84940  0.71460  1.0000 -0.2633186027
C   C191      1.0  0.76380  0.65060  0.21460  1.0000 -0.2633186027
C   C192      1.0  0.23620  0.15060  0.28540  1.0000 -0.2633186027
C   C193      1.0  0.62300  0.22580  0.92730  1.0000 0.3082638132
C   C194      1.0  0.37700  0.72580  0.57270  1.0000 0.3082638132
C   C195      1.0  0.37700  0.77420  0.07270  1.0000 0.3082638132
C   C196      1.0  0.62300  0.27420  0.42730  1.0000 0.3082638132
C   C197      1.0  0.54410  0.15320  0.92000  1.0000 -0.3115030873
C   C198      1.0  0.45590  0.65320  0.58000  1.0000 -0.3115030873
C   C199      1.0  0.45590  0.84680  0.08000  1.0000 -0.3115030873
C   C200      1.0  0.54410  0.34680  0.42000  1.0000 -0.3115030873
C   C201      1.0  0.63290  0.18940  0.01710  1.0000 -0.346308629
C   C202      1.0  0.36710  0.68940  0.48290  1.0000 -0.346308629
C   C203      1.0  0.36710  0.81060  0.98290  1.0000 -0.346308629
C   C204      1.0  0.63290  0.31060  0.51710  1.0000 -0.346308629
C   C205      1.0  0.43140  0.19130  0.73150  1.0000 0.3082638132
C   C206      1.0  0.56860  0.69130  0.76850  1.0000 0.3082638132
C   C207      1.0  0.56860  0.80870  0.26850  1.0000 0.3082638132
C   C208      1.0  0.43140  0.30870  0.23150  1.0000 0.3082638132
C   C209      1.0  0.30040  0.13190  0.70220  1.0000 -0.3412109939
C   C210      1.0  0.69960  0.63190  0.79780  1.0000 -0.3412109939
C   C211      1.0  0.69960  0.86810  0.29780  1.0000 -0.3412109939
C   C212      1.0  0.30040  0.36810  0.20220  1.0000 -0.3412109939
C   C213      1.0  0.28130  0.19290  0.76440  1.0000 -0.320734213
C   C214      1.0  0.71870  0.69290  0.73560  1.0000 -0.320734213
C   C215      1.0  0.71870  0.80710  0.23560  1.0000 -0.320734213
C   C216      1.0  0.28130  0.30710  0.26440  1.0000 -0.320734213
N   N1        1.0  0.26640  0.28208  0.59200  1.0000 0.4990931474
N   N2        1.0  0.73360  0.78208  0.90800  1.0000 0.4990931474
N   N3        1.0  0.73360  0.71792  0.40800  1.0000 0.4990931474
N   N4        1.0  0.26640  0.21792  0.09200  1.0000 0.4990931474
N   N5        1.0  0.40090  0.19162  0.46130  1.0000 0.4990931474
N   N6        1.0  0.59910  0.69162  0.03870  1.0000 0.4990931474
N   N7        1.0  0.59910  0.80838  0.53870  1.0000 0.4990931474
N   N8        1.0  0.40090  0.30838  0.96130  1.0000 0.4990931474
N   N9        1.0  0.16450  0.17922  0.53960  1.0000 0.4990931474
N   N10       1.0  0.83550  0.67922  0.96040  1.0000 0.4990931474
N   N11       1.0  0.83550  0.82078  0.46040  1.0000 0.4990931474
N   N12       1.0  0.16450  0.32078  0.03960  1.0000 0.4990931474
N   N13       1.0  0.25370  0.29550  0.42230  1.0000 0.4920137237
N   N14       1.0  0.74630  0.79550  0.07770  1.0000 0.4920137237
N   N15       1.0  0.74630  0.70450  0.57770  1.0000 0.4920137237
N   N16       1.0  0.25370  0.20450  0.92230  1.0000 0.4920137237
N   N17       1.0  0.73160  0.48460  0.79520  1.0000 0.5114090391
N   N18       1.0  0.26840  0.98460  0.70480  1.0000 0.5114090391
N   N19       1.0  0.26840  0.51540  0.20480  1.0000 0.5114090391
N   N20       1.0  0.73160  0.01540  0.29520  1.0000 0.5114090391
N   N21       1.0  0.97770  0.45264  0.68440  1.0000 0.5114090391
N   N22       1.0  0.02230  0.95264  0.81560  1.0000 0.5114090391
N   N23       1.0  0.02230  0.54736  0.31560  1.0000 0.5114090391
N   N24       1.0  0.97770  0.04736  0.18440  1.0000 0.5114090391
N   N25       1.0  0.76150  0.53953  0.64500  1.0000 0.4990931474
N   N26       1.0  0.23850  0.03953  0.85500  1.0000 0.4990931474
N   N27       1.0  0.23850  0.46047  0.35500  1.0000 0.4990931474
N   N28       1.0  0.76150  0.96047  0.14500  1.0000 0.4990931474
N   N29       1.0  0.00660  0.50407  0.84590  1.0000 0.4990931474
N   N30       1.0  0.99340  0.00407  0.65410  1.0000 0.4990931474
N   N31       1.0  0.99340  0.49593  0.15410  1.0000 0.4990931474
N   N32       1.0  0.00660  0.99593  0.34590  1.0000 0.4990931474
N   N33       1.0  0.76990  0.00466  0.70920  1.0000 0.5114090391
N   N34       1.0  0.23010  0.50466  0.79080  1.0000 0.5114090391
N   N35       1.0  0.23010  0.99534  0.29080  1.0000 0.5114090391
N   N36       1.0  0.76990  0.49534  0.20920  1.0000 0.5114090391
N   N37       1.0  0.50640  0.03469  0.81040  1.0000 0.515802552
N   N38       1.0  0.49360  0.53469  0.68960  1.0000 0.515802552
N   N39       1.0  0.49360  0.96531  0.18960  1.0000 0.515802552
N   N40       1.0  0.50640  0.46531  0.31040  1.0000 0.515802552
N   N41       1.0  0.50160  0.98546  0.64610  1.0000 0.4990931474
N   N42       1.0  0.49840  0.48546  0.85390  1.0000 0.4990931474
N   N43       1.0  0.49840  0.01454  0.35390  1.0000 0.4990931474
N   N44       1.0  0.50160  0.51454  0.14610  1.0000 0.4990931474
N   N45       1.0  0.71700  0.94719  0.85180  1.0000 0.4920137237
N   N46       1.0  0.28300  0.44719  0.64820  1.0000 0.4920137237
N   N47       1.0  0.28300  0.05281  0.14820  1.0000 0.4920137237
N   N48       1.0  0.71700  0.55281  0.35180  1.0000 0.4920137237
N   N49       1.0  0.94660  0.29008  0.57960  1.0000 0.0107544073
N   N50       1.0  0.05340  0.79008  0.92040  1.0000 0.0107544073
N   N51       1.0  0.05340  0.70992  0.42040  1.0000 0.0107544073
N   N52       1.0  0.94660  0.20992  0.07960  1.0000 0.0107544073
N   N53       1.0  0.15080  0.33000  0.79550  1.0000 0.0309201281
N   N54       1.0  0.84920  0.83000  0.70450  1.0000 0.0309201281
N   N55       1.0  0.84920  0.67000  0.20450  1.0000 0.0309201281
N   N56       1.0  0.15080  0.17000  0.29550  1.0000 0.0309201281
N   N57       1.0  0.60090  0.19070  0.95390  1.0000 0.0195697722
N   N58       1.0  0.39910  0.69070  0.54610  1.0000 0.0195697722
N   N59       1.0  0.39910  0.80930  0.04610  1.0000 0.0195697722
N   N60       1.0  0.60090  0.30930  0.45390  1.0000 0.0195697722
N   N61       1.0  0.34190  0.17315  0.73180  1.0000 0.0195697722
N   N62       1.0  0.65810  0.67315  0.76820  1.0000 0.0195697722
N   N63       1.0  0.65810  0.82685  0.26820  1.0000 0.0195697722
N   N64       1.0  0.34190  0.32685  0.23180  1.0000 0.0195697722
O   O1        1.0  0.72964  0.22773  0.63734  1.0000 -0.6010971816
O   O2        1.0  0.27036  0.72773  0.86266  1.0000 -0.6010971816
O   O3        1.0  0.27036  0.77227  0.36266  1.0000 -0.6010971816
O   O4        1.0  0.72964  0.27227  0.13734  1.0000 -0.6010971816
O   O5        1.0  0.66254  0.24378  0.70594  1.0000 -0.7069673789
O   O6        1.0  0.33746  0.74378  0.79406  1.0000 -0.7069673789
O   O7        1.0  0.33746  0.75622  0.29406  1.0000 -0.7069673789
O   O8        1.0  0.66254  0.25622  0.20594  1.0000 -0.7069673789
O   O9        1.0  0.85253  0.25868  0.31853  1.0000 -0.7069673789
O   O10       1.0  0.14747  0.75868  0.18147  1.0000 -0.7069673789
O   O11       1.0  0.14747  0.74132  0.68147  1.0000 -0.7069673789
O   O12       1.0  0.85253  0.24132  0.81853  1.0000 -0.7069673789
O   O13       1.0  0.80530  0.22641  0.38650  1.0000 -0.5726551366
O   O14       1.0  0.19470  0.72641  0.11350  1.0000 -0.5726551366
O   O15       1.0  0.19470  0.77359  0.61350  1.0000 -0.5726551366
O   O16       1.0  0.80530  0.27359  0.88650  1.0000 -0.5726551366
O   O17       1.0  0.27790  0.28720  0.64180  1.0000 -0.2633186027
O   O18       1.0  0.72210  0.78720  0.85820  1.0000 -0.2633186027
O   O19       1.0  0.72210  0.71280  0.35820  1.0000 -0.2633186027
O   O20       1.0  0.27790  0.21280  0.14180  1.0000 -0.2633186027
O   O21       1.0  0.18890  0.29600  0.55220  1.0000 -0.3005707653
O   O22       1.0  0.81110  0.79600  0.94780  1.0000 -0.3005707653
O   O23       1.0  0.81110  0.70400  0.44780  1.0000 -0.3005707653
O   O24       1.0  0.18890  0.20400  0.05220  1.0000 -0.3005707653
O   O25       1.0  0.31200  0.17560  0.43510  1.0000 -0.3005707653
O   O26       1.0  0.68800  0.67560  0.06490  1.0000 -0.3005707653
O   O27       1.0  0.68800  0.82440  0.56490  1.0000 -0.3005707653
O   O28       1.0  0.31200  0.32440  0.93510  1.0000 -0.3005707653
O   O29       1.0  0.47780  0.18590  0.44580  1.0000 -0.2836597216
O   O30       1.0  0.52220  0.68590  0.05420  1.0000 -0.2836597216
O   O31       1.0  0.52220  0.81410  0.55420  1.0000 -0.2836597216
O   O32       1.0  0.47780  0.31410  0.94580  1.0000 -0.2836597216
O   O33       1.0  0.25260  0.16125  0.55480  1.0000 -0.3005707653
O   O34       1.0  0.74740  0.66125  0.94520  1.0000 -0.3005707653
O   O35       1.0  0.74740  0.83875  0.44520  1.0000 -0.3005707653
O   O36       1.0  0.25260  0.33875  0.05480  1.0000 -0.3005707653
O   O37       1.0  0.09830  0.17538  0.56470  1.0000 -0.3304072124
O   O38       1.0  0.90170  0.67538  0.93530  1.0000 -0.3304072124
O   O39       1.0  0.90170  0.82462  0.43530  1.0000 -0.3304072124
O   O40       1.0  0.09830  0.32462  0.06470  1.0000 -0.3304072124
O   O41       1.0  0.34370  0.28070  0.42590  1.0000 -0.320734213
O   O42       1.0  0.65630  0.78070  0.07410  1.0000 -0.320734213
O   O43       1.0  0.65630  0.71930  0.57410  1.0000 -0.320734213
O   O44       1.0  0.34370  0.21930  0.92590  1.0000 -0.320734213
O   O45       1.0  0.22230  0.33084  0.40410  1.0000 -0.2500813769
O   O46       1.0  0.77770  0.83084  0.09590  1.0000 -0.2500813769
O   O47       1.0  0.77770  0.66916  0.59590  1.0000 -0.2500813769
O   O48       1.0  0.22230  0.16916  0.90410  1.0000 -0.2500813769
O   O49       1.0  0.82667  0.30693  0.71537  1.0000 -0.6254137707
O   O50       1.0  0.17333  0.80693  0.78463  1.0000 -0.6254137707
O   O51       1.0  0.17333  0.69307  0.28463  1.0000 -0.6254137707
O   O52       1.0  0.82667  0.19307  0.21537  1.0000 -0.6254137707
O   O53       1.0  0.73759  0.32137  0.77699  1.0000 -0.6225548339
O   O54       1.0  0.26241  0.82137  0.72301  1.0000 -0.6225548339
O   O55       1.0  0.26241  0.67863  0.22301  1.0000 -0.6225548339
O   O56       1.0  0.73759  0.17863  0.27699  1.0000 -0.6225548339
O   O57       1.0  0.06944  0.66398  0.81704  1.0000 -0.5936093879
O   O58       1.0  0.93056  0.16398  0.68296  1.0000 -0.5936093879
O   O59       1.0  0.93056  0.33602  0.18296  1.0000 -0.5936093879
O   O60       1.0  0.06944  0.83602  0.31704  1.0000 -0.5936093879
O   O61       1.0  0.97573  0.67867  0.72503  1.0000 -0.6225548339
O   O62       1.0  0.02427  0.17867  0.77497  1.0000 -0.6225548339
O   O63       1.0  0.02427  0.32133  0.27497  1.0000 -0.6225548339
O   O64       1.0  0.97573  0.82133  0.22503  1.0000 -0.6225548339
O   O65       1.0  0.70434  0.46841  0.83384  1.0000 -0.3005707653
O   O66       1.0  0.29566  0.96841  0.66616  1.0000 -0.3005707653
O   O67       1.0  0.29566  0.53159  0.16616  1.0000 -0.3005707653
O   O68       1.0  0.70434  0.03159  0.33384  1.0000 -0.3005707653
O   O69       1.0  0.71960  0.52316  0.78150  1.0000 -0.3005707653
O   O70       1.0  0.28040  0.02316  0.71850  1.0000 -0.3005707653
O   O71       1.0  0.28040  0.47684  0.21850  1.0000 -0.3005707653
O   O72       1.0  0.71960  0.97684  0.28150  1.0000 -0.3005707653
O   O73       1.0  0.03390  0.42344  0.67450  1.0000 -0.3115030873
O   O74       1.0  0.96610  0.92344  0.82550  1.0000 -0.3115030873
O   O75       1.0  0.96610  0.57656  0.32550  1.0000 -0.3115030873
O   O76       1.0  0.03390  0.07656  0.17450  1.0000 -0.3115030873
O   O77       1.0  0.98450  0.49068  0.67210  1.0000 -0.2904060462
O   O78       1.0  0.01550  0.99068  0.82790  1.0000 -0.2904060462
O   O79       1.0  0.01550  0.50932  0.32790  1.0000 -0.2904060462
O   O80       1.0  0.98450  0.00932  0.17210  1.0000 -0.2904060462
O   O81       1.0  0.71860  0.50355  0.63960  1.0000 -0.3115030873
O   O82       1.0  0.28140  0.00355  0.86040  1.0000 -0.3115030873
O   O83       1.0  0.28140  0.49645  0.36040  1.0000 -0.3115030873
O   O84       1.0  0.71860  0.99645  0.13960  1.0000 -0.3115030873
O   O85       1.0  0.73730  0.56685  0.60650  1.0000 -0.2904060462
O   O86       1.0  0.26270  0.06685  0.89350  1.0000 -0.2836597216
O   O87       1.0  0.26270  0.43315  0.39350  1.0000 -0.2904060462
O   O88       1.0  0.73730  0.93315  0.10650  1.0000 -0.2904060462
O   O89       1.0  0.01800  0.46549  0.83700  1.0000 -0.3115030873
O   O90       1.0  0.98200  0.96549  0.66300  1.0000 -0.3115030873
O   O91       1.0  0.98200  0.53451  0.16300  1.0000 -0.320734213
O   O92       1.0  0.01800  0.03451  0.33700  1.0000 -0.320734213
O   O93       1.0  0.03000  0.51979  0.89460  1.0000 -0.2633186027
O   O94       1.0  0.97000  0.01979  0.60540  1.0000 -0.2633186027
O   O95       1.0  0.97000  0.48021  0.10540  1.0000 -0.2633186027
O   O96       1.0  0.03000  0.98021  0.39460  1.0000 -0.2633186027
O   O97       1.0  0.79031  0.16615  0.74741  1.0000 -0.6010971816
O   O98       1.0  0.20969  0.66615  0.75259  1.0000 -0.6010971816
O   O99       1.0  0.20969  0.83385  0.25259  1.0000 -0.6010971816
O   O100      1.0  0.79031  0.33385  0.24741  1.0000 -0.6010971816
O   O101      1.0  0.67515  0.18005  0.79495  1.0000 -0.6355739784
O   O102      1.0  0.32485  0.68005  0.70505  1.0000 -0.6355739784
O   O103      1.0  0.32485  0.81995  0.20505  1.0000 -0.6355739784
O   O104      1.0  0.67515  0.31995  0.29495  1.0000 -0.6355739784
O   O105      1.0  0.42749  0.82388  0.66889  1.0000 -0.6010971816
O   O106      1.0  0.57251  0.32388  0.83111  1.0000 -0.6010971816
O   O107      1.0  0.57251  0.17612  0.33111  1.0000 -0.6010971816
O   O108      1.0  0.42749  0.67612  0.16889  1.0000 -0.6010971816
O   O109      1.0  0.48811  0.81334  0.76451  1.0000 -0.5936093879
O   O110      1.0  0.51189  0.31334  0.73549  1.0000 -0.5936093879
O   O111      1.0  0.51189  0.18666  0.23549  1.0000 -0.5936093879
O   O112      1.0  0.48811  0.68666  0.26451  1.0000 -0.5936093879
O   O113      1.0  0.78970  0.02020  0.66710  1.0000 -0.3115030873
O   O114      1.0  0.21030  0.52020  0.83290  1.0000 -0.3115030873
O   O115      1.0  0.21030  0.97980  0.33290  1.0000 -0.3115030873
O   O116      1.0  0.78970  0.47980  0.16710  1.0000 -0.3115030873
O   O117      1.0  0.78820  0.96705  0.72470  1.0000 -0.3005707653
O   O118      1.0  0.21180  0.46705  0.77530  1.0000 -0.3005707653
O   O119      1.0  0.21180  0.03295  0.27530  1.0000 -0.3005707653
O   O120      1.0  0.78820  0.53295  0.22470  1.0000 -0.3005707653
O   O121      1.0  0.45830  0.06384  0.82560  1.0000 -0.3005707653
O   O122      1.0  0.54170  0.56384  0.67440  1.0000 -0.3005707653
O   O123      1.0  0.54170  0.93616  0.17440  1.0000 -0.3005707653
O   O124      1.0  0.45830  0.43616  0.32560  1.0000 -0.3005707653
O   O125      1.0  0.48560  0.99586  0.81160  1.0000 -0.3115030873
O   O126      1.0  0.51440  0.49586  0.68840  1.0000 -0.3115030873
O   O127      1.0  0.51440  0.00414  0.18840  1.0000 -0.3115030873
O   O128      1.0  0.48560  0.50414  0.31160  1.0000 -0.3115030873
O   O129      1.0  0.48390  0.02350  0.65480  1.0000 -0.320734213
O   O130      1.0  0.51610  0.52350  0.84520  1.0000 -0.320734213
O   O131      1.0  0.51610  0.97650  0.34520  1.0000 -0.320734213
O   O132      1.0  0.48390  0.47650  0.15480  1.0000 -0.320734213
O   O133      1.0  0.49140  0.97002  0.59820  1.0000 -0.2904060462
O   O134      1.0  0.50860  0.47002  0.90180  1.0000 -0.2904060462
O   O135      1.0  0.50860  0.02998  0.40180  1.0000 -0.2904060462
O   O136      1.0  0.49140  0.52998  0.09820  1.0000 -0.2904060462
O   O137      1.0  0.75710  0.98246  0.86100  1.0000 -0.2500813769
O   O138      1.0  0.24290  0.48246  0.63900  1.0000 -0.2500813769
O   O139      1.0  0.24290  0.01754  0.13900  1.0000 -0.2500813769
O   O140      1.0  0.75710  0.51754  0.36100  1.0000 -0.2633186027
O   O141      1.0  0.74420  0.91880  0.88620  1.0000 -0.2388229397
O   O142      1.0  0.25580  0.41880  0.61380  1.0000 -0.2388229397
O   O143      1.0  0.25580  0.08120  0.11380  1.0000 -0.2388229397
O   O144      1.0  0.74420  0.58120  0.38620  1.0000 -0.2388229397
O   O145      1.0  0.96307  0.25735  0.66497  1.0000 -0.5621495199
O   O146      1.0  0.03693  0.75735  0.83503  1.0000 -0.5621495199
O   O147      1.0  0.03693  0.74265  0.33503  1.0000 -0.5621495199
O   O148      1.0  0.96307  0.24265  0.16497  1.0000 -0.5621495199
O   O149      1.0  0.03037  0.27460  0.78577  1.0000 -0.4770025787
O   O150      1.0  0.96963  0.77460  0.71423  1.0000 -0.4770025787
O   O151      1.0  0.96963  0.72540  0.21423  1.0000 -0.4770025787
O   O152      1.0  0.03037  0.22540  0.28577  1.0000 -0.4770025787
O   O153      1.0  0.60090  0.22828  0.87420  1.0000 -0.5314349783
O   O154      1.0  0.39910  0.72828  0.62580  1.0000 -0.5314349783
O   O155      1.0  0.39910  0.77172  0.12580  1.0000 -0.5314349783
O   O156      1.0  0.60090  0.27172  0.37420  1.0000 -0.5314349783
O   O157      1.0  0.46860  0.22662  0.75490  1.0000 -0.5314349783
O   O158      1.0  0.53140  0.72662  0.74510  1.0000 -0.5314349783
O   O159      1.0  0.53140  0.77338  0.24510  1.0000 -0.5314349783
O   O160      1.0  0.46860  0.27338  0.25490  1.0000 -0.5314349783
