# DDEC6 charges by PACMAN v1.1 (https://github.com/mtap-research/PACMAN-charge/)
data_2012[Cd][bbf]3[FSR]1
_chemical_formula_sum              "Cd4 H56 C60 N12 O20"
_cell_length_a       11.443
_cell_length_b       9.828
_cell_length_c       19.074
_cell_angle_alpha    90
_cell_angle_beta     107.249
_cell_angle_gamma    90

_symmetry_space_group_name_H-M    "P 1"
_symmetry_Int_Tables_number       1

loop_
  _symmetry_equiv_pos_as_xyz
  'x, y, z'

loop_
  _atom_site_type_symbol
  _atom_site_label
  _atom_site_symmetry_multiplicity
  _atom_site_fract_x
  _atom_site_fract_y
  _atom_site_fract_z
  _atom_site_occupancy
  _atom_site_charge
Cd  Cd1       1.0  0.65015  0.68210  0.25848  1.0000 0.8462178378
Cd  Cd2       1.0  0.34985  0.18210  0.24152  1.0000 0.8462178378
Cd  Cd3       1.0  0.34985  0.31790  0.74152  1.0000 0.8462178378
Cd  Cd4       1.0  0.65015  0.81790  0.75848  1.0000 0.8462178378
H   H1        1.0  0.89040  0.79100  0.37840  1.0000 0.1208374953
H   H2        1.0  0.10960  0.29100  0.12160  1.0000 0.1208374953
H   H3        1.0  0.10960  0.20900  0.62160  1.0000 0.1208374953
H   H4        1.0  0.89040  0.70900  0.87840  1.0000 0.1208374953
H   H5        1.0  0.10010  0.79450  0.41330  1.0000 0.1388065932
H   H6        1.0  0.89990  0.29450  0.08670  1.0000 0.1388065932
H   H7        1.0  0.89990  0.20550  0.58670  1.0000 0.1388065932
H   H8        1.0  0.10010  0.70550  0.91330  1.0000 0.1388065932
H   H9        1.0  0.08780  0.54880  0.24330  1.0000 0.1450735448
H   H10       1.0  0.91220  0.04880  0.25670  1.0000 0.1450735448
H   H11       1.0  0.91220  0.45120  0.75670  1.0000 0.1450735448
H   H12       1.0  0.08780  0.95120  0.74330  1.0000 0.1450735448
H   H13       1.0  0.87730  0.55860  0.21010  1.0000 0.1071692823
H   H14       1.0  0.12270  0.05860  0.28990  1.0000 0.1071692823
H   H15       1.0  0.12270  0.44140  0.78990  1.0000 0.1071692823
H   H16       1.0  0.87730  0.94140  0.71010  1.0000 0.1071692823
H   H17       1.0  0.28380  0.60840  0.32300  1.0000 0.1293174086
H   H18       1.0  0.71620  0.10840  0.17700  1.0000 0.1388065932
H   H19       1.0  0.71620  0.39160  0.67700  1.0000 0.1293174086
H   H20       1.0  0.28380  0.89160  0.82300  1.0000 0.1293174086
H   H21       1.0  0.28480  0.63140  0.40620  1.0000 0.1293174086
H   H22       1.0  0.71520  0.13140  0.09380  1.0000 0.1293174086
H   H23       1.0  0.71520  0.36860  0.59380  1.0000 0.1293174086
H   H24       1.0  0.28480  0.86860  0.90620  1.0000 0.1293174086
H   H25       1.0  0.37520  0.85780  0.46480  1.0000 0.1293174086
H   H26       1.0  0.62480  0.35780  0.03520  1.0000 0.1293174086
H   H27       1.0  0.62480  0.14220  0.53520  1.0000 0.1293174086
H   H28       1.0  0.37520  0.64220  0.96480  1.0000 0.1293174086
H   H29       1.0  0.43890  0.07030  0.41830  1.0000 0.1208374953
H   H30       1.0  0.56110  0.57030  0.08170  1.0000 0.1208374953
H   H31       1.0  0.56110  0.92970  0.58170  1.0000 0.1208374953
H   H32       1.0  0.43890  0.42970  0.91830  1.0000 0.1208374953
H   H33       1.0  0.26800  0.89370  0.18430  1.0000 0.1685683621
H   H34       1.0  0.73200  0.39370  0.31570  1.0000 0.1685683621
H   H35       1.0  0.73200  0.10630  0.81570  1.0000 0.1685683621
H   H36       1.0  0.26800  0.60630  0.68430  1.0000 0.1685683621
H   H37       1.0  0.29990  0.74080  0.21250  1.0000 0.1685683621
H   H38       1.0  0.70010  0.24080  0.28750  1.0000 0.1685683621
H   H39       1.0  0.70010  0.25920  0.78750  1.0000 0.1685683621
H   H40       1.0  0.29990  0.75920  0.71250  1.0000 0.1685683621
H   H41       1.0  0.17010  0.80530  0.20960  1.0000 0.1388065932
H   H42       1.0  0.82990  0.30530  0.29040  1.0000 0.1388065932
H   H43       1.0  0.82990  0.19470  0.79040  1.0000 0.1388065932
H   H44       1.0  0.17010  0.69470  0.70960  1.0000 0.1388065932
H   H45       1.0  0.63330  0.68090  0.50800  1.0000 0.1293174086
H   H46       1.0  0.36670  0.18090  0.99200  1.0000 0.1293174086
H   H47       1.0  0.36670  0.31910  0.49200  1.0000 0.1293174086
H   H48       1.0  0.63330  0.81910  0.00800  1.0000 0.1293174086
H   H49       1.0  0.62600  0.95570  0.27380  1.0000 0.3573260127
H   H50       1.0  0.37400  0.45570  0.22620  1.0000 0.3573260127
H   H51       1.0  0.37400  0.04430  0.72620  1.0000 0.3573260127
H   H52       1.0  0.62600  0.54430  0.77380  1.0000 0.3573260127
H   H53       1.0  0.57780  0.89770  0.32480  1.0000 0.3292957066
H   H54       1.0  0.42220  0.39770  0.17520  1.0000 0.3292957066
H   H55       1.0  0.42220  0.10230  0.67520  1.0000 0.3292957066
H   H56       1.0  0.57780  0.60230  0.82480  1.0000 0.3292957066
C   C1        1.0  0.93130  0.74060  0.35020  1.0000 0.0758855535
C   C2        1.0  0.06870  0.24060  0.14980  1.0000 0.0758855535
C   C3        1.0  0.06870  0.25940  0.64980  1.0000 0.0758855535
C   C4        1.0  0.93130  0.75940  0.85020  1.0000 0.0758855535
C   C5        1.0  0.05620  0.74330  0.37160  1.0000 -0.2003102632
C   C6        1.0  0.94380  0.24330  0.12840  1.0000 -0.2003102632
C   C7        1.0  0.94380  0.25670  0.62840  1.0000 -0.2003102632
C   C8        1.0  0.05620  0.75670  0.87160  1.0000 -0.2003102632
C   C9        1.0  0.11760  0.67080  0.33190  1.0000 0.1450735448
C   C10       1.0  0.88240  0.17080  0.16810  1.0000 0.1450735448
C   C11       1.0  0.88240  0.32920  0.66810  1.0000 0.1388065932
C   C12       1.0  0.11760  0.82920  0.83190  1.0000 0.1388065932
C   C13       1.0  0.04880  0.60070  0.27200  1.0000 -0.2003102632
C   C14       1.0  0.95120  0.10070  0.22800  1.0000 -0.2003102632
C   C15       1.0  0.95120  0.39930  0.72800  1.0000 -0.2003102632
C   C16       1.0  0.04880  0.89930  0.77200  1.0000 -0.2003102632
C   C17       1.0  0.92310  0.60520  0.25310  1.0000 0.0758855535
C   C18       1.0  0.07690  0.10520  0.24690  1.0000 0.0758855535
C   C19       1.0  0.07690  0.39480  0.74690  1.0000 0.0758855535
C   C20       1.0  0.92310  0.89480  0.75310  1.0000 0.0758855535
C   C21       1.0  0.25530  0.66930  0.35590  1.0000 -0.1592804896
C   C22       1.0  0.74470  0.16930  0.14410  1.0000 -0.1592804896
C   C23       1.0  0.74470  0.33070  0.64410  1.0000 -0.1592804896
C   C24       1.0  0.25530  0.83070  0.85590  1.0000 -0.1592804896
C   C25       1.0  0.36320  0.88080  0.41480  1.0000 -0.1126809152
C   C26       1.0  0.63680  0.38080  0.08520  1.0000 -0.1126809152
C   C27       1.0  0.63680  0.11920  0.58520  1.0000 -0.1126809152
C   C28       1.0  0.36320  0.61920  0.91480  1.0000 -0.1126809152
C   C29       1.0  0.39710  0.99700  0.38890  1.0000 -0.0506482528
C   C30       1.0  0.60290  0.49700  0.11110  1.0000 -0.0506482528
C   C31       1.0  0.60290  0.00300  0.61110  1.0000 -0.0506482528
C   C32       1.0  0.39710  0.50300  0.88890  1.0000 -0.0506482528
C   C33       1.0  0.30920  0.87460  0.29470  1.0000 0.3241071371
C   C34       1.0  0.69080  0.37460  0.20530  1.0000 0.3241071371
C   C35       1.0  0.69080  0.12540  0.70530  1.0000 0.3241071371
C   C36       1.0  0.30920  0.62540  0.79470  1.0000 0.3241071371
C   C37       1.0  0.25750  0.82440  0.21890  1.0000 -0.5287519129
C   C38       1.0  0.74250  0.32440  0.28110  1.0000 -0.5287519129
C   C39       1.0  0.74250  0.17560  0.78110  1.0000 -0.5287519129
C   C40       1.0  0.25750  0.67560  0.71890  1.0000 -0.5287519129
C   C41       1.0  0.57820  0.60720  0.50460  1.0000 -0.1545423263
C   C42       1.0  0.42180  0.10720  0.99540  1.0000 -0.1545423263
C   C43       1.0  0.42180  0.39280  0.49540  1.0000 -0.1545423263
C   C44       1.0  0.57820  0.89280  0.00460  1.0000 -0.1545423263
C   C45       1.0  0.53960  0.53420  0.43950  1.0000 -0.0322308181
C   C46       1.0  0.46040  0.03420  0.06050  1.0000 -0.0322308181
C   C47       1.0  0.46040  0.46580  0.56050  1.0000 -0.0322308181
C   C48       1.0  0.53960  0.96580  0.93950  1.0000 -0.0322308181
C   C49       1.0  0.46120  0.42380  0.43550  1.0000 -0.0322308181
C   C50       1.0  0.53880  0.92380  0.06450  1.0000 -0.0322308181
C   C51       1.0  0.53880  0.57620  0.56450  1.0000 -0.0322308181
C   C52       1.0  0.46120  0.07620  0.93550  1.0000 -0.0322308181
C   C53       1.0  0.58000  0.57990  0.37510  1.0000 0.5581572173
C   C54       1.0  0.42000  0.07990  0.12490  1.0000 0.5581572173
C   C55       1.0  0.42000  0.42010  0.62490  1.0000 0.5581572173
C   C56       1.0  0.58000  0.92010  0.87510  1.0000 0.5581572173
C   C57       1.0  0.42340  0.33460  0.36900  1.0000 0.5402255176
C   C58       1.0  0.57660  0.83460  0.13100  1.0000 0.5402255176
C   C59       1.0  0.57660  0.66540  0.63100  1.0000 0.5402255176
C   C60       1.0  0.42340  0.16540  0.86900  1.0000 0.5402255176
N   N1        1.0  0.86290  0.67160  0.29220  1.0000 -0.2189399333
N   N2        1.0  0.13710  0.17160  0.20780  1.0000 -0.2189399333
N   N3        1.0  0.13710  0.32840  0.70780  1.0000 -0.2189399333
N   N4        1.0  0.86290  0.82840  0.79220  1.0000 -0.2189399333
N   N5        1.0  0.30840  0.80280  0.35540  1.0000 0.0032862692
N   N6        1.0  0.69160  0.30280  0.14460  1.0000 0.0032862692
N   N7        1.0  0.69160  0.19720  0.64460  1.0000 0.0032862692
N   N8        1.0  0.30840  0.69720  0.85540  1.0000 0.0032862692
N   N9        1.0  0.36170  0.99330  0.31360  1.0000 -0.3754759909
N   N10       1.0  0.63830  0.49330  0.18640  1.0000 -0.3754759909
N   N11       1.0  0.63830  0.00670  0.68640  1.0000 -0.3749996604
N   N12       1.0  0.36170  0.50670  0.81360  1.0000 -0.3754759909
O   O1        1.0  0.50210  0.58940  0.31320  1.0000 -0.5567158343
O   O2        1.0  0.49790  0.08940  0.18680  1.0000 -0.5567158343
O   O3        1.0  0.49790  0.41060  0.68680  1.0000 -0.5567158343
O   O4        1.0  0.50210  0.91060  0.81320  1.0000 -0.5567158343
O   O5        1.0  0.63790  0.89570  0.30720  1.0000 -0.6522342445
O   O6        1.0  0.36210  0.39570  0.19280  1.0000 -0.6522342445
O   O7        1.0  0.36210  0.10430  0.69280  1.0000 -0.6522342445
O   O8        1.0  0.63790  0.60430  0.80720  1.0000 -0.6522342445
O   O9        1.0  0.68980  0.61390  0.38530  1.0000 -0.5467571499
O   O10       1.0  0.31020  0.11390  0.11470  1.0000 -0.5467571499
O   O11       1.0  0.31020  0.38610  0.61470  1.0000 -0.5467571499
O   O12       1.0  0.68980  0.88610  0.88530  1.0000 -0.5467571499
O   O13       1.0  0.31180  0.31800  0.33900  1.0000 -0.5411085965
O   O14       1.0  0.68820  0.81800  0.16100  1.0000 -0.5411085965
O   O15       1.0  0.68820  0.68200  0.66100  1.0000 -0.5411085965
O   O16       1.0  0.31180  0.18200  0.83900  1.0000 -0.5411085965
O   O17       1.0  0.50350  0.28300  0.34580  1.0000 -0.5185378076
O   O18       1.0  0.49650  0.78300  0.15420  1.0000 -0.5185378076
O   O19       1.0  0.49650  0.71700  0.65420  1.0000 -0.5185378076
O   O20       1.0  0.50350  0.21700  0.84580  1.0000 -0.5185378076
