# DDEC6 charges by PACMAN v1.1 (https://github.com/mtap-research/PACMAN-charge/)
data_2012[MoCo][mmo]3[FSR]1
_chemical_formula_sum              "Co3 Mo3 H60 C72 N12 O12"
_cell_length_a       13.6822
_cell_length_b       13.6822
_cell_length_c       13.6822
_cell_angle_alpha    102.353
_cell_angle_beta     102.353
_cell_angle_gamma    102.353

_symmetry_space_group_name_H-M    "P 1"
_symmetry_Int_Tables_number       1

loop_
  _symmetry_equiv_pos_as_xyz
  'x, y, z'

loop_
  _atom_site_type_symbol
  _atom_site_label
  _atom_site_symmetry_multiplicity
  _atom_site_fract_x
  _atom_site_fract_y
  _atom_site_fract_z
  _atom_site_occupancy
  _atom_site_charge
Co  Co1       1.0  0.50000  0.11708  0.88292  1.0000 0.8177773501
Co  Co2       1.0  0.11708  0.88292  0.50000  1.0000 0.8177773501
Co  Co3       1.0  0.88292  0.50000  0.11708  1.0000 0.8177773501
Mo  Mo1       1.0  0.79279  0.20721  0.00000  1.0000 1.9487950549
Mo  Mo2       1.0  0.20721  0.00000  0.79279  1.0000 1.9487950549
Mo  Mo3       1.0  0.00000  0.79279  0.20721  1.0000 1.9487950549
H   H1        1.0  0.66340  0.11840  0.75170  1.0000 0.1066863508
H   H2        1.0  0.11840  0.75170  0.66340  1.0000 0.1066863508
H   H3        1.0  0.75170  0.66340  0.11840  1.0000 0.1066863508
H   H4        1.0  0.88160  0.33660  0.24830  1.0000 0.1066863508
H   H5        1.0  0.24830  0.88160  0.33660  1.0000 0.1066863508
H   H6        1.0  0.33660  0.24830  0.88160  1.0000 0.1066863508
H   H7        1.0  0.68250  0.13440  0.59270  1.0000 0.1327909078
H   H8        1.0  0.13440  0.59270  0.68250  1.0000 0.1327909078
H   H9        1.0  0.59270  0.68250  0.13440  1.0000 0.1327909078
H   H10       1.0  0.86560  0.31750  0.40730  1.0000 0.1327909078
H   H11       1.0  0.40730  0.86560  0.31750  1.0000 0.1327909078
H   H12       1.0  0.31750  0.40730  0.86560  1.0000 0.1327909078
H   H13       1.0  0.38350  0.13960  0.51300  1.0000 0.1187774899
H   H14       1.0  0.13960  0.51300  0.38350  1.0000 0.1187774899
H   H15       1.0  0.51300  0.38350  0.13960  1.0000 0.1187774899
H   H16       1.0  0.86040  0.61650  0.48700  1.0000 0.1187774899
H   H17       1.0  0.48700  0.86040  0.61650  1.0000 0.1187774899
H   H18       1.0  0.61650  0.48700  0.86040  1.0000 0.1187774899
H   H19       1.0  0.37190  0.12070  0.67280  1.0000 0.1044143558
H   H20       1.0  0.12070  0.67280  0.37190  1.0000 0.1044143558
H   H21       1.0  0.67280  0.37190  0.12070  1.0000 0.1044143558
H   H22       1.0  0.87930  0.62810  0.32720  1.0000 0.1044143558
H   H23       1.0  0.32720  0.87930  0.62810  1.0000 0.1044143558
H   H24       1.0  0.62810  0.32720  0.87930  1.0000 0.1044143558
H   H25       1.0  0.61080  0.14250  0.41810  1.0000 0.1187774899
H   H26       1.0  0.14250  0.41810  0.61080  1.0000 0.1187774899
H   H27       1.0  0.41810  0.61080  0.14250  1.0000 0.1187774899
H   H28       1.0  0.85750  0.38920  0.58190  1.0000 0.1187774899
H   H29       1.0  0.58190  0.85750  0.38920  1.0000 0.1187774899
H   H30       1.0  0.38920  0.58190  0.85750  1.0000 0.1187774899
H   H31       1.0  0.40740  0.14880  0.36380  1.0000 0.1187774899
H   H32       1.0  0.14880  0.36380  0.40740  1.0000 0.1187774899
H   H33       1.0  0.36380  0.40740  0.14880  1.0000 0.1187774899
H   H34       1.0  0.85120  0.59260  0.63620  1.0000 0.1187774899
H   H35       1.0  0.63620  0.85120  0.59260  1.0000 0.1187774899
H   H36       1.0  0.59260  0.63620  0.85120  1.0000 0.1187774899
H   H37       1.0  0.34430  0.17650  0.19370  1.0000 0.1327909078
H   H38       1.0  0.17650  0.19370  0.34430  1.0000 0.1327909078
H   H39       1.0  0.19370  0.34430  0.17650  1.0000 0.1327909078
H   H40       1.0  0.82350  0.65570  0.80630  1.0000 0.1327909078
H   H41       1.0  0.80630  0.82350  0.65570  1.0000 0.1327909078
H   H42       1.0  0.65570  0.80630  0.82350  1.0000 0.1327909078
H   H43       1.0  0.35570  0.16480  0.02630  1.0000 0.1066863508
H   H44       1.0  0.16480  0.02630  0.35570  1.0000 0.1066863508
H   H45       1.0  0.02630  0.35570  0.16480  1.0000 0.1066863508
H   H46       1.0  0.83520  0.64430  0.97370  1.0000 0.1066863508
H   H47       1.0  0.97370  0.83520  0.64430  1.0000 0.1066863508
H   H48       1.0  0.64430  0.97370  0.83520  1.0000 0.1066863508
H   H49       1.0  0.62170  0.09900  0.08920  1.0000 0.1066863508
H   H50       1.0  0.09900  0.08920  0.62170  1.0000 0.1066863508
H   H51       1.0  0.08920  0.62170  0.09900  1.0000 0.1066863508
H   H52       1.0  0.90100  0.37830  0.91080  1.0000 0.1066863508
H   H53       1.0  0.91080  0.90100  0.37830  1.0000 0.1066863508
H   H54       1.0  0.37830  0.91080  0.90100  1.0000 0.1066863508
H   H55       1.0  0.61960  0.11040  0.25810  1.0000 0.1327909078
H   H56       1.0  0.11040  0.25810  0.61960  1.0000 0.1327909078
H   H57       1.0  0.25810  0.61960  0.11040  1.0000 0.1327909078
H   H58       1.0  0.88960  0.38040  0.74190  1.0000 0.1327909078
H   H59       1.0  0.74190  0.88960  0.38040  1.0000 0.1327909078
H   H60       1.0  0.38040  0.74190  0.88960  1.0000 0.1327909078
C   C1        1.0  0.60563  0.12147  0.70218  1.0000 0.0841708732
C   C2        1.0  0.12147  0.70218  0.60563  1.0000 0.0841708732
C   C3        1.0  0.70218  0.60563  0.12147  1.0000 0.0841708732
C   C4        1.0  0.87853  0.39437  0.29782  1.0000 0.0841708732
C   C5        1.0  0.29782  0.87853  0.39437  1.0000 0.0841708732
C   C6        1.0  0.39437  0.29782  0.87853  1.0000 0.0841708732
C   C7        1.0  0.61786  0.13124  0.60710  1.0000 -0.2099791012
C   C8        1.0  0.13124  0.60710  0.61786  1.0000 -0.2099791012
C   C9        1.0  0.60710  0.61786  0.13124  1.0000 -0.2099791012
C   C10       1.0  0.86876  0.38214  0.39290  1.0000 -0.2099791012
C   C11       1.0  0.39290  0.86876  0.38214  1.0000 -0.2099791012
C   C12       1.0  0.38214  0.39290  0.86876  1.0000 -0.2099791012
C   C13       1.0  0.53388  0.13631  0.53247  1.0000 0.1582934008
C   C14       1.0  0.13631  0.53247  0.53388  1.0000 0.1582934008
C   C15       1.0  0.53247  0.53388  0.13631  1.0000 0.1582934008
C   C16       1.0  0.86369  0.46612  0.46753  1.0000 0.1582934008
C   C17       1.0  0.46753  0.86369  0.46612  1.0000 0.1582934008
C   C18       1.0  0.46612  0.46753  0.86369  1.0000 0.1582934008
C   C19       1.0  0.44163  0.13391  0.56016  1.0000 -0.1986338811
C   C20       1.0  0.13391  0.56016  0.44163  1.0000 -0.1986338811
C   C21       1.0  0.56016  0.44163  0.13391  1.0000 -0.1986338811
C   C22       1.0  0.86609  0.55837  0.43984  1.0000 -0.1986338811
C   C23       1.0  0.43984  0.86609  0.55837  1.0000 -0.1986338811
C   C24       1.0  0.55837  0.43984  0.86609  1.0000 -0.1986338811
C   C25       1.0  0.43536  0.12323  0.65619  1.0000 0.0911440746
C   C26       1.0  0.12323  0.65619  0.43536  1.0000 0.0911440746
C   C27       1.0  0.65619  0.43536  0.12323  1.0000 0.0911440746
C   C28       1.0  0.87677  0.56464  0.34381  1.0000 0.0911440746
C   C29       1.0  0.34381  0.87677  0.56464  1.0000 0.0911440746
C   C30       1.0  0.56464  0.34381  0.87677  1.0000 0.0911440746
C   C31       1.0  0.54535  0.14140  0.42945  1.0000 -0.147730495
C   C32       1.0  0.14140  0.42945  0.54535  1.0000 -0.147730495
C   C33       1.0  0.42945  0.54535  0.14140  1.0000 -0.147730495
C   C34       1.0  0.85860  0.45465  0.57055  1.0000 -0.147730495
C   C35       1.0  0.57055  0.85860  0.45465  1.0000 -0.147730495
C   C36       1.0  0.45465  0.57055  0.85860  1.0000 -0.147730495
C   C37       1.0  0.47140  0.14470  0.35100  1.0000 -0.1420773719
C   C38       1.0  0.14470  0.35100  0.47140  1.0000 -0.1420773719
C   C39       1.0  0.35100  0.47140  0.14470  1.0000 -0.1420773719
C   C40       1.0  0.85530  0.52860  0.64900  1.0000 -0.1420773719
C   C41       1.0  0.64900  0.85530  0.52860  1.0000 -0.1420773719
C   C42       1.0  0.52860  0.64900  0.85530  1.0000 -0.1420773719
C   C43       1.0  0.48102  0.14250  0.24548  1.0000 0.1530787394
C   C44       1.0  0.14250  0.24548  0.48102  1.0000 0.1530787394
C   C45       1.0  0.24548  0.48102  0.14250  1.0000 0.1530787394
C   C46       1.0  0.85750  0.51898  0.75452  1.0000 0.1530787394
C   C47       1.0  0.75452  0.85750  0.51898  1.0000 0.1530787394
C   C48       1.0  0.51898  0.75452  0.85750  1.0000 0.1530787394
C   C49       1.0  0.40190  0.16000  0.17390  1.0000 -0.2099791012
C   C50       1.0  0.16000  0.17390  0.40190  1.0000 -0.2099791012
C   C51       1.0  0.17390  0.40190  0.16000  1.0000 -0.2099791012
C   C52       1.0  0.84000  0.59810  0.82610  1.0000 -0.2099791012
C   C53       1.0  0.82610  0.84000  0.59810  1.0000 -0.2099791012
C   C54       1.0  0.59810  0.82610  0.84000  1.0000 -0.2099791012
C   C55       1.0  0.40953  0.15286  0.07381  1.0000 0.0841708732
C   C56       1.0  0.15286  0.07381  0.40953  1.0000 0.0841708732
C   C57       1.0  0.07381  0.40953  0.15286  1.0000 0.0841708732
C   C58       1.0  0.84714  0.59047  0.92619  1.0000 0.0841708732
C   C59       1.0  0.92619  0.84714  0.59047  1.0000 0.0841708732
C   C60       1.0  0.59047  0.92619  0.84714  1.0000 0.0841708732
C   C61       1.0  0.56469  0.11480  0.11052  1.0000 0.0911440746
C   C62       1.0  0.11480  0.11052  0.56469  1.0000 0.0911440746
C   C63       1.0  0.11052  0.56469  0.11480  1.0000 0.0911440746
C   C64       1.0  0.88520  0.43531  0.88948  1.0000 0.0911440746
C   C65       1.0  0.88948  0.88520  0.43531  1.0000 0.0911440746
C   C66       1.0  0.43531  0.88948  0.88520  1.0000 0.0911440746
C   C67       1.0  0.56380  0.12090  0.21190  1.0000 -0.1986338811
C   C68       1.0  0.12090  0.21190  0.56380  1.0000 -0.1986338811
C   C69       1.0  0.21190  0.56380  0.12090  1.0000 -0.1986338811
C   C70       1.0  0.87910  0.43620  0.78810  1.0000 -0.1986338811
C   C71       1.0  0.78810  0.87910  0.43620  1.0000 -0.1986338811
C   C72       1.0  0.43620  0.78810  0.87910  1.0000 -0.1986338811
N   N1        1.0  0.48898  0.13015  0.04065  1.0000 -0.2226608772
N   N2        1.0  0.13015  0.04065  0.48898  1.0000 -0.2226608772
N   N3        1.0  0.04065  0.48898  0.13015  1.0000 -0.2226608772
N   N4        1.0  0.86985  0.51102  0.95935  1.0000 -0.2226608772
N   N5        1.0  0.95935  0.86985  0.51102  1.0000 -0.2226608772
N   N6        1.0  0.51102  0.95935  0.86985  1.0000 -0.2226608772
N   N7        1.0  0.51620  0.11621  0.72775  1.0000 -0.2309823114
N   N8        1.0  0.11621  0.72775  0.51620  1.0000 -0.2309823114
N   N9        1.0  0.72775  0.51620  0.11621  1.0000 -0.2309823114
N   N10       1.0  0.88379  0.48380  0.27225  1.0000 -0.2309823114
N   N11       1.0  0.27225  0.88379  0.48380  1.0000 -0.2309823114
N   N12       1.0  0.48380  0.27225  0.88379  1.0000 -0.2309823114
O   O1        1.0  0.85919  0.17868  0.90645  1.0000 -0.7917205944
O   O2        1.0  0.17868  0.90645  0.85919  1.0000 -0.7917205944
O   O3        1.0  0.90645  0.85919  0.17868  1.0000 -0.7917205944
O   O4        1.0  0.82132  0.14081  0.09355  1.0000 -0.7917205944
O   O5        1.0  0.09355  0.82132  0.14081  1.0000 -0.7917205944
O   O6        1.0  0.14081  0.09355  0.82132  1.0000 -0.7917205944
O   O7        1.0  0.65775  0.16875  0.93866  1.0000 -0.8720692251
O   O8        1.0  0.16875  0.93866  0.65775  1.0000 -0.8720692251
O   O9        1.0  0.93866  0.65775  0.16875  1.0000 -0.8720692251
O   O10       1.0  0.83125  0.34225  0.06134  1.0000 -0.8720692251
O   O11       1.0  0.06134  0.83125  0.34225  1.0000 -0.8720692251
O   O12       1.0  0.34225  0.06134  0.83125  1.0000 -0.8720692251
