# DDEC6 charges by PACMAN v1.1 (https://github.com/mtap-research/PACMAN-charge/)
data_2012[Gd][pcu]3[FSR]4
_chemical_formula_sum              "Gd8 H160 C216 N64 O160"
_cell_length_a       13.652
_cell_length_b       30.143
_cell_length_c       27.1727
_cell_angle_alpha    90
_cell_angle_beta     115.102
_cell_angle_gamma    90

_symmetry_space_group_name_H-M    "P 1"
_symmetry_Int_Tables_number       1

loop_
  _symmetry_equiv_pos_as_xyz
  'x, y, z'

loop_
  _atom_site_type_symbol
  _atom_site_label
  _atom_site_symmetry_multiplicity
  _atom_site_fract_x
  _atom_site_fract_y
  _atom_site_fract_z
  _atom_site_occupancy
  _atom_site_charge
Gd  Gd1       1.0  0.86459  0.25365  0.22222  1.0000 1.9919036377
Gd  Gd2       1.0  0.13541  0.75365  0.27778  1.0000 1.9919036377
Gd  Gd3       1.0  0.13541  0.74635  0.77778  1.0000 1.9919036377
Gd  Gd4       1.0  0.86459  0.24635  0.72222  1.0000 1.9919036377
Gd  Gd5       1.0  0.63732  0.22633  0.27732  1.0000 1.9919036377
Gd  Gd6       1.0  0.36268  0.72633  0.22268  1.0000 1.9919036377
Gd  Gd7       1.0  0.36268  0.77367  0.72268  1.0000 1.9919036377
Gd  Gd8       1.0  0.63732  0.27367  0.77732  1.0000 1.9919036377
H   H1        1.0  0.46190  0.20650  0.14140  1.0000 0.1566369768
H   H2        1.0  0.53810  0.70650  0.35860  1.0000 0.1566369768
H   H3        1.0  0.53810  0.79350  0.85860  1.0000 0.1566369768
H   H4        1.0  0.46190  0.29350  0.64140  1.0000 0.1566369768
H   H5        1.0  0.53620  0.30620  0.06570  1.0000 0.1488300489
H   H6        1.0  0.46380  0.80620  0.43430  1.0000 0.1488300489
H   H7        1.0  0.46380  0.69380  0.93430  1.0000 0.1488300489
H   H8        1.0  0.53620  0.19380  0.56570  1.0000 0.1488300489
H   H9        1.0  0.95100  0.29870  0.95330  1.0000 0.1488300489
H   H10       1.0  0.04900  0.79870  0.54670  1.0000 0.1488300489
H   H11       1.0  0.04900  0.70130  0.04670  1.0000 0.1488300489
H   H12       1.0  0.95100  0.20130  0.45330  1.0000 0.1488300489
H   H13       1.0  0.04730  0.22620  0.85860  1.0000 0.1488300489
H   H14       1.0  0.95270  0.72620  0.64140  1.0000 0.1488300489
H   H15       1.0  0.95270  0.77380  0.14140  1.0000 0.1488300489
H   H16       1.0  0.04730  0.27380  0.35860  1.0000 0.1488300489
H   H17       1.0  0.72540  0.08280  0.28330  1.0000 0.1488300489
H   H18       1.0  0.27460  0.58280  0.21670  1.0000 0.1488300489
H   H19       1.0  0.27460  0.91720  0.71670  1.0000 0.1488300489
H   H20       1.0  0.72540  0.41720  0.78330  1.0000 0.1488300489
H   H21       1.0  0.89490  0.10600  0.19710  1.0000 0.1382668784
H   H22       1.0  0.10510  0.60600  0.30290  1.0000 0.1382668784
H   H23       1.0  0.10510  0.89400  0.80290  1.0000 0.1382668784
H   H24       1.0  0.89490  0.39400  0.69710  1.0000 0.1382668784
H   H25       1.0  0.07160  0.89710  0.33160  1.0000 0.1488300489
H   H26       1.0  0.92840  0.39710  0.16840  1.0000 0.1488300489
H   H27       1.0  0.92840  0.10290  0.66840  1.0000 0.1488300489
H   H28       1.0  0.07160  0.60290  0.83160  1.0000 0.1488300489
H   H29       1.0  0.83760  0.86520  0.18850  1.0000 0.1488300489
H   H30       1.0  0.16240  0.36520  0.31150  1.0000 0.1488300489
H   H31       1.0  0.16240  0.13480  0.81150  1.0000 0.1488300489
H   H32       1.0  0.83760  0.63480  0.68850  1.0000 0.1488300489
H   H33       1.0  0.58750  0.36770  0.29440  1.0000 0.1382668784
H   H34       1.0  0.41250  0.86770  0.20560  1.0000 0.1382668784
H   H35       1.0  0.41250  0.63230  0.70560  1.0000 0.1382668784
H   H36       1.0  0.58750  0.13230  0.79440  1.0000 0.1382668784
H   H37       1.0  0.80570  0.40110  0.23930  1.0000 0.1488300489
H   H38       1.0  0.19430  0.90110  0.26070  1.0000 0.1488300489
H   H39       1.0  0.19430  0.59890  0.76070  1.0000 0.1488300489
H   H40       1.0  0.80570  0.09890  0.73930  1.0000 0.1488300489
H   H41       1.0  0.63010  0.60680  0.32130  1.0000 0.1382668784
H   H42       1.0  0.36990  0.10680  0.17870  1.0000 0.1382668784
H   H43       1.0  0.36990  0.39320  0.67870  1.0000 0.1382668784
H   H44       1.0  0.63010  0.89320  0.82130  1.0000 0.1382668784
H   H45       1.0  0.43880  0.58310  0.16470  1.0000 0.1488300489
H   H46       1.0  0.56120  0.08310  0.33530  1.0000 0.1488300489
H   H47       1.0  0.56120  0.41690  0.83530  1.0000 0.1488300489
H   H48       1.0  0.43880  0.91690  0.66470  1.0000 0.1488300489
H   H49       1.0  0.82830  0.17870  0.11420  1.0000 0.1201545288
H   H50       1.0  0.17170  0.67870  0.38580  1.0000 0.1201545288
H   H51       1.0  0.17170  0.82130  0.88580  1.0000 0.1201545288
H   H52       1.0  0.82830  0.32130  0.61420  1.0000 0.1201545288
H   H53       1.0  0.07270  0.23020  0.15500  1.0000 0.1301625216
H   H54       1.0  0.92730  0.73020  0.34500  1.0000 0.1301625216
H   H55       1.0  0.92730  0.76980  0.84500  1.0000 0.1301625216
H   H56       1.0  0.07270  0.26980  0.65500  1.0000 0.1301625216
H   H57       1.0  0.12520  0.19870  0.12700  1.0000 0.1096498958
H   H58       1.0  0.87480  0.69870  0.37300  1.0000 0.1096498958
H   H59       1.0  0.87480  0.80130  0.87300  1.0000 0.1096498958
H   H60       1.0  0.12520  0.30130  0.62700  1.0000 0.1096498958
H   H61       1.0  0.03150  0.23090  0.09160  1.0000 0.1096498958
H   H62       1.0  0.96850  0.73090  0.40840  1.0000 0.1096498958
H   H63       1.0  0.96850  0.76910  0.90840  1.0000 0.1096498958
H   H64       1.0  0.03150  0.26910  0.59160  1.0000 0.1096498958
H   H65       1.0  0.92490  0.11900  0.08710  1.0000 0.1301625216
H   H66       1.0  0.07510  0.61900  0.41290  1.0000 0.1301625216
H   H67       1.0  0.07510  0.88100  0.91290  1.0000 0.1301625216
H   H68       1.0  0.92490  0.38100  0.58710  1.0000 0.1301625216
H   H69       1.0  0.98220  0.14460  0.05630  1.0000 0.1301625216
H   H70       1.0  0.01780  0.64460  0.44370  1.0000 0.1301625216
H   H71       1.0  0.01780  0.85540  0.94370  1.0000 0.1301625216
H   H72       1.0  0.98220  0.35540  0.55630  1.0000 0.1301625216
H   H73       1.0  0.05140  0.12260  0.11280  1.0000 0.1301625216
H   H74       1.0  0.94860  0.62260  0.38720  1.0000 0.1301625216
H   H75       1.0  0.94860  0.87740  0.88720  1.0000 0.1301625216
H   H76       1.0  0.05140  0.37740  0.61280  1.0000 0.1301625216
H   H77       1.0  0.15820  0.20740  0.33120  1.0000 0.0482345495
H   H78       1.0  0.84180  0.70740  0.16880  1.0000 0.0482345495
H   H79       1.0  0.84180  0.79260  0.66880  1.0000 0.0482345495
H   H80       1.0  0.15820  0.29260  0.83120  1.0000 0.0482345495
H   H81       1.0  0.28410  0.22990  0.33960  1.0000 0.1201545288
H   H82       1.0  0.71590  0.72990  0.16040  1.0000 0.1201545288
H   H83       1.0  0.71590  0.77010  0.66040  1.0000 0.1201545288
H   H84       1.0  0.28410  0.27010  0.83960  1.0000 0.1201545288
H   H85       1.0  0.33400  0.18260  0.34200  1.0000 0.1301625216
H   H86       1.0  0.66600  0.68260  0.15800  1.0000 0.1301625216
H   H87       1.0  0.66600  0.81740  0.65800  1.0000 0.1301625216
H   H88       1.0  0.33400  0.31740  0.84200  1.0000 0.1301625216
H   H89       1.0  0.35470  0.22040  0.30790  1.0000 0.1096498958
H   H90       1.0  0.64530  0.72040  0.19210  1.0000 0.1096498958
H   H91       1.0  0.64530  0.77960  0.69210  1.0000 0.1096498958
H   H92       1.0  0.35470  0.27960  0.80790  1.0000 0.1096498958
H   H93       1.0  0.11850  0.15460  0.20150  1.0000 0.1026005849
H   H94       1.0  0.88150  0.65460  0.29850  1.0000 0.1026005849
H   H95       1.0  0.88150  0.84540  0.79850  1.0000 0.1026005849
H   H96       1.0  0.11850  0.34540  0.70150  1.0000 0.1026005849
H   H97       1.0  0.24400  0.14730  0.22610  1.0000 0.1096498958
H   H98       1.0  0.75600  0.64730  0.27390  1.0000 0.1096498958
H   H99       1.0  0.75600  0.85270  0.77390  1.0000 0.1096498958
H   H100      1.0  0.24400  0.35270  0.72610  1.0000 0.1096498958
H   H101      1.0  0.17630  0.12650  0.25470  1.0000 0.1201545288
H   H102      1.0  0.82370  0.62650  0.24530  1.0000 0.1201545288
H   H103      1.0  0.82370  0.87350  0.74530  1.0000 0.1201545288
H   H104      1.0  0.17630  0.37350  0.75470  1.0000 0.1201545288
H   H105      1.0  0.37560  0.26920  0.24740  1.0000 0.1096498958
H   H106      1.0  0.62440  0.76920  0.25260  1.0000 0.1096498958
H   H107      1.0  0.62440  0.73080  0.75260  1.0000 0.1096498958
H   H108      1.0  0.37560  0.23080  0.74740  1.0000 0.1096498958
H   H109      1.0  0.26740  0.31610  0.24860  1.0000 0.1201545288
H   H110      1.0  0.73260  0.81610  0.25140  1.0000 0.1301625216
H   H111      1.0  0.73260  0.68390  0.75140  1.0000 0.1301625216
H   H112      1.0  0.26740  0.18390  0.74860  1.0000 0.1201545288
H   H113      1.0  0.21620  0.35090  0.20180  1.0000 0.1382668784
H   H114      1.0  0.78380  0.85090  0.29820  1.0000 0.1382668784
H   H115      1.0  0.78380  0.64910  0.79820  1.0000 0.1382668784
H   H116      1.0  0.21620  0.14910  0.70180  1.0000 0.1382668784
H   H117      1.0  0.19790  0.30010  0.18890  1.0000 0.1201545288
H   H118      1.0  0.80210  0.80010  0.31110  1.0000 0.1201545288
H   H119      1.0  0.80210  0.69990  0.81110  1.0000 0.1201545288
H   H120      1.0  0.19790  0.19990  0.68890  1.0000 0.1201545288
H   H121      1.0  0.44030  0.33950  0.16630  1.0000 0.1201545288
H   H122      1.0  0.55970  0.83950  0.33370  1.0000 0.1201545288
H   H123      1.0  0.55970  0.66050  0.83370  1.0000 0.1201545288
H   H124      1.0  0.44030  0.16050  0.66630  1.0000 0.1201545288
H   H125      1.0  0.31970  0.35360  0.13220  1.0000 0.1201545288
H   H126      1.0  0.68030  0.85360  0.36780  1.0000 0.1201545288
H   H127      1.0  0.68030  0.64640  0.86780  1.0000 0.1201545288
H   H128      1.0  0.31970  0.14640  0.63220  1.0000 0.1201545288
H   H129      1.0  0.39230  0.38000  0.18490  1.0000 0.1201545288
H   H130      1.0  0.60770  0.88000  0.31510  1.0000 0.1201545288
H   H131      1.0  0.60770  0.62000  0.81510  1.0000 0.1201545288
H   H132      1.0  0.39230  0.12000  0.68490  1.0000 0.1201545288
H   H133      1.0  0.71100  0.27650  0.39390  1.0000 0.1096498958
H   H134      1.0  0.28900  0.77650  0.10610  1.0000 0.1096498958
H   H135      1.0  0.28900  0.72350  0.60610  1.0000 0.1096498958
H   H136      1.0  0.71100  0.22350  0.89390  1.0000 0.1096498958
H   H137      1.0  0.74000  0.33240  0.45850  1.0000 0.1201545288
H   H138      1.0  0.26000  0.83240  0.04150  1.0000 0.1201545288
H   H139      1.0  0.26000  0.66760  0.54150  1.0000 0.1201545288
H   H140      1.0  0.74000  0.16760  0.95850  1.0000 0.1201545288
H   H141      1.0  0.65590  0.37130  0.44060  1.0000 0.1301625216
H   H142      1.0  0.34410  0.87130  0.05940  1.0000 0.1301625216
H   H143      1.0  0.34410  0.62870  0.55940  1.0000 0.1301625216
H   H144      1.0  0.65590  0.12870  0.94060  1.0000 0.1301625216
H   H145      1.0  0.64810  0.33370  0.47860  1.0000 0.1201545288
H   H146      1.0  0.35190  0.83370  0.02140  1.0000 0.1201545288
H   H147      1.0  0.35190  0.66630  0.52140  1.0000 0.1201545288
H   H148      1.0  0.64810  0.16630  0.97860  1.0000 0.1201545288
H   H149      1.0  0.45230  0.30850  0.40190  1.0000 0.1201545288
H   H150      1.0  0.54770  0.80850  0.09810  1.0000 0.1201545288
H   H151      1.0  0.54770  0.69150  0.59810  1.0000 0.1201545288
H   H152      1.0  0.45230  0.19150  0.90190  1.0000 0.1201545288
H   H153      1.0  0.47140  0.35520  0.38190  1.0000 0.1301625216
H   H154      1.0  0.52860  0.85520  0.11810  1.0000 0.1301625216
H   H155      1.0  0.52860  0.64480  0.61810  1.0000 0.1301625216
H   H156      1.0  0.47140  0.14480  0.88190  1.0000 0.1301625216
H   H157      1.0  0.44620  0.31400  0.34330  1.0000 0.1201545288
H   H158      1.0  0.55380  0.81400  0.15670  1.0000 0.1201545288
H   H159      1.0  0.55380  0.68600  0.65670  1.0000 0.1201545288
H   H160      1.0  0.44620  0.18600  0.84330  1.0000 0.1201545288
C   C1        1.0  0.63460  0.25500  0.15030  1.0000 0.6036744911
C   C2        1.0  0.36540  0.75500  0.34970  1.0000 0.6036744911
C   C3        1.0  0.36540  0.74500  0.84970  1.0000 0.6036744911
C   C4        1.0  0.63460  0.24500  0.65030  1.0000 0.6036744911
C   C5        1.0  0.51860  0.25570  0.10940  1.0000 0.0207599977
C   C6        1.0  0.48140  0.75570  0.39060  1.0000 0.0207599977
C   C7        1.0  0.48140  0.74430  0.89060  1.0000 0.0207599977
C   C8        1.0  0.51860  0.24430  0.60940  1.0000 0.0207599977
C   C9        1.0  0.44280  0.22610  0.11230  1.0000 -0.1293602184
C   C10       1.0  0.55720  0.72610  0.38770  1.0000 -0.1293602184
C   C11       1.0  0.55720  0.77390  0.88770  1.0000 -0.1293602184
C   C12       1.0  0.44280  0.27390  0.61230  1.0000 -0.1293602184
C   C13       1.0  0.33980  0.22620  0.07170  1.0000 0.0293896328
C   C14       1.0  0.66020  0.72620  0.42830  1.0000 0.0293896328
C   C15       1.0  0.66020  0.77380  0.92830  1.0000 0.0293896328
C   C16       1.0  0.33980  0.27380  0.57170  1.0000 0.0293896328
C   C17       1.0  0.30430  0.25570  0.02780  1.0000 -0.0196758282
C   C18       1.0  0.69570  0.75570  0.47220  1.0000 -0.0196758282
C   C19       1.0  0.69570  0.74430  0.97220  1.0000 -0.0196758282
C   C20       1.0  0.30430  0.24430  0.52780  1.0000 -0.0196758282
C   C21       1.0  0.38160  0.28580  0.02840  1.0000 0.0207599977
C   C22       1.0  0.61840  0.78580  0.47160  1.0000 0.0207599977
C   C23       1.0  0.61840  0.71420  0.97160  1.0000 0.0207599977
C   C24       1.0  0.38160  0.21420  0.52840  1.0000 0.0207599977
C   C25       1.0  0.48680  0.28580  0.06760  1.0000 -0.1512476381
C   C26       1.0  0.51320  0.78580  0.43240  1.0000 -0.1512476381
C   C27       1.0  0.51320  0.71420  0.93240  1.0000 -0.1512476381
C   C28       1.0  0.48680  0.21420  0.56760  1.0000 -0.1512476381
C   C29       1.0  0.19030  0.25630  0.98390  1.0000 -0.0196758282
C   C30       1.0  0.80970  0.75630  0.51610  1.0000 -0.0196758282
C   C31       1.0  0.80970  0.74370  0.01610  1.0000 -0.0196758282
C   C32       1.0  0.19030  0.24370  0.48390  1.0000 -0.0196758282
C   C33       1.0  0.10620  0.27880  0.98900  1.0000 0.0293896328
C   C34       1.0  0.89380  0.77880  0.51100  1.0000 0.0293896328
C   C35       1.0  0.89380  0.72120  0.01100  1.0000 0.0293896328
C   C36       1.0  0.10620  0.22120  0.48900  1.0000 0.0293896328
C   C37       1.0  0.00420  0.28280  0.94810  1.0000 -0.1512476381
C   C38       1.0  0.99580  0.78280  0.55190  1.0000 -0.1512476381
C   C39       1.0  0.99580  0.71720  0.05190  1.0000 -0.1512476381
C   C40       1.0  0.00420  0.21720  0.44810  1.0000 -0.1512476381
C   C41       1.0  0.98200  0.26210  0.89780  1.0000 0.0207599977
C   C42       1.0  0.01800  0.76210  0.60220  1.0000 0.0207599977
C   C43       1.0  0.01800  0.73790  0.10220  1.0000 0.0207599977
C   C44       1.0  0.98200  0.23790  0.39780  1.0000 0.0207599977
C   C45       1.0  0.06120  0.23950  0.89170  1.0000 -0.1183250312
C   C46       1.0  0.93880  0.73950  0.60830  1.0000 -0.1183250312
C   C47       1.0  0.93880  0.76050  0.10830  1.0000 -0.1183250312
C   C48       1.0  0.06120  0.26050  0.39170  1.0000 -0.1183250312
C   C49       1.0  0.16350  0.23580  0.93420  1.0000 0.0207599977
C   C50       1.0  0.83650  0.73580  0.56580  1.0000 0.0207599977
C   C51       1.0  0.83650  0.76420  0.06580  1.0000 0.0207599977
C   C52       1.0  0.16350  0.26420  0.43420  1.0000 0.0207599977
C   C53       1.0  0.87010  0.26700  0.85230  1.0000 0.6119070101
C   C54       1.0  0.12990  0.76700  0.64770  1.0000 0.6119070101
C   C55       1.0  0.12990  0.73300  0.14770  1.0000 0.6119070101
C   C56       1.0  0.87010  0.23300  0.35230  1.0000 0.6119070101
C   C57       1.0  0.78670  0.15160  0.24160  1.0000 0.6286200482
C   C58       1.0  0.21330  0.65160  0.25840  1.0000 0.6286200482
C   C59       1.0  0.21330  0.84840  0.75840  1.0000 0.6286200482
C   C60       1.0  0.78670  0.34840  0.74160  1.0000 0.6286200482
C   C61       1.0  0.80680  0.10220  0.24010  1.0000 0.0110220866
C   C62       1.0  0.19320  0.60220  0.25990  1.0000 0.0110220866
C   C63       1.0  0.19320  0.89780  0.75990  1.0000 0.0110220866
C   C64       1.0  0.80680  0.39780  0.74010  1.0000 0.0110220866
C   C65       1.0  0.76720  0.07250  0.26610  1.0000 -0.1040776845
C   C66       1.0  0.23280  0.57250  0.23390  1.0000 -0.1040776845
C   C67       1.0  0.23280  0.92750  0.73390  1.0000 -0.1040776845
C   C68       1.0  0.76720  0.42750  0.76610  1.0000 -0.1040776845
C   C69       1.0  0.78910  0.02830  0.26680  1.0000 0.0207599977
C   C70       1.0  0.21090  0.52830  0.23320  1.0000 0.0207599977
C   C71       1.0  0.21090  0.97170  0.73320  1.0000 0.0293896328
C   C72       1.0  0.78910  0.47170  0.76680  1.0000 0.0207599977
C   C73       1.0  0.84980  0.01050  0.24030  1.0000 0.0110220866
C   C74       1.0  0.15020  0.51050  0.25970  1.0000 0.0110220866
C   C75       1.0  0.15020  0.98950  0.75970  1.0000 0.0110220866
C   C76       1.0  0.84980  0.48950  0.74030  1.0000 0.0110220866
C   C77       1.0  0.88470  0.04160  0.21390  1.0000 0.0293896328
C   C78       1.0  0.11530  0.54160  0.28610  1.0000 0.0293896328
C   C79       1.0  0.11530  0.95840  0.78610  1.0000 0.0293896328
C   C80       1.0  0.88470  0.45840  0.71390  1.0000 0.0293896328
C   C81       1.0  0.86670  0.08650  0.21430  1.0000 -0.1293602184
C   C82       1.0  0.13330  0.58650  0.28570  1.0000 -0.1293602184
C   C83       1.0  0.13330  0.91350  0.78570  1.0000 -0.1293602184
C   C84       1.0  0.86670  0.41350  0.71430  1.0000 -0.1293602184
C   C85       1.0  0.88640  0.96280  0.24760  1.0000 0.0110220866
C   C86       1.0  0.11360  0.46280  0.25240  1.0000 0.0110220866
C   C87       1.0  0.11360  0.03720  0.75240  1.0000 0.0110220866
C   C88       1.0  0.88640  0.53720  0.74760  1.0000 0.0110220866
C   C89       1.0  0.97650  0.94860  0.29230  1.0000 0.0293896328
C   C90       1.0  0.02350  0.44860  0.20770  1.0000 0.0394713592
C   C91       1.0  0.02350  0.05140  0.70770  1.0000 0.0394713592
C   C92       1.0  0.97650  0.55140  0.79230  1.0000 0.0293896328
C   C93       1.0  0.01270  0.90520  0.29970  1.0000 -0.1429358039
C   C94       1.0  0.98730  0.40520  0.20030  1.0000 -0.1429358039
C   C95       1.0  0.98730  0.09480  0.70030  1.0000 -0.1429358039
C   C96       1.0  0.01270  0.59480  0.79970  1.0000 -0.1429358039
C   C97       1.0  0.96250  0.87470  0.26060  1.0000 0.0207599977
C   C98       1.0  0.03750  0.37470  0.23940  1.0000 0.0207599977
C   C99       1.0  0.03750  0.12530  0.73940  1.0000 0.0207599977
C   C100      1.0  0.96250  0.62530  0.76060  1.0000 0.0207599977
C   C101      1.0  0.87300  0.88630  0.21520  1.0000 -0.1293602184
C   C102      1.0  0.12700  0.38630  0.28480  1.0000 -0.1293602184
C   C103      1.0  0.12700  0.11370  0.78480  1.0000 -0.1293602184
C   C104      1.0  0.87300  0.61370  0.71520  1.0000 -0.1293602184
C   C105      1.0  0.83480  0.92950  0.20890  1.0000 0.0394713592
C   C106      1.0  0.16520  0.42950  0.29110  1.0000 0.0394713592
C   C107      1.0  0.16520  0.07050  0.79110  1.0000 0.0394713592
C   C108      1.0  0.83480  0.57050  0.70890  1.0000 0.0394713592
C   C109      1.0  0.00870  0.82830  0.26840  1.0000 0.5531990725
C   C110      1.0  0.99130  0.32830  0.23160  1.0000 0.5531990725
C   C111      1.0  0.99130  0.17170  0.73160  1.0000 0.5531990725
C   C112      1.0  0.00870  0.67170  0.76840  1.0000 0.5531990725
C   C113      1.0  0.72890  0.32900  0.26450  1.0000 0.6286200482
C   C114      1.0  0.27110  0.82900  0.23550  1.0000 0.6286200482
C   C115      1.0  0.27110  0.67100  0.73550  1.0000 0.6286200482
C   C116      1.0  0.72890  0.17100  0.76450  1.0000 0.6286200482
C   C117      1.0  0.69990  0.37760  0.26620  1.0000 0.0110220866
C   C118      1.0  0.30010  0.87760  0.23380  1.0000 0.0110220866
C   C119      1.0  0.30010  0.62240  0.73380  1.0000 0.0110220866
C   C120      1.0  0.69990  0.12240  0.76620  1.0000 0.0110220866
C   C121      1.0  0.62030  0.38910  0.28180  1.0000 -0.1293602184
C   C122      1.0  0.37970  0.88910  0.21820  1.0000 -0.1293602184
C   C123      1.0  0.37970  0.61090  0.71820  1.0000 -0.1293602184
C   C124      1.0  0.62030  0.11090  0.78180  1.0000 -0.1293602184
C   C125      1.0  0.58940  0.43300  0.27860  1.0000 0.0482345495
C   C126      1.0  0.41060  0.93300  0.22140  1.0000 0.0482345495
C   C127      1.0  0.41060  0.56700  0.72140  1.0000 0.0482345495
C   C128      1.0  0.58940  0.06700  0.77860  1.0000 0.0482345495
C   C129      1.0  0.63710  0.46640  0.26120  1.0000 0.0110220866
C   C130      1.0  0.36290  0.96640  0.23880  1.0000 0.0110220866
C   C131      1.0  0.36290  0.53360  0.73880  1.0000 0.0110220866
C   C132      1.0  0.63710  0.03360  0.76120  1.0000 0.0110220866
C   C133      1.0  0.71810  0.45240  0.24690  1.0000 0.0293896328
C   C134      1.0  0.28190  0.95240  0.25310  1.0000 0.0207599977
C   C135      1.0  0.28190  0.54760  0.75310  1.0000 0.0293896328
C   C136      1.0  0.71810  0.04760  0.74690  1.0000 0.0293896328
C   C137      1.0  0.75060  0.40890  0.24920  1.0000 -0.1293602184
C   C138      1.0  0.24940  0.90890  0.25080  1.0000 -0.1293602184
C   C139      1.0  0.24940  0.59110  0.75080  1.0000 -0.1293602184
C   C140      1.0  0.75060  0.09110  0.74920  1.0000 -0.1293602184
C   C141      1.0  0.60110  0.51390  0.25540  1.0000 0.0031413074
C   C142      1.0  0.39890  0.01390  0.24460  1.0000 0.0031413074
C   C143      1.0  0.39890  0.48610  0.74460  1.0000 0.0031413074
C   C144      1.0  0.60110  0.98610  0.75540  1.0000 0.0031413074
C   C145      1.0  0.64260  0.54470  0.29640  1.0000 0.0207599977
C   C146      1.0  0.35740  0.04470  0.20360  1.0000 0.0207599977
C   C147      1.0  0.35740  0.45530  0.70360  1.0000 0.0207599977
C   C148      1.0  0.64260  0.95530  0.79640  1.0000 0.0207599977
C   C149      1.0  0.60470  0.58780  0.29150  1.0000 -0.1429358039
C   C150      1.0  0.39530  0.08780  0.20850  1.0000 -0.1429358039
C   C151      1.0  0.39530  0.41220  0.70850  1.0000 -0.1429358039
C   C152      1.0  0.60470  0.91220  0.79150  1.0000 -0.1429358039
C   C153      1.0  0.52830  0.60230  0.24160  1.0000 0.0207599977
C   C154      1.0  0.47170  0.10230  0.25840  1.0000 0.0207599977
C   C155      1.0  0.47170  0.39770  0.75840  1.0000 0.0207599977
C   C156      1.0  0.52830  0.89770  0.74160  1.0000 0.0207599977
C   C157      1.0  0.48910  0.57350  0.19850  1.0000 -0.1293602184
C   C158      1.0  0.51090  0.07350  0.30150  1.0000 -0.1293602184
C   C159      1.0  0.51090  0.42650  0.80150  1.0000 -0.1293602184
C   C160      1.0  0.48910  0.92650  0.69850  1.0000 -0.1293602184
C   C161      1.0  0.52480  0.53000  0.20560  1.0000 0.0293896328
C   C162      1.0  0.47520  0.03000  0.29440  1.0000 0.0293896328
C   C163      1.0  0.47520  0.47000  0.79440  1.0000 0.0293896328
C   C164      1.0  0.52480  0.97000  0.70560  1.0000 0.0293896328
C   C165      1.0  0.48290  0.64860  0.23540  1.0000 0.5616787124
C   C166      1.0  0.51710  0.14860  0.26460  1.0000 0.5616787124
C   C167      1.0  0.51710  0.35140  0.76460  1.0000 0.5616787124
C   C168      1.0  0.48290  0.85140  0.73540  1.0000 0.5616787124
C   C169      1.0  0.89320  0.19430  0.12790  1.0000 0.3178680463
C   C170      1.0  0.10680  0.69430  0.37210  1.0000 0.3178680463
C   C171      1.0  0.10680  0.80570  0.87210  1.0000 0.3178680463
C   C172      1.0  0.89320  0.30570  0.62790  1.0000 0.3178680463
C   C173      1.0  0.05900  0.21240  0.12300  1.0000 -0.3388037224
C   C174      1.0  0.94100  0.71240  0.37700  1.0000 -0.3388037224
C   C175      1.0  0.94100  0.78760  0.87700  1.0000 -0.3388037224
C   C176      1.0  0.05900  0.28760  0.62300  1.0000 -0.3388037224
C   C177      1.0  0.98540  0.13770  0.09140  1.0000 -0.3303871508
C   C178      1.0  0.01460  0.63770  0.40860  1.0000 -0.3303871508
C   C179      1.0  0.01460  0.86230  0.90860  1.0000 -0.3303871508
C   C180      1.0  0.98540  0.36230  0.59140  1.0000 -0.3303871508
C   C181      1.0  0.12950  0.20600  0.29350  1.0000 0.3178680463
C   C182      1.0  0.87050  0.70600  0.20650  1.0000 0.3178680463
C   C183      1.0  0.87050  0.79400  0.70650  1.0000 0.3178680463
C   C184      1.0  0.12950  0.29400  0.79350  1.0000 0.3178680463
C   C185      1.0  0.30310  0.20800  0.31940  1.0000 -0.3670944374
C   C186      1.0  0.69690  0.70800  0.18060  1.0000 -0.3670944374
C   C187      1.0  0.69690  0.79200  0.68060  1.0000 -0.3670944374
C   C188      1.0  0.30310  0.29200  0.81940  1.0000 -0.3670944374
C   C189      1.0  0.18320  0.15160  0.23460  1.0000 -0.3303871508
C   C190      1.0  0.81680  0.65160  0.26540  1.0000 -0.3303871508
C   C191      1.0  0.81680  0.84840  0.76540  1.0000 -0.3303871508
C   C192      1.0  0.18320  0.34840  0.73460  1.0000 -0.3303871508
C   C193      1.0  0.40250  0.28300  0.22510  1.0000 0.2931186084
C   C194      1.0  0.59750  0.78300  0.27490  1.0000 0.2931186084
C   C195      1.0  0.59750  0.71700  0.77490  1.0000 0.2931186084
C   C196      1.0  0.40250  0.21700  0.72510  1.0000 0.2931186084
C   C197      1.0  0.24850  0.32200  0.21100  1.0000 -0.3210804293
C   C198      1.0  0.75150  0.82200  0.28900  1.0000 -0.3210804293
C   C199      1.0  0.75150  0.67800  0.78900  1.0000 -0.3210804293
C   C200      1.0  0.24850  0.17800  0.71100  1.0000 -0.3210804293
C   C201      1.0  0.37630  0.35120  0.16830  1.0000 -0.3388037224
C   C202      1.0  0.62370  0.85120  0.33170  1.0000 -0.3388037224
C   C203      1.0  0.62370  0.64880  0.83170  1.0000 -0.3388037224
C   C204      1.0  0.37630  0.14880  0.66830  1.0000 -0.3388037224
C   C205      1.0  0.63650  0.28100  0.37890  1.0000 0.3178680463
C   C206      1.0  0.36350  0.78100  0.12110  1.0000 0.3178680463
C   C207      1.0  0.36350  0.71900  0.62110  1.0000 0.3178680463
C   C208      1.0  0.63650  0.21900  0.87890  1.0000 0.3178680463
C   C209      1.0  0.66580  0.34020  0.44880  1.0000 -0.3303871508
C   C210      1.0  0.33420  0.84020  0.05120  1.0000 -0.3303871508
C   C211      1.0  0.33420  0.65980  0.55120  1.0000 -0.3303871508
C   C212      1.0  0.66580  0.15980  0.94880  1.0000 -0.3303871508
C   C213      1.0  0.48200  0.32380  0.38030  1.0000 -0.3094914775
C   C214      1.0  0.51800  0.82380  0.11970  1.0000 -0.3094914775
C   C215      1.0  0.51800  0.67620  0.61970  1.0000 -0.3094914775
C   C216      1.0  0.48200  0.17620  0.88030  1.0000 -0.3094914775
N   N1        1.0  0.26450  0.19230  0.07480  1.0000 0.4822986807
N   N2        1.0  0.73550  0.69230  0.42520  1.0000 0.4822986807
N   N3        1.0  0.73550  0.80770  0.92520  1.0000 0.4822986807
N   N4        1.0  0.26450  0.30770  0.57480  1.0000 0.4822986807
N   N5        1.0  0.35660  0.32010  0.98600  1.0000 0.4862560678
N   N6        1.0  0.64340  0.82010  0.51400  1.0000 0.4862560678
N   N7        1.0  0.64340  0.67990  0.01400  1.0000 0.4862560678
N   N8        1.0  0.35660  0.17990  0.48600  1.0000 0.4862560678
N   N9        1.0  0.12310  0.30070  0.04110  1.0000 0.4822986807
N   N10       1.0  0.87690  0.80070  0.45890  1.0000 0.4822986807
N   N11       1.0  0.87690  0.69930  0.95890  1.0000 0.4822986807
N   N12       1.0  0.12310  0.19930  0.54110  1.0000 0.4822986807
N   N13       1.0  0.24500  0.21000  0.92540  1.0000 0.4862560678
N   N14       1.0  0.75500  0.71000  0.57460  1.0000 0.4862560678
N   N15       1.0  0.75500  0.79000  0.07460  1.0000 0.4862560678
N   N16       1.0  0.24500  0.29000  0.42540  1.0000 0.4862560678
N   N17       1.0  0.74720  0.99840  0.29600  1.0000 0.5188692111
N   N18       1.0  0.25280  0.49840  0.20400  1.0000 0.5188692111
N   N19       1.0  0.25280  0.00160  0.70400  1.0000 0.5188692111
N   N20       1.0  0.74720  0.50160  0.79600  1.0000 0.5188692111
N   N21       1.0  0.94750  0.02790  0.18320  1.0000 0.5188692111
N   N22       1.0  0.05250  0.52790  0.31680  1.0000 0.5188692111
N   N23       1.0  0.05250  0.97210  0.81680  1.0000 0.5188692111
N   N24       1.0  0.94750  0.47210  0.68320  1.0000 0.5188692111
N   N25       1.0  0.04120  0.97990  0.33640  1.0000 0.5018047768
N   N26       1.0  0.95880  0.47990  0.16360  1.0000 0.5018047768
N   N27       1.0  0.95880  0.02010  0.66360  1.0000 0.5018047768
N   N28       1.0  0.04120  0.52010  0.83640  1.0000 0.5018047768
N   N29       1.0  0.73660  0.94000  0.15950  1.0000 0.5018047768
N   N30       1.0  0.26340  0.44000  0.34050  1.0000 0.5018047768
N   N31       1.0  0.26340  0.06000  0.84050  1.0000 0.5018047768
N   N32       1.0  0.73660  0.56000  0.65950  1.0000 0.5018047768
N   N33       1.0  0.49710  0.44320  0.29270  1.0000 0.5115754801
N   N34       1.0  0.50290  0.94320  0.20730  1.0000 0.5115754801
N   N35       1.0  0.50290  0.55680  0.70730  1.0000 0.5115754801
N   N36       1.0  0.49710  0.05680  0.79270  1.0000 0.5115754801
N   N37       1.0  0.77370  0.48420  0.22680  1.0000 0.5018047768
N   N38       1.0  0.22630  0.98420  0.27320  1.0000 0.5018047768
N   N39       1.0  0.22630  0.51580  0.77320  1.0000 0.5018047768
N   N40       1.0  0.77370  0.01580  0.72680  1.0000 0.5018047768
N   N41       1.0  0.72830  0.53310  0.34960  1.0000 0.5018047768
N   N42       1.0  0.27170  0.03310  0.15040  1.0000 0.5018047768
N   N43       1.0  0.27170  0.46690  0.65040  1.0000 0.5018047768
N   N44       1.0  0.72830  0.96690  0.84960  1.0000 0.5018047768
N   N45       1.0  0.47570  0.50060  0.15760  1.0000 0.5018047768
N   N46       1.0  0.52430  0.00060  0.34240  1.0000 0.5018047768
N   N47       1.0  0.52430  0.49940  0.84240  1.0000 0.5018047768
N   N48       1.0  0.47570  0.99940  0.65760  1.0000 0.5018047768
N   N49       1.0  0.97960  0.17820  0.11840  1.0000 -0.0196758282
N   N50       1.0  0.02040  0.67820  0.38160  1.0000 -0.0196758282
N   N51       1.0  0.02040  0.82180  0.88160  1.0000 -0.0196758282
N   N52       1.0  0.97960  0.32180  0.61840  1.0000 -0.0196758282
N   N53       1.0  0.20040  0.19390  0.26900  1.0000 -0.0312562323
N   N54       1.0  0.79960  0.69390  0.23100  1.0000 -0.0312562323
N   N55       1.0  0.79960  0.80610  0.73100  1.0000 -0.0312562323
N   N56       1.0  0.20040  0.30610  0.76900  1.0000 -0.0312562323
N   N57       1.0  0.34170  0.32060  0.20160  1.0000 -0.0360722158
N   N58       1.0  0.65830  0.82060  0.29840  1.0000 -0.0360722158
N   N59       1.0  0.65830  0.67940  0.79840  1.0000 -0.0360722158
N   N60       1.0  0.34170  0.17940  0.70160  1.0000 -0.0360722158
N   N61       1.0  0.59510  0.31450  0.40080  1.0000 0.0293896328
N   N62       1.0  0.40490  0.81450  0.09920  1.0000 0.0207599977
N   N63       1.0  0.40490  0.68550  0.59920  1.0000 0.0207599977
N   N64       1.0  0.59510  0.18550  0.90080  1.0000 0.0207599977
O   O1        1.0  0.70580  0.27010  0.13780  1.0000 -0.5707214203
O   O2        1.0  0.29420  0.77010  0.36220  1.0000 -0.5707214203
O   O3        1.0  0.29420  0.72990  0.86220  1.0000 -0.5707214203
O   O4        1.0  0.70580  0.22990  0.63780  1.0000 -0.5707214203
O   O5        1.0  0.65740  0.23880  0.19630  1.0000 -0.6920061063
O   O6        1.0  0.34260  0.73880  0.30370  1.0000 -0.6920061063
O   O7        1.0  0.34260  0.76120  0.80370  1.0000 -0.6920061063
O   O8        1.0  0.65740  0.26120  0.69630  1.0000 -0.6920061063
O   O9        1.0  0.79440  0.27920  0.86380  1.0000 -0.6080378267
O   O10       1.0  0.20560  0.77920  0.63620  1.0000 -0.6080378267
O   O11       1.0  0.20560  0.72080  0.13620  1.0000 -0.6080378267
O   O12       1.0  0.79440  0.22080  0.36380  1.0000 -0.6080378267
O   O13       1.0  0.85850  0.25800  0.80530  1.0000 -0.6822585415
O   O14       1.0  0.14150  0.75800  0.69470  1.0000 -0.6822585415
O   O15       1.0  0.14150  0.74200  0.19470  1.0000 -0.6822585415
O   O16       1.0  0.85850  0.24200  0.30530  1.0000 -0.6822585415
O   O17       1.0  0.28690  0.17400  0.11520  1.0000 -0.2091108028
O   O18       1.0  0.71310  0.67400  0.38480  1.0000 -0.2091108028
O   O19       1.0  0.71310  0.82600  0.88480  1.0000 -0.2091108028
O   O20       1.0  0.28690  0.32600  0.61520  1.0000 -0.2091108028
O   O21       1.0  0.18570  0.18440  0.03730  1.0000 -0.2434784126
O   O22       1.0  0.81430  0.68440  0.46270  1.0000 -0.2434784126
O   O23       1.0  0.81430  0.81560  0.96270  1.0000 -0.2434784126
O   O24       1.0  0.18570  0.31560  0.53730  1.0000 -0.2434784126
O   O25       1.0  0.41430  0.35080  0.99420  1.0000 -0.2311039097
O   O26       1.0  0.58570  0.85080  0.50580  1.0000 -0.2217391085
O   O27       1.0  0.58570  0.64920  0.00580  1.0000 -0.2311039097
O   O28       1.0  0.41430  0.14920  0.49420  1.0000 -0.2217391085
O   O29       1.0  0.28640  0.31360  0.94230  1.0000 -0.2903941114
O   O30       1.0  0.71360  0.81360  0.55770  1.0000 -0.2903941114
O   O31       1.0  0.71360  0.68640  0.05770  1.0000 -0.2903941114
O   O32       1.0  0.28640  0.18640  0.44230  1.0000 -0.2903941114
O   O33       1.0  0.19440  0.28860  0.08260  1.0000 -0.2792660993
O   O34       1.0  0.80560  0.78860  0.41740  1.0000 -0.2792660993
O   O35       1.0  0.80560  0.71140  0.91740  1.0000 -0.2792660993
O   O36       1.0  0.19440  0.21140  0.58260  1.0000 -0.2792660993
O   O37       1.0  0.06060  0.32840  0.04070  1.0000 -0.2311039097
O   O38       1.0  0.93940  0.82840  0.45930  1.0000 -0.2311039097
O   O39       1.0  0.93940  0.67160  0.95930  1.0000 -0.2311039097
O   O40       1.0  0.06060  0.17160  0.54070  1.0000 -0.2311039097
O   O41       1.0  0.32270  0.19840  0.95990  1.0000 -0.2434784126
O   O42       1.0  0.67730  0.69840  0.54010  1.0000 -0.2434784126
O   O43       1.0  0.67730  0.80160  0.04010  1.0000 -0.2434784126
O   O44       1.0  0.32270  0.30160  0.45990  1.0000 -0.2434784126
O   O45       1.0  0.23210  0.20410  0.87930  1.0000 -0.2580034535
O   O46       1.0  0.76790  0.70410  0.62070  1.0000 -0.2580034535
O   O47       1.0  0.76790  0.79590  0.12070  1.0000 -0.2580034535
O   O48       1.0  0.23210  0.29590  0.37930  1.0000 -0.2580034535
O   O49       1.0  0.82850  0.17610  0.21920  1.0000 -0.6378356617
O   O50       1.0  0.17150  0.67610  0.28080  1.0000 -0.6378356617
O   O51       1.0  0.17150  0.82390  0.78080  1.0000 -0.6378356617
O   O52       1.0  0.82850  0.32390  0.71920  1.0000 -0.6378356617
O   O53       1.0  0.73060  0.16280  0.26700  1.0000 -0.6543760699
O   O54       1.0  0.26940  0.66280  0.23300  1.0000 -0.6543760699
O   O55       1.0  0.26940  0.83720  0.73300  1.0000 -0.6543760699
O   O56       1.0  0.73060  0.33720  0.76700  1.0000 -0.6543760699
O   O57       1.0  0.98290  0.80450  0.22690  1.0000 -0.6038098138
O   O58       1.0  0.01710  0.30450  0.27310  1.0000 -0.6038098138
O   O59       1.0  0.01710  0.19550  0.77310  1.0000 -0.6038098138
O   O60       1.0  0.98290  0.69550  0.72690  1.0000 -0.6038098138
O   O61       1.0  0.07250  0.81650  0.31470  1.0000 -0.5707214203
O   O62       1.0  0.92750  0.31650  0.18530  1.0000 -0.5707214203
O   O63       1.0  0.92750  0.18350  0.68530  1.0000 -0.5707214203
O   O64       1.0  0.07250  0.68350  0.81470  1.0000 -0.5707214203
O   O65       1.0  0.71150  0.01600  0.32550  1.0000 -0.3094914775
O   O66       1.0  0.28850  0.51600  0.17450  1.0000 -0.3094914775
O   O67       1.0  0.28850  0.98400  0.67450  1.0000 -0.2992708211
O   O68       1.0  0.71150  0.48400  0.82550  1.0000 -0.3094914775
O   O69       1.0  0.74990  0.95860  0.29050  1.0000 -0.3094914775
O   O70       1.0  0.25010  0.45860  0.20950  1.0000 -0.3094914775
O   O71       1.0  0.25010  0.04140  0.70950  1.0000 -0.3094914775
O   O72       1.0  0.74990  0.54140  0.79050  1.0000 -0.3094914775
O   O73       1.0  0.00840  0.05420  0.17750  1.0000 -0.2992708211
O   O74       1.0  0.99160  0.55420  0.32250  1.0000 -0.2992708211
O   O75       1.0  0.99160  0.94580  0.82250  1.0000 -0.2992708211
O   O76       1.0  0.00840  0.44580  0.67750  1.0000 -0.2992708211
O   O77       1.0  0.92600  0.99060  0.16100  1.0000 -0.3388037224
O   O78       1.0  0.07400  0.49060  0.33900  1.0000 -0.3388037224
O   O79       1.0  0.07400  0.00940  0.83900  1.0000 -0.3388037224
O   O80       1.0  0.92600  0.50940  0.66100  1.0000 -0.3388037224
O   O81       1.0  0.01200  0.01570  0.33820  1.0000 -0.2533636409
O   O82       1.0  0.98800  0.51570  0.16180  1.0000 -0.2533636409
O   O83       1.0  0.98800  0.98430  0.66180  1.0000 -0.2580034535
O   O84       1.0  0.01200  0.48430  0.83820  1.0000 -0.2533636409
O   O85       1.0  0.12880  0.96820  0.36760  1.0000 -0.2434784126
O   O86       1.0  0.87120  0.46820  0.13240  1.0000 -0.2434784126
O   O87       1.0  0.87120  0.03180  0.63240  1.0000 -0.2533636409
O   O88       1.0  0.12880  0.53180  0.86760  1.0000 -0.2434784126
O   O89       1.0  0.69720  0.97680  0.15260  1.0000 -0.2903941114
O   O90       1.0  0.30280  0.47680  0.34740  1.0000 -0.2903941114
O   O91       1.0  0.30280  0.02320  0.84740  1.0000 -0.2903941114
O   O92       1.0  0.69720  0.52320  0.65260  1.0000 -0.2903941114
O   O93       1.0  0.69370  0.91060  0.12670  1.0000 -0.2992708211
O   O94       1.0  0.30630  0.41060  0.37330  1.0000 -0.2992708211
O   O95       1.0  0.30630  0.08940  0.87330  1.0000 -0.2992708211
O   O96       1.0  0.69370  0.58940  0.62670  1.0000 -0.2992708211
O   O97       1.0  0.78930  0.31920  0.24330  1.0000 -0.5946517389
O   O98       1.0  0.21070  0.81920  0.25670  1.0000 -0.5946517389
O   O99       1.0  0.21070  0.68080  0.75670  1.0000 -0.5946517389
O   O100      1.0  0.78930  0.18080  0.74330  1.0000 -0.5946517389
O   O101      1.0  0.68300  0.30140  0.28360  1.0000 -0.6920061063
O   O102      1.0  0.31700  0.80140  0.21640  1.0000 -0.6920061063
O   O103      1.0  0.31700  0.69860  0.71640  1.0000 -0.6920061063
O   O104      1.0  0.68300  0.19860  0.78360  1.0000 -0.6920061063
O   O105      1.0  0.42820  0.66320  0.18770  1.0000 -0.6038098138
O   O106      1.0  0.57180  0.16320  0.31230  1.0000 -0.6080378267
O   O107      1.0  0.57180  0.33680  0.81230  1.0000 -0.6080378267
O   O108      1.0  0.42820  0.83680  0.68770  1.0000 -0.6080378267
O   O109      1.0  0.49930  0.67100  0.27730  1.0000 -0.6195705038
O   O110      1.0  0.50070  0.17100  0.22270  1.0000 -0.6195705038
O   O111      1.0  0.50070  0.32900  0.72270  1.0000 -0.6195705038
O   O112      1.0  0.49930  0.82900  0.77730  1.0000 -0.6195705038
O   O113      1.0  0.47730  0.48230  0.29700  1.0000 -0.3210804293
O   O114      1.0  0.52270  0.98230  0.20300  1.0000 -0.3210804293
O   O115      1.0  0.52270  0.51770  0.70300  1.0000 -0.3210804293
O   O116      1.0  0.47730  0.01770  0.79700  1.0000 -0.3210804293
O   O117      1.0  0.44420  0.41190  0.29710  1.0000 -0.3094914775
O   O118      1.0  0.55580  0.91190  0.20290  1.0000 -0.3094914775
O   O119      1.0  0.55580  0.58810  0.70290  1.0000 -0.3094914775
O   O120      1.0  0.44420  0.08810  0.79710  1.0000 -0.3094914775
O   O121      1.0  0.73500  0.51480  0.20400  1.0000 -0.2091108028
O   O122      1.0  0.26500  0.01480  0.29600  1.0000 -0.2091108028
O   O123      1.0  0.26500  0.48520  0.79600  1.0000 -0.2091108028
O   O124      1.0  0.73500  0.98520  0.70400  1.0000 -0.2091108028
O   O125      1.0  0.87470  0.48050  0.24730  1.0000 -0.3388037224
O   O126      1.0  0.12530  0.98050  0.25270  1.0000 -0.3388037224
O   O127      1.0  0.12530  0.51950  0.75270  1.0000 -0.3388037224
O   O128      1.0  0.87470  0.01950  0.74730  1.0000 -0.3388037224
O   O129      1.0  0.73820  0.55430  0.38810  1.0000 -0.2533636409
O   O130      1.0  0.26180  0.05430  0.11190  1.0000 -0.2533636409
O   O131      1.0  0.26180  0.44570  0.61190  1.0000 -0.2533636409
O   O132      1.0  0.73820  0.94570  0.88810  1.0000 -0.2533636409
O   O133      1.0  0.78410  0.50140  0.35170  1.0000 -0.2992708211
O   O134      1.0  0.21590  0.00140  0.14830  1.0000 -0.2992708211
O   O135      1.0  0.21590  0.49860  0.64830  1.0000 -0.2992708211
O   O136      1.0  0.78410  0.99860  0.85170  1.0000 -0.2992708211
O   O137      1.0  0.43920  0.51780  0.11400  1.0000 -0.2580034535
O   O138      1.0  0.56080  0.01780  0.38600  1.0000 -0.2533636409
O   O139      1.0  0.56080  0.48220  0.88600  1.0000 -0.2580034535
O   O140      1.0  0.43920  0.98220  0.61400  1.0000 -0.2580034535
O   O141      1.0  0.47070  0.46090  0.16530  1.0000 -0.3210804293
O   O142      1.0  0.52930  0.96090  0.33470  1.0000 -0.3210804293
O   O143      1.0  0.52930  0.53910  0.83470  1.0000 -0.3210804293
O   O144      1.0  0.47070  0.03910  0.66530  1.0000 -0.3303871508
O   O145      1.0  0.89980  0.22560  0.15170  1.0000 -0.4393678558
O   O146      1.0  0.10020  0.72560  0.34830  1.0000 -0.4393678558
O   O147      1.0  0.10020  0.77440  0.84830  1.0000 -0.4393678558
O   O148      1.0  0.89980  0.27440  0.65170  1.0000 -0.4393678558
O   O149      1.0  0.03400  0.21310  0.26810  1.0000 -0.4905177754
O   O150      1.0  0.96600  0.71310  0.23190  1.0000 -0.4905177754
O   O151      1.0  0.96600  0.78690  0.73190  1.0000 -0.4905177754
O   O152      1.0  0.03400  0.28690  0.76810  1.0000 -0.4905177754
O   O153      1.0  0.47450  0.26390  0.22570  1.0000 -0.4180864346
O   O154      1.0  0.52550  0.76390  0.27430  1.0000 -0.4180864346
O   O155      1.0  0.52550  0.73610  0.77430  1.0000 -0.4180864346
O   O156      1.0  0.47450  0.23610  0.72570  1.0000 -0.4180864346
O   O157      1.0  0.57960  0.25800  0.34170  1.0000 -0.499146792
O   O158      1.0  0.42040  0.75800  0.15830  1.0000 -0.499146792
O   O159      1.0  0.42040  0.74200  0.65830  1.0000 -0.499146792
O   O160      1.0  0.57960  0.24200  0.84170  1.0000 -0.499146792
