# DDEC6 charges by PACMAN v1.1 (https://github.com/mtap-research/PACMAN-charge/)
data_2012[Zn][ant]3[FSR]2
_chemical_formula_sum              "Zn4 H16 C32 N16 O8"
_cell_length_a       6.791
_cell_length_b       9.604
_cell_length_c       17.722
_cell_angle_alpha    101.826
_cell_angle_beta     96.5
_cell_angle_gamma    106.425

_symmetry_space_group_name_H-M    "P 1"
_symmetry_Int_Tables_number       1

loop_
  _symmetry_equiv_pos_as_xyz
  'x, y, z'

loop_
  _atom_site_type_symbol
  _atom_site_label
  _atom_site_symmetry_multiplicity
  _atom_site_fract_x
  _atom_site_fract_y
  _atom_site_fract_z
  _atom_site_occupancy
  _atom_site_charge
Zn  Zn1       1.0  0.92349  0.46284  0.75074  1.0000 0.7890362689
Zn  Zn2       1.0  0.07651  0.53716  0.24926  1.0000 0.7890362689
Zn  Zn3       1.0  0.84143  0.80966  0.74932  1.0000 0.7890362689
Zn  Zn4       1.0  0.15857  0.19034  0.25068  1.0000 0.7890362689
H   H1        1.0  0.19130  0.93830  0.98150  1.0000 0.1263825271
H   H2        1.0  0.80870  0.06170  0.01850  1.0000 0.1263825271
H   H3        1.0  0.78180  0.54200  0.98210  1.0000 0.1263825271
H   H4        1.0  0.21820  0.45800  0.01790  1.0000 0.1263825271
H   H5        1.0  0.85230  0.60650  0.11830  1.0000 0.1173966997
H   H6        1.0  0.14770  0.39350  0.88170  1.0000 0.1173966997
H   H7        1.0  0.26450  0.99920  0.11740  1.0000 0.1173966997
H   H8        1.0  0.73550  0.00080  0.88260  1.0000 0.1173966997
H   H9        1.0  0.64640  0.29840  0.52120  1.0000 0.1263825271
H   H10       1.0  0.35360  0.70160  0.47880  1.0000 0.1263825271
H   H11       1.0  0.87020  0.72550  0.51240  1.0000 0.1263825271
H   H12       1.0  0.12980  0.27450  0.48760  1.0000 0.1263825271
H   H13       1.0  0.57000  0.22130  0.38410  1.0000 0.1263825271
H   H14       1.0  0.43000  0.77870  0.61590  1.0000 0.1263825271
H   H15       1.0  0.81300  0.65090  0.37770  1.0000 0.1263825271
H   H16       1.0  0.18700  0.34910  0.62230  1.0000 0.1263825271
C   C1        1.0  0.06100  0.80930  0.12950  1.0000 0.0474988767
C   C2        1.0  0.93900  0.19070  0.87050  1.0000 0.0474988767
C   C3        1.0  0.93910  0.69220  0.88070  1.0000 0.5782008269
C   C4        1.0  0.06090  0.30780  0.11930  1.0000 0.5782008269
C   C5        1.0  0.97800  0.73210  0.96680  1.0000 -0.0389188952
C   C6        1.0  0.02200  0.26790  0.03320  1.0000 -0.0389188952
C   C7        1.0  0.12400  0.87140  0.00860  1.0000 -0.0832344419
C   C8        1.0  0.87600  0.12860  0.99140  1.0000 -0.0832344419
C   C9        1.0  0.87800  0.63410  0.00900  1.0000 -0.0832344419
C   C10       1.0  0.12200  0.36590  0.99100  1.0000 -0.0832344419
C   C11       1.0  0.91930  0.67240  0.09050  1.0000 -0.1310817874
C   C12       1.0  0.08070  0.32760  0.90950  1.0000 -0.1310817874
C   C13       1.0  0.16600  0.90860  0.08990  1.0000 -0.1310817874
C   C14       1.0  0.83400  0.09140  0.91010  1.0000 -0.1310817874
C   C15       1.0  0.10800  0.84980  0.21700  1.0000 0.2597179809
C   C16       1.0  0.89200  0.15020  0.78300  1.0000 0.2597179809
C   C17       1.0  0.80920  0.56740  0.61720  1.0000 0.5782008269
C   C18       1.0  0.19080  0.43260  0.38280  1.0000 0.5782008269
C   C19       1.0  0.63660  0.38220  0.28200  1.0000 0.2916276851
C   C20       1.0  0.36340  0.61780  0.71800  1.0000 0.2916276851
C   C21       1.0  0.67670  0.36890  0.49170  1.0000 -0.0905783339
C   C22       1.0  0.32330  0.63110  0.50830  1.0000 -0.0905783339
C   C23       1.0  0.81290  0.62440  0.48670  1.0000 -0.0905783339
C   C24       1.0  0.18710  0.37560  0.51330  1.0000 -0.0905783339
C   C25       1.0  0.63170  0.32210  0.40960  1.0000 -0.1167137935
C   C26       1.0  0.36830  0.67790  0.59040  1.0000 -0.1167137935
C   C27       1.0  0.76500  0.51790  0.52880  1.0000 -0.0218283492
C   C28       1.0  0.23500  0.48210  0.47120  1.0000 -0.0218283492
C   C29       1.0  0.77530  0.57980  0.40640  1.0000 -0.1167137935
C   C30       1.0  0.22470  0.42020  0.59360  1.0000 -0.1167137935
C   C31       1.0  0.68140  0.42960  0.36740  1.0000 0.023815786
C   C32       1.0  0.31860  0.57040  0.63260  1.0000 0.023815786
N   N1        1.0  0.11600  0.75500  0.26150  1.0000 -0.243269091
N   N2        1.0  0.88400  0.24500  0.73850  1.0000 -0.243269091
N   N3        1.0  0.77080  0.42830  0.23660  1.0000 -0.3052196703
N   N4        1.0  0.22920  0.57170  0.76340  1.0000 -0.3052196703
N   N5        1.0  0.48250  0.27760  0.16060  1.0000 -0.0598819233
N   N6        1.0  0.51750  0.72240  0.83940  1.0000 -0.0598819233
N   N7        1.0  0.67040  0.36010  0.15980  1.0000 -0.0721742375
N   N8        1.0  0.32960  0.63990  0.84020  1.0000 -0.0721742375
N   N9        1.0  0.16500  0.83560  0.33460  1.0000 -0.0540555133
N   N10       1.0  0.83500  0.16440  0.66540  1.0000 -0.0540555133
N   N11       1.0  0.18500  0.97170  0.33340  1.0000 -0.0540555133
N   N12       1.0  0.81500  0.02830  0.66667  1.0000 -0.0540555133
N   N13       1.0  0.45380  0.28850  0.23680  1.0000 -0.2999361358
N   N14       1.0  0.54620  0.71150  0.76320  1.0000 -0.2999361358
N   N15       1.0  0.15300  0.98730  0.26170  1.0000 -0.2524942658
N   N16       1.0  0.84700  0.01270  0.73830  1.0000 -0.2524942658
O   O1        1.0  0.99100  0.79740  0.84730  1.0000 -0.5295008125
O   O2        1.0  0.00900  0.20260  0.15270  1.0000 -0.5295008125
O   O3        1.0  0.85220  0.55540  0.84650  1.0000 -0.5295008125
O   O4        1.0  0.14780  0.44460  0.15350  1.0000 -0.5295008125
O   O5        1.0  0.77150  0.46510  0.65170  1.0000 -0.5166703365
O   O6        1.0  0.22850  0.53490  0.34830  1.0000 -0.5166703365
O   O7        1.0  0.87810  0.70610  0.64880  1.0000 -0.5295008125
O   O8        1.0  0.12190  0.29390  0.35120  1.0000 -0.5295008125
