# DDEC6 charges by PACMAN v1.1 (https://github.com/mtap-research/PACMAN-charge/)
data_2012[Nd][nan]3[FSR]1
_chemical_formula_sum              "Nd12 H108 C84 N16 O92"
_cell_length_a       12.6096
_cell_length_b       13.0079
_cell_length_c       22.5014
_cell_angle_alpha    90
_cell_angle_beta     90
_cell_angle_gamma    90

_symmetry_space_group_name_H-M    "P 1"
_symmetry_Int_Tables_number       1

loop_
  _symmetry_equiv_pos_as_xyz
  'x, y, z'

loop_
  _atom_site_type_symbol
  _atom_site_label
  _atom_site_symmetry_multiplicity
  _atom_site_fract_x
  _atom_site_fract_y
  _atom_site_fract_z
  _atom_site_occupancy
  _atom_site_charge
Nd  Nd1       1.0  0.98858  0.16097  0.49268  1.0000 1.9877808482
Nd  Nd2       1.0  0.48858  0.33903  0.50732  1.0000 1.9877808482
Nd  Nd3       1.0  0.01142  0.83903  0.99268  1.0000 1.9877808482
Nd  Nd4       1.0  0.51142  0.66097  0.00732  1.0000 1.9877808482
Nd  Nd5       1.0  0.01142  0.83903  0.50732  1.0000 1.9877808482
Nd  Nd6       1.0  0.51142  0.66097  0.49268  1.0000 1.9877808482
Nd  Nd7       1.0  0.98858  0.16097  0.00732  1.0000 1.9877808482
Nd  Nd8       1.0  0.48858  0.33903  0.99268  1.0000 1.9877808482
Nd  Nd9       1.0  0.16345  0.29184  0.75000  1.0000 2.0268317254
Nd  Nd10      1.0  0.66345  0.20816  0.25000  1.0000 2.0268317254
Nd  Nd11      1.0  0.83655  0.70816  0.25000  1.0000 2.0268317254
Nd  Nd12      1.0  0.33655  0.79184  0.75000  1.0000 2.0268317254
H   H1        1.0  0.00650  0.04050  0.39300  1.0000 0.3612529328
H   H2        1.0  0.50650  0.45950  0.60700  1.0000 0.3612529328
H   H3        1.0  0.99350  0.95950  0.89300  1.0000 0.3612529328
H   H4        1.0  0.49350  0.54050  0.10700  1.0000 0.3612529328
H   H5        1.0  0.99350  0.95950  0.60700  1.0000 0.3612529328
H   H6        1.0  0.49350  0.54050  0.39300  1.0000 0.3612529328
H   H7        1.0  0.00650  0.04050  0.10700  1.0000 0.3612529328
H   H8        1.0  0.50650  0.45950  0.89300  1.0000 0.3612529328
H   H9        1.0  0.08770  0.10690  0.37420  1.0000 0.3612529328
H   H10       1.0  0.58770  0.39310  0.62580  1.0000 0.3612529328
H   H11       1.0  0.91230  0.89310  0.87420  1.0000 0.3612529328
H   H12       1.0  0.41230  0.60690  0.12580  1.0000 0.3612529328
H   H13       1.0  0.91230  0.89310  0.62580  1.0000 0.3612529328
H   H14       1.0  0.41230  0.60690  0.37420  1.0000 0.3612529328
H   H15       1.0  0.08770  0.10690  0.12580  1.0000 0.3612529328
H   H16       1.0  0.58770  0.39310  0.87420  1.0000 0.3612529328
H   H17       1.0  0.31460  0.34900  0.64710  1.0000 0.3981256948
H   H18       1.0  0.81460  0.15100  0.35290  1.0000 0.3981256948
H   H19       1.0  0.68540  0.65100  0.14710  1.0000 0.3981256948
H   H20       1.0  0.18540  0.84900  0.85290  1.0000 0.3981256948
H   H21       1.0  0.68540  0.65100  0.35290  1.0000 0.3981256948
H   H22       1.0  0.18540  0.84900  0.64710  1.0000 0.3981256948
H   H23       1.0  0.31460  0.34900  0.85290  1.0000 0.3981256948
H   H24       1.0  0.81460  0.15100  0.14710  1.0000 0.3981256948
H   H25       1.0  0.38010  0.32780  0.69610  1.0000 0.3612529328
H   H26       1.0  0.88010  0.17220  0.30390  1.0000 0.3612529328
H   H27       1.0  0.61990  0.67220  0.19610  1.0000 0.3612529328
H   H28       1.0  0.11990  0.82780  0.80390  1.0000 0.3612529328
H   H29       1.0  0.61990  0.67220  0.30390  1.0000 0.3612529328
H   H30       1.0  0.11990  0.82780  0.69610  1.0000 0.3612529328
H   H31       1.0  0.38010  0.32780  0.80390  1.0000 0.3612529328
H   H32       1.0  0.88010  0.17220  0.19610  1.0000 0.3612529328
H   H33       1.0  0.93060  0.31610  0.72030  1.0000 0.333965683
H   H34       1.0  0.43060  0.18390  0.27970  1.0000 0.333965683
H   H35       1.0  0.06940  0.68390  0.22030  1.0000 0.333965683
H   H36       1.0  0.56940  0.81610  0.77970  1.0000 0.333965683
H   H37       1.0  0.06940  0.68390  0.27970  1.0000 0.333965683
H   H38       1.0  0.56940  0.81610  0.72030  1.0000 0.333965683
H   H39       1.0  0.93060  0.31610  0.77970  1.0000 0.333965683
H   H40       1.0  0.43060  0.18390  0.22030  1.0000 0.333965683
H   H41       1.0  0.84630  0.52260  0.39000  1.0000 0.3130877704
H   H42       1.0  0.34630  0.97740  0.61000  1.0000 0.3130877704
H   H43       1.0  0.15370  0.47740  0.89000  1.0000 0.3130877704
H   H44       1.0  0.65370  0.02260  0.11000  1.0000 0.3130877704
H   H45       1.0  0.15370  0.47740  0.61000  1.0000 0.3130877704
H   H46       1.0  0.65370  0.02260  0.39000  1.0000 0.3130877704
H   H47       1.0  0.84630  0.52260  0.11000  1.0000 0.3130877704
H   H48       1.0  0.34630  0.97740  0.89000  1.0000 0.3130877704
H   H49       1.0  0.00900  0.44100  0.33970  1.0000 0.140453776
H   H50       1.0  0.50900  0.05900  0.66030  1.0000 0.140453776
H   H51       1.0  0.99100  0.55900  0.83970  1.0000 0.140453776
H   H52       1.0  0.49100  0.94100  0.16030  1.0000 0.140453776
H   H53       1.0  0.99100  0.55900  0.66030  1.0000 0.140453776
H   H54       1.0  0.49100  0.94100  0.33970  1.0000 0.140453776
H   H55       1.0  0.00900  0.44100  0.16030  1.0000 0.140453776
H   H56       1.0  0.50900  0.05900  0.83970  1.0000 0.140453776
H   H57       1.0  0.05350  0.34060  0.36940  1.0000 0.1326303238
H   H58       1.0  0.55350  0.15940  0.63060  1.0000 0.1326303238
H   H59       1.0  0.94650  0.65940  0.86940  1.0000 0.1326303238
H   H60       1.0  0.44650  0.84060  0.13060  1.0000 0.1326303238
H   H61       1.0  0.94650  0.65940  0.63060  1.0000 0.1326303238
H   H62       1.0  0.44650  0.84060  0.36940  1.0000 0.1326303238
H   H63       1.0  0.05350  0.34060  0.13060  1.0000 0.1326303238
H   H64       1.0  0.55350  0.15940  0.86940  1.0000 0.1326303238
H   H65       1.0  0.06930  0.53560  0.42570  1.0000 0.1004580946
H   H66       1.0  0.56930  0.96440  0.57430  1.0000 0.1004580946
H   H67       1.0  0.93070  0.46440  0.92570  1.0000 0.1004580946
H   H68       1.0  0.43070  0.03560  0.07430  1.0000 0.1004580946
H   H69       1.0  0.93070  0.46440  0.57430  1.0000 0.1004580946
H   H70       1.0  0.43070  0.03560  0.42570  1.0000 0.1004580946
H   H71       1.0  0.06930  0.53560  0.07430  1.0000 0.1004580946
H   H72       1.0  0.56930  0.96440  0.92570  1.0000 0.1004580946
H   H73       1.0  0.12440  0.43470  0.44820  1.0000 0.1004580946
H   H74       1.0  0.62440  0.06530  0.55180  1.0000 0.1004580946
H   H75       1.0  0.87560  0.56530  0.94820  1.0000 0.1004580946
H   H76       1.0  0.37560  0.93470  0.05180  1.0000 0.1004580946
H   H77       1.0  0.87560  0.56530  0.55180  1.0000 0.1004580946
H   H78       1.0  0.37560  0.93470  0.44820  1.0000 0.1004580946
H   H79       1.0  0.12440  0.43470  0.05180  1.0000 0.1004580946
H   H80       1.0  0.62440  0.06530  0.94820  1.0000 0.1004580946
H   H81       1.0  0.24180  0.43710  0.37030  1.0000 0.1326303238
H   H82       1.0  0.74180  0.06290  0.62970  1.0000 0.1326303238
H   H83       1.0  0.75820  0.56290  0.87030  1.0000 0.1326303238
H   H84       1.0  0.25820  0.93710  0.12970  1.0000 0.1326303238
H   H85       1.0  0.75820  0.56290  0.62970  1.0000 0.1326303238
H   H86       1.0  0.25820  0.93710  0.37030  1.0000 0.1326303238
H   H87       1.0  0.24180  0.43710  0.12970  1.0000 0.1326303238
H   H88       1.0  0.74180  0.06290  0.87030  1.0000 0.1326303238
H   H89       1.0  0.24300  0.54780  0.39770  1.0000 0.115653956
H   H90       1.0  0.74300  0.95220  0.60230  1.0000 0.115653956
H   H91       1.0  0.75700  0.45220  0.89770  1.0000 0.115653956
H   H92       1.0  0.25700  0.04780  0.10230  1.0000 0.115653956
H   H93       1.0  0.75700  0.45220  0.60230  1.0000 0.115653956
H   H94       1.0  0.25700  0.04780  0.39770  1.0000 0.115653956
H   H95       1.0  0.24300  0.54780  0.10230  1.0000 0.115653956
H   H96       1.0  0.74300  0.95220  0.89770  1.0000 0.115653956
H   H97       1.0  0.17970  0.52640  0.33910  1.0000 0.1105998398
H   H98       1.0  0.67970  0.97360  0.66090  1.0000 0.1105998398
H   H99       1.0  0.82030  0.47360  0.83910  1.0000 0.1105998398
H   H100      1.0  0.32030  0.02640  0.16090  1.0000 0.1105998398
H   H101      1.0  0.82030  0.47360  0.66090  1.0000 0.1105998398
H   H102      1.0  0.32030  0.02640  0.33910  1.0000 0.1105998398
H   H103      1.0  0.17970  0.52640  0.16090  1.0000 0.1105998398
H   H104      1.0  0.67970  0.97360  0.83910  1.0000 0.1105998398
H   H105      1.0  0.29750  0.52530  0.75000  1.0000 0.0854042002
H   H106      1.0  0.79750  0.97470  0.25000  1.0000 0.0854042002
H   H107      1.0  0.70250  0.47470  0.25000  1.0000 0.0854042002
H   H108      1.0  0.20250  0.02530  0.75000  1.0000 0.0854042002
C   C1        1.0  0.80100  0.34640  0.47401  1.0000 0.0147579216
C   C2        1.0  0.30100  0.15360  0.52599  1.0000 0.0147579216
C   C3        1.0  0.19900  0.65360  0.97401  1.0000 0.0152719763
C   C4        1.0  0.69900  0.84640  0.02599  1.0000 0.0147579216
C   C5        1.0  0.19900  0.65360  0.52599  1.0000 0.0152719763
C   C6        1.0  0.69900  0.84640  0.47401  1.0000 0.0147579216
C   C7        1.0  0.80100  0.34640  0.02599  1.0000 0.0147579216
C   C8        1.0  0.30100  0.15360  0.97401  1.0000 0.0147579216
C   C9        1.0  0.76820  0.43960  0.45105  1.0000 0.0035676291
C   C10       1.0  0.26820  0.06040  0.54895  1.0000 0.0035676291
C   C11       1.0  0.23180  0.56040  0.95105  1.0000 0.0035676291
C   C12       1.0  0.73180  0.93960  0.04895  1.0000 0.0035676291
C   C13       1.0  0.23180  0.56040  0.54895  1.0000 0.0035676291
C   C14       1.0  0.73180  0.93960  0.45105  1.0000 0.0035676291
C   C15       1.0  0.76820  0.43960  0.04895  1.0000 0.0035676291
C   C16       1.0  0.26820  0.06040  0.95105  1.0000 0.0035676291
C   C17       1.0  0.92240  0.39580  0.41137  1.0000 0.3882317
C   C18       1.0  0.42240  0.10420  0.58863  1.0000 0.3882317
C   C19       1.0  0.07760  0.60420  0.91137  1.0000 0.3882317
C   C20       1.0  0.57760  0.89580  0.08863  1.0000 0.3882317
C   C21       1.0  0.07760  0.60420  0.58863  1.0000 0.3882317
C   C22       1.0  0.57760  0.89580  0.41137  1.0000 0.3882317
C   C23       1.0  0.92240  0.39580  0.08863  1.0000 0.3882317
C   C24       1.0  0.42240  0.10420  0.91137  1.0000 0.3882317
C   C25       1.0  0.75870  0.27930  0.52258  1.0000 0.6125694902
C   C26       1.0  0.25870  0.22070  0.47742  1.0000 0.6125694902
C   C27       1.0  0.24130  0.72070  0.02258  1.0000 0.6125694902
C   C28       1.0  0.74130  0.77930  0.97742  1.0000 0.6125694902
C   C29       1.0  0.24130  0.72070  0.47742  1.0000 0.6125694902
C   C30       1.0  0.74130  0.77930  0.52258  1.0000 0.6125694902
C   C31       1.0  0.75870  0.27930  0.97742  1.0000 0.6125694902
C   C32       1.0  0.25870  0.22070  0.02258  1.0000 0.6125694902
C   C33       1.0  0.68170  0.51270  0.46286  1.0000 0.5792402716
C   C34       1.0  0.18170  0.98730  0.53714  1.0000 0.5792402716
C   C35       1.0  0.31830  0.48730  0.96286  1.0000 0.5792402716
C   C36       1.0  0.81830  0.01270  0.03714  1.0000 0.5792402716
C   C37       1.0  0.31830  0.48730  0.53714  1.0000 0.5792402716
C   C38       1.0  0.81830  0.01270  0.46286  1.0000 0.5792402716
C   C39       1.0  0.68170  0.51270  0.03714  1.0000 0.5792402716
C   C40       1.0  0.18170  0.98730  0.96286  1.0000 0.5792402716
C   C41       1.0  0.02340  0.40780  0.37744  1.0000 -0.2913358717
C   C42       1.0  0.52340  0.09220  0.62256  1.0000 -0.2913358717
C   C43       1.0  0.97660  0.59220  0.87744  1.0000 -0.2913358717
C   C44       1.0  0.47660  0.90780  0.12256  1.0000 -0.2913358717
C   C45       1.0  0.97660  0.59220  0.62256  1.0000 -0.2913358717
C   C46       1.0  0.47660  0.90780  0.37744  1.0000 -0.2913358717
C   C47       1.0  0.02340  0.40780  0.12256  1.0000 -0.2913358717
C   C48       1.0  0.52340  0.09220  0.87744  1.0000 -0.2913358717
C   C49       1.0  0.10320  0.47240  0.41290  1.0000 -0.0792030247
C   C50       1.0  0.60320  0.02760  0.58710  1.0000 -0.0792030247
C   C51       1.0  0.89680  0.52760  0.91290  1.0000 -0.0792030247
C   C52       1.0  0.39680  0.97240  0.08710  1.0000 -0.0792030247
C   C53       1.0  0.89680  0.52760  0.58710  1.0000 -0.0792030247
C   C54       1.0  0.39680  0.97240  0.41290  1.0000 -0.0792030247
C   C55       1.0  0.10320  0.47240  0.08710  1.0000 -0.0792030247
C   C56       1.0  0.60320  0.02760  0.91290  1.0000 -0.0792030247
C   C57       1.0  0.20090  0.49830  0.37670  1.0000 -0.3888208179
C   C58       1.0  0.70090  0.00170  0.62330  1.0000 -0.3888208179
C   C59       1.0  0.79910  0.50170  0.87670  1.0000 -0.3888208179
C   C60       1.0  0.29910  0.99830  0.12330  1.0000 -0.3888208179
C   C61       1.0  0.79910  0.50170  0.62330  1.0000 -0.3888208179
C   C62       1.0  0.29910  0.99830  0.37670  1.0000 -0.3888208179
C   C63       1.0  0.20090  0.49830  0.12330  1.0000 -0.3888208179
C   C64       1.0  0.70090  0.00170  0.87670  1.0000 -0.3888208179
C   C65       1.0  0.05480  0.17070  0.63435  1.0000 0.4933727176
C   C66       1.0  0.55480  0.32930  0.36565  1.0000 0.4933727176
C   C67       1.0  0.94520  0.82930  0.13435  1.0000 0.4933727176
C   C68       1.0  0.44520  0.67070  0.86565  1.0000 0.4933727176
C   C69       1.0  0.94520  0.82930  0.36565  1.0000 0.4933727176
C   C70       1.0  0.44520  0.67070  0.63435  1.0000 0.4933727176
C   C71       1.0  0.05480  0.17070  0.86565  1.0000 0.4933727176
C   C72       1.0  0.55480  0.32930  0.13435  1.0000 0.4933727176
C   C73       1.0  0.07380  0.28120  0.61070  1.0000 0.4780680851
C   C74       1.0  0.57380  0.21880  0.38930  1.0000 0.4780680851
C   C75       1.0  0.92620  0.71880  0.11070  1.0000 0.4780680851
C   C76       1.0  0.42620  0.78120  0.88930  1.0000 0.4780680851
C   C77       1.0  0.92620  0.71880  0.38930  1.0000 0.4780680851
C   C78       1.0  0.42620  0.78120  0.61070  1.0000 0.4780680851
C   C79       1.0  0.07380  0.28120  0.88930  1.0000 0.4780680851
C   C80       1.0  0.57380  0.21880  0.11070  1.0000 0.4780680851
C   C81       1.0  0.22740  0.54770  0.75000  1.0000 0.5260562391
C   C82       1.0  0.72740  0.95230  0.25000  1.0000 0.5260562391
C   C83       1.0  0.77260  0.45230  0.25000  1.0000 0.5260562391
C   C84       1.0  0.27260  0.04770  0.75000  1.0000 0.5260562391
N   N1        1.0  0.89750  0.32030  0.44895  1.0000 -0.4866547233
N   N2        1.0  0.39750  0.17970  0.55105  1.0000 -0.4866547233
N   N3        1.0  0.10250  0.67970  0.94895  1.0000 -0.4866547233
N   N4        1.0  0.60250  0.82030  0.05105  1.0000 -0.4866547233
N   N5        1.0  0.10250  0.67970  0.55105  1.0000 -0.4866547233
N   N6        1.0  0.60250  0.82030  0.44895  1.0000 -0.4866547233
N   N7        1.0  0.89750  0.32030  0.05105  1.0000 -0.4866547233
N   N8        1.0  0.39750  0.17970  0.94895  1.0000 -0.4866547233
N   N9        1.0  0.84640  0.46780  0.41131  1.0000 -0.2361828296
N   N10       1.0  0.34640  0.03220  0.58869  1.0000 -0.2361828296
N   N11       1.0  0.15360  0.53220  0.91131  1.0000 -0.2361828296
N   N12       1.0  0.65360  0.96780  0.08869  1.0000 -0.2361828296
N   N13       1.0  0.15360  0.53220  0.58869  1.0000 -0.2361828296
N   N14       1.0  0.65360  0.96780  0.41131  1.0000 -0.2361828296
N   N15       1.0  0.84640  0.46780  0.08869  1.0000 -0.2361828296
N   N16       1.0  0.34640  0.03220  0.91131  1.0000 -0.2361828296
O   O1        1.0  0.82505  0.21747  0.54476  1.0000 -0.6159269644
O   O2        1.0  0.32505  0.28253  0.45524  1.0000 -0.6159269644
O   O3        1.0  0.17495  0.78253  0.04476  1.0000 -0.6159269644
O   O4        1.0  0.67495  0.71747  0.95524  1.0000 -0.6159269644
O   O5        1.0  0.17495  0.78253  0.45524  1.0000 -0.6159269644
O   O6        1.0  0.67495  0.71747  0.54476  1.0000 -0.6159269644
O   O7        1.0  0.82505  0.21747  0.95524  1.0000 -0.6159269644
O   O8        1.0  0.32505  0.28253  0.04476  1.0000 -0.6159269644
O   O9        1.0  0.66493  0.28856  0.53963  1.0000 -0.639842531
O   O10       1.0  0.16493  0.21144  0.46037  1.0000 -0.639842531
O   O11       1.0  0.33507  0.71144  0.03963  1.0000 -0.639842531
O   O12       1.0  0.83507  0.78856  0.96037  1.0000 -0.639842531
O   O13       1.0  0.33507  0.71144  0.46037  1.0000 -0.639842531
O   O14       1.0  0.83507  0.78856  0.53963  1.0000 -0.639842531
O   O15       1.0  0.66493  0.28856  0.96037  1.0000 -0.639842531
O   O16       1.0  0.16493  0.21144  0.03963  1.0000 -0.639842531
O   O17       1.0  0.61002  0.49128  0.50116  1.0000 -0.7319903969
O   O18       1.0  0.11002  0.00872  0.49884  1.0000 -0.7319903969
O   O19       1.0  0.38998  0.50872  0.00116  1.0000 -0.7319903969
O   O20       1.0  0.88998  0.99128  0.99884  1.0000 -0.7319903969
O   O21       1.0  0.38998  0.50872  0.49884  1.0000 -0.7319903969
O   O22       1.0  0.88998  0.99128  0.50116  1.0000 -0.7319903969
O   O23       1.0  0.61002  0.49128  0.99884  1.0000 -0.7319903969
O   O24       1.0  0.11002  0.00872  0.00116  1.0000 -0.7319903969
O   O25       1.0  0.68091  0.59650  0.43549  1.0000 -0.5738717525
O   O26       1.0  0.18091  0.90350  0.56451  1.0000 -0.5738717525
O   O27       1.0  0.31909  0.40350  0.93549  1.0000 -0.5738717525
O   O28       1.0  0.81909  0.09650  0.06451  1.0000 -0.5738717525
O   O29       1.0  0.31909  0.40350  0.56451  1.0000 -0.5738717525
O   O30       1.0  0.81909  0.09650  0.43549  1.0000 -0.5738717525
O   O31       1.0  0.68091  0.59650  0.06451  1.0000 -0.5738717525
O   O32       1.0  0.18091  0.90350  0.93549  1.0000 -0.5738717525
O   O33       1.0  0.07910  0.15345  0.68688  1.0000 -0.5829692988
O   O34       1.0  0.57910  0.34655  0.31312  1.0000 -0.5829692988
O   O35       1.0  0.92090  0.84655  0.18688  1.0000 -0.5829692988
O   O36       1.0  0.42090  0.65345  0.81312  1.0000 -0.5829692988
O   O37       1.0  0.92090  0.84655  0.31312  1.0000 -0.5829692988
O   O38       1.0  0.42090  0.65345  0.68688  1.0000 -0.5829692988
O   O39       1.0  0.07910  0.15345  0.81312  1.0000 -0.5829692988
O   O40       1.0  0.57910  0.34655  0.18688  1.0000 -0.5829692988
O   O41       1.0  0.01605  0.10752  0.59771  1.0000 -0.5885705261
O   O42       1.0  0.51605  0.39248  0.40229  1.0000 -0.5885705261
O   O43       1.0  0.98395  0.89248  0.09771  1.0000 -0.5885705261
O   O44       1.0  0.48395  0.60752  0.90229  1.0000 -0.5885705261
O   O45       1.0  0.98395  0.89248  0.40229  1.0000 -0.5885705261
O   O46       1.0  0.48395  0.60752  0.59771  1.0000 -0.5885705261
O   O47       1.0  0.01605  0.10752  0.90229  1.0000 -0.5885705261
O   O48       1.0  0.51605  0.39248  0.09771  1.0000 -0.5885705261
O   O49       1.0  0.05190  0.29853  0.55784  1.0000 -0.5592572301
O   O50       1.0  0.55190  0.20147  0.44216  1.0000 -0.5592572301
O   O51       1.0  0.94810  0.70147  0.05784  1.0000 -0.5592572301
O   O52       1.0  0.44810  0.79853  0.94216  1.0000 -0.5592572301
O   O53       1.0  0.94810  0.70147  0.44216  1.0000 -0.5592572301
O   O54       1.0  0.44810  0.79853  0.55784  1.0000 -0.5592572301
O   O55       1.0  0.05190  0.29853  0.94216  1.0000 -0.5592572301
O   O56       1.0  0.55190  0.20147  0.05784  1.0000 -0.5592572301
O   O57       1.0  0.10870  0.34537  0.64769  1.0000 -0.5885705261
O   O58       1.0  0.60870  0.15463  0.35231  1.0000 -0.5885705261
O   O59       1.0  0.89130  0.65463  0.14769  1.0000 -0.5885705261
O   O60       1.0  0.39130  0.84537  0.85231  1.0000 -0.5885705261
O   O61       1.0  0.89130  0.65463  0.35231  1.0000 -0.5885705261
O   O62       1.0  0.39130  0.84537  0.64769  1.0000 -0.5885705261
O   O63       1.0  0.10870  0.34537  0.85231  1.0000 -0.5885705261
O   O64       1.0  0.60870  0.15463  0.14769  1.0000 -0.5885705261
O   O65       1.0  0.15860  0.48070  0.75000  1.0000 -0.5885705261
O   O66       1.0  0.65860  0.01930  0.25000  1.0000 -0.5885705261
O   O67       1.0  0.84140  0.51930  0.25000  1.0000 -0.5885705261
O   O68       1.0  0.34140  0.98070  0.75000  1.0000 -0.5885705261
O   O69       1.0  0.21280  0.64270  0.75000  1.0000 -0.607938072
O   O70       1.0  0.71280  0.85730  0.25000  1.0000 -0.607938072
O   O71       1.0  0.78720  0.35730  0.25000  1.0000 -0.607938072
O   O72       1.0  0.28720  0.14270  0.75000  1.0000 -0.607938072
O   O73       1.0  0.02360  0.10240  0.38572  1.0000 -0.7319903969
O   O74       1.0  0.52360  0.39760  0.61428  1.0000 -0.7319903969
O   O75       1.0  0.97640  0.89760  0.88572  1.0000 -0.7319903969
O   O76       1.0  0.47640  0.60240  0.11428  1.0000 -0.7319903969
O   O77       1.0  0.97640  0.89760  0.61428  1.0000 -0.7319903969
O   O78       1.0  0.47640  0.60240  0.38572  1.0000 -0.7319903969
O   O79       1.0  0.02360  0.10240  0.11428  1.0000 -0.7319903969
O   O80       1.0  0.52360  0.39760  0.88572  1.0000 -0.7319903969
O   O81       1.0  0.31670  0.33180  0.68357  1.0000 -0.7792492269
O   O82       1.0  0.81670  0.16820  0.31643  1.0000 -0.7792492269
O   O83       1.0  0.68330  0.66820  0.18357  1.0000 -0.7792492269
O   O84       1.0  0.18330  0.83180  0.81643  1.0000 -0.7792492269
O   O85       1.0  0.68330  0.66820  0.31643  1.0000 -0.7792492269
O   O86       1.0  0.18330  0.83180  0.68357  1.0000 -0.7792492269
O   O87       1.0  0.31670  0.33180  0.81643  1.0000 -0.7792492269
O   O88       1.0  0.81670  0.16820  0.18357  1.0000 -0.7792492269
O   O89       1.0  0.96720  0.33530  0.75000  1.0000 -0.7319903969
O   O90       1.0  0.46720  0.16470  0.25000  1.0000 -0.7319903969
O   O91       1.0  0.03280  0.66470  0.25000  1.0000 -0.7319903969
O   O92       1.0  0.53280  0.83530  0.75000  1.0000 -0.7319903969
