# DDEC6 charges by PACMAN v1.1 (https://github.com/mtap-research/PACMAN-charge/)
data_2012[Zn][nan]3[FSR]9
_chemical_formula_sum              "Zn12 H120 C204 S24 O60"
_cell_length_a       19.293
_cell_length_b       19.293
_cell_length_c       20.838
_cell_angle_alpha    90
_cell_angle_beta     90
_cell_angle_gamma    120

_symmetry_space_group_name_H-M    "P 1"
_symmetry_Int_Tables_number       1

loop_
  _symmetry_equiv_pos_as_xyz
  'x, y, z'

loop_
  _atom_site_type_symbol
  _atom_site_label
  _atom_site_symmetry_multiplicity
  _atom_site_fract_x
  _atom_site_fract_y
  _atom_site_fract_z
  _atom_site_occupancy
  _atom_site_charge
Zn  Zn1       1.0  0.56431  0.28715  0.12013  1.0000 0.9171443112
Zn  Zn2       1.0  0.71285  0.27716  0.78680  1.0000 0.9171443112
Zn  Zn3       1.0  0.72284  0.43569  0.45346  1.0000 0.9171443112
Zn  Zn4       1.0  0.43569  0.71285  0.62013  1.0000 0.9171443112
Zn  Zn5       1.0  0.28715  0.72284  0.28680  1.0000 0.9171443112
Zn  Zn6       1.0  0.27716  0.56431  0.95346  1.0000 0.9171443112
Zn  Zn7       1.0  0.63113  0.27772  0.95719  1.0000 0.991895569
Zn  Zn8       1.0  0.72228  0.35341  0.62386  1.0000 0.991895569
Zn  Zn9       1.0  0.64659  0.36887  0.29052  1.0000 0.991895569
Zn  Zn10      1.0  0.36887  0.72228  0.45719  1.0000 0.991895569
Zn  Zn11      1.0  0.27772  0.64659  0.12386  1.0000 0.991895569
Zn  Zn12      1.0  0.35341  0.63113  0.79052  1.0000 0.991895569
H   H1        1.0  0.05550  0.40660  0.14820  1.0000 0.1207092978
H   H2        1.0  0.59340  0.64890  0.81487  1.0000 0.1207092978
H   H3        1.0  0.35110  0.94450  0.48153  1.0000 0.1207092978
H   H4        1.0  0.94450  0.59340  0.64820  1.0000 0.1207092978
H   H5        1.0  0.40660  0.35110  0.31487  1.0000 0.1207092978
H   H6        1.0  0.64890  0.05550  0.98153  1.0000 0.1207092978
H   H7        1.0  0.06990  0.22720  0.00620  1.0000 0.1207092978
H   H8        1.0  0.77280  0.84270  0.67287  1.0000 0.1207092978
H   H9        1.0  0.15730  0.93010  0.33953  1.0000 0.1207092978
H   H10       1.0  0.93010  0.77280  0.50620  1.0000 0.1207092978
H   H11       1.0  0.22720  0.15730  0.17287  1.0000 0.1207092978
H   H12       1.0  0.84270  0.06990  0.83953  1.0000 0.1207092978
H   H13       1.0  0.96130  0.27110  0.15450  1.0000 0.1207092978
H   H14       1.0  0.72890  0.69020  0.82117  1.0000 0.1207092978
H   H15       1.0  0.30980  0.03870  0.48783  1.0000 0.1207092978
H   H16       1.0  0.03870  0.72890  0.65450  1.0000 0.1207092978
H   H17       1.0  0.27110  0.30980  0.32117  1.0000 0.1207092978
H   H18       1.0  0.69020  0.96130  0.98783  1.0000 0.1207092978
H   H19       1.0  0.16280  0.36360  0.99910  1.0000 0.1207092978
H   H20       1.0  0.63640  0.79920  0.66577  1.0000 0.1207092978
H   H21       1.0  0.20080  0.83720  0.33243  1.0000 0.1207092978
H   H22       1.0  0.83720  0.63640  0.49910  1.0000 0.1207092978
H   H23       1.0  0.36360  0.20080  0.16577  1.0000 0.1207092978
H   H24       1.0  0.79920  0.16280  0.83243  1.0000 0.1207092978
H   H25       1.0  0.78550  0.27530  0.02310  1.0000 0.1207092978
H   H26       1.0  0.72470  0.51020  0.68977  1.0000 0.1207092978
H   H27       1.0  0.48980  0.21450  0.35643  1.0000 0.1207092978
H   H28       1.0  0.21450  0.72470  0.52310  1.0000 0.1207092978
H   H29       1.0  0.27530  0.48980  0.18977  1.0000 0.1207092978
H   H30       1.0  0.51020  0.78550  0.85643  1.0000 0.1207092978
H   H31       1.0  0.87230  0.22350  0.02000  1.0000 0.1207092978
H   H32       1.0  0.77650  0.64880  0.68667  1.0000 0.1207092978
H   H33       1.0  0.35120  0.12770  0.35333  1.0000 0.1207092978
H   H34       1.0  0.12770  0.77650  0.52000  1.0000 0.1207092978
H   H35       1.0  0.22350  0.35120  0.18667  1.0000 0.1207092978
H   H36       1.0  0.64880  0.87230  0.85333  1.0000 0.1207092978
H   H37       1.0  0.74650  0.07010  0.16450  1.0000 0.1108224717
H   H38       1.0  0.92990  0.67640  0.83117  1.0000 0.1108224717
H   H39       1.0  0.32360  0.25350  0.49783  1.0000 0.1108224717
H   H40       1.0  0.25350  0.92990  0.66450  1.0000 0.1108224717
H   H41       1.0  0.07010  0.32360  0.33117  1.0000 0.1108224717
H   H42       1.0  0.67640  0.74650  0.99783  1.0000 0.1108224717
H   H43       1.0  0.65990  0.12160  0.16680  1.0000 0.1207092978
H   H44       1.0  0.87840  0.53830  0.83347  1.0000 0.1207092978
H   H45       1.0  0.46170  0.34010  0.50013  1.0000 0.1207092978
H   H46       1.0  0.34010  0.87840  0.66680  1.0000 0.1207092978
H   H47       1.0  0.12160  0.46170  0.33347  1.0000 0.1207092978
H   H48       1.0  0.53830  0.65990  0.00013  1.0000 0.1207092978
H   H49       1.0  0.80430  0.53960  0.21450  1.0000 0.1207092978
H   H50       1.0  0.46040  0.26470  0.88117  1.0000 0.1207092978
H   H51       1.0  0.73530  0.19570  0.54783  1.0000 0.1207092978
H   H52       1.0  0.19570  0.46040  0.71450  1.0000 0.1207092978
H   H53       1.0  0.53960  0.73530  0.38117  1.0000 0.1207092978
H   H54       1.0  0.26470  0.80430  0.04783  1.0000 0.1207092978
H   H55       1.0  0.88750  0.67740  0.20490  1.0000 0.1207092978
H   H56       1.0  0.32260  0.21010  0.87157  1.0000 0.1207092978
H   H57       1.0  0.78990  0.11250  0.53823  1.0000 0.1207092978
H   H58       1.0  0.11250  0.32260  0.70490  1.0000 0.1207092978
H   H59       1.0  0.67740  0.78990  0.37157  1.0000 0.1207092978
H   H60       1.0  0.21010  0.88750  0.03823  1.0000 0.1207092978
H   H61       1.0  0.74280  0.68200  0.06600  1.0000 0.1108224717
H   H62       1.0  0.31800  0.06080  0.73267  1.0000 0.1108224717
H   H63       1.0  0.93920  0.25720  0.39933  1.0000 0.1108224717
H   H64       1.0  0.25720  0.31800  0.56600  1.0000 0.1108224717
H   H65       1.0  0.68200  0.93920  0.23267  1.0000 0.1108224717
H   H66       1.0  0.06080  0.74280  0.89933  1.0000 0.1108224717
H   H67       1.0  0.66040  0.54470  0.07540  1.0000 0.1207092978
H   H68       1.0  0.45530  0.11570  0.74207  1.0000 0.1207092978
H   H69       1.0  0.88430  0.33960  0.40873  1.0000 0.1207092978
H   H70       1.0  0.33960  0.45530  0.57540  1.0000 0.1207092978
H   H71       1.0  0.54470  0.88430  0.24207  1.0000 0.1207092978
H   H72       1.0  0.11570  0.66040  0.90873  1.0000 0.1207092978
H   H73       1.0  0.17700  0.85050  0.22320  1.0000 0.1207092978
H   H74       1.0  0.14950  0.32650  0.88987  1.0000 0.1207092978
H   H75       1.0  0.67350  0.82300  0.55653  1.0000 0.1207092978
H   H76       1.0  0.82300  0.14950  0.72320  1.0000 0.1207092978
H   H77       1.0  0.85050  0.67350  0.38987  1.0000 0.1207092978
H   H78       1.0  0.32650  0.17700  0.05653  1.0000 0.1207092978
H   H79       1.0  0.08330  0.88950  0.20060  1.0000 0.1207092978
H   H80       1.0  0.11050  0.19380  0.86727  1.0000 0.1207092978
H   H81       1.0  0.80620  0.91670  0.53393  1.0000 0.1207092978
H   H82       1.0  0.91670  0.11050  0.70060  1.0000 0.1207092978
H   H83       1.0  0.88950  0.80620  0.36727  1.0000 0.1207092978
H   H84       1.0  0.19380  0.08330  0.03393  1.0000 0.1207092978
H   H85       1.0  0.97100  0.70260  0.07840  1.0000 0.1207092978
H   H86       1.0  0.29740  0.26840  0.74507  1.0000 0.1207092978
H   H87       1.0  0.73160  0.02900  0.41173  1.0000 0.1207092978
H   H88       1.0  0.02900  0.29740  0.57840  1.0000 0.1207092978
H   H89       1.0  0.70260  0.73160  0.24507  1.0000 0.1207092978
H   H90       1.0  0.26840  0.97100  0.91173  1.0000 0.1207092978
H   H91       1.0  0.06610  0.66520  0.10100  1.0000 0.1207092978
H   H92       1.0  0.33480  0.40090  0.76767  1.0000 0.1207092978
H   H93       1.0  0.59910  0.93390  0.43433  1.0000 0.1207092978
H   H94       1.0  0.93390  0.33480  0.60100  1.0000 0.1207092978
H   H95       1.0  0.66520  0.59910  0.26767  1.0000 0.1207092978
H   H96       1.0  0.40090  0.06610  0.93433  1.0000 0.1207092978
H   H97       1.0  0.61800  0.38800  0.01450  1.0000 0.3852096326
H   H98       1.0  0.61200  0.23000  0.68117  1.0000 0.3852096326
H   H99       1.0  0.77000  0.38200  0.34783  1.0000 0.3852096326
H   H100      1.0  0.38200  0.61200  0.51450  1.0000 0.3852096326
H   H101      1.0  0.38800  0.77000  0.18117  1.0000 0.3852096326
H   H102      1.0  0.23000  0.61800  0.84783  1.0000 0.3852096326
H   H103      1.0  0.63100  0.40150  0.94560  1.0000 0.3632766631
H   H104      1.0  0.59850  0.22950  0.61227  1.0000 0.3632766631
H   H105      1.0  0.77050  0.36900  0.27893  1.0000 0.3632766631
H   H106      1.0  0.36900  0.59850  0.44560  1.0000 0.3632766631
H   H107      1.0  0.40150  0.77050  0.11227  1.0000 0.3632766631
H   H108      1.0  0.22950  0.63100  0.77893  1.0000 0.3632766631
H   H109      1.0  0.76100  0.36200  0.90660  1.0000 0.3836564846
H   H110      1.0  0.63800  0.39900  0.57327  1.0000 0.3836564846
H   H111      1.0  0.60100  0.23900  0.23993  1.0000 0.3836564846
H   H112      1.0  0.23900  0.63800  0.40660  1.0000 0.3836564846
H   H113      1.0  0.36200  0.60100  0.07327  1.0000 0.3836564846
H   H114      1.0  0.39900  0.76100  0.73993  1.0000 0.3836564846
H   H115      1.0  0.75500  0.41440  0.95200  1.0000 0.35202047
H   H116      1.0  0.58560  0.34060  0.61867  1.0000 0.35202047
H   H117      1.0  0.65940  0.24500  0.28533  1.0000 0.35202047
H   H118      1.0  0.24500  0.58560  0.45200  1.0000 0.35202047
H   H119      1.0  0.41440  0.65940  0.11867  1.0000 0.35202047
H   H120      1.0  0.34060  0.75500  0.78533  1.0000 0.35202047
C   C1        1.0  0.91190  0.99760  0.09567  1.0000 -0.0910086316
C   C2        1.0  0.00240  0.91430  0.76234  1.0000 -0.0910086316
C   C3        1.0  0.08570  0.08810  0.42900  1.0000 -0.0910086316
C   C4        1.0  0.08810  0.00240  0.59567  1.0000 -0.0910086316
C   C5        1.0  0.99760  0.08570  0.26234  1.0000 -0.0910086316
C   C6        1.0  0.91430  0.91190  0.92900  1.0000 -0.0910086316
C   C7        1.0  0.91300  0.93000  0.10314  1.0000 -0.0910086316
C   C8        1.0  0.07000  0.98300  0.76981  1.0000 -0.0955512644
C   C9        1.0  0.01700  0.08700  0.43647  1.0000 -0.0955512644
C   C10       1.0  0.08700  0.07000  0.60314  1.0000 -0.0955512644
C   C11       1.0  0.93000  0.01700  0.26981  1.0000 -0.0955512644
C   C12       1.0  0.98300  0.91300  0.93647  1.0000 -0.0955512644
C   C13       1.0  0.95180  0.14820  0.08672  1.0000 -0.0520152792
C   C14       1.0  0.85180  0.80360  0.75339  1.0000 -0.0520152792
C   C15       1.0  0.19640  0.04820  0.42005  1.0000 -0.0520152792
C   C16       1.0  0.04820  0.85180  0.58672  1.0000 -0.0520152792
C   C17       1.0  0.14820  0.19640  0.25339  1.0000 -0.0520152792
C   C18       1.0  0.80360  0.95180  0.92005  1.0000 -0.0520152792
C   C19       1.0  0.87160  0.10740  0.09047  1.0000 -0.0520152792
C   C20       1.0  0.89260  0.76420  0.75714  1.0000 -0.0520152792
C   C21       1.0  0.23580  0.12840  0.42380  1.0000 -0.0520152792
C   C22       1.0  0.12840  0.89260  0.59047  1.0000 -0.0520152792
C   C23       1.0  0.10740  0.23580  0.25714  1.0000 -0.0520152792
C   C24       1.0  0.76420  0.87160  0.92380  1.0000 -0.0520152792
C   C25       1.0  0.87750  0.78170  0.12540  1.0000 -0.0520152792
C   C26       1.0  0.21830  0.09580  0.79207  1.0000 -0.0520152792
C   C27       1.0  0.90420  0.12250  0.45873  1.0000 -0.0520152792
C   C28       1.0  0.12250  0.21830  0.62540  1.0000 -0.0520152792
C   C29       1.0  0.78170  0.90420  0.29207  1.0000 -0.0520152792
C   C30       1.0  0.09580  0.87750  0.95873  1.0000 -0.0520152792
C   C31       1.0  0.95770  0.82510  0.12576  1.0000 -0.0520152792
C   C32       1.0  0.17490  0.13260  0.79243  1.0000 -0.0520152792
C   C33       1.0  0.86740  0.04230  0.45909  1.0000 -0.0520152792
C   C34       1.0  0.04230  0.17490  0.62576  1.0000 -0.0520152792
C   C35       1.0  0.82510  0.86740  0.29243  1.0000 -0.0520152792
C   C36       1.0  0.13260  0.95770  0.95909  1.0000 -0.0520152792
C   C37       1.0  0.12010  0.39760  0.07438  1.0000 -0.0319184591
C   C38       1.0  0.60240  0.72250  0.74105  1.0000 -0.0319184591
C   C39       1.0  0.27750  0.87990  0.40771  1.0000 -0.0319184591
C   C40       1.0  0.87990  0.60240  0.57438  1.0000 -0.0319184591
C   C41       1.0  0.39760  0.27750  0.24105  1.0000 -0.0319184591
C   C42       1.0  0.72250  0.12010  0.90771  1.0000 -0.0319184591
C   C43       1.0  0.05870  0.36990  0.11969  1.0000 -0.0910086316
C   C44       1.0  0.63010  0.68880  0.78636  1.0000 -0.0910086316
C   C45       1.0  0.31120  0.94130  0.45302  1.0000 -0.0910086316
C   C46       1.0  0.94130  0.63010  0.61969  1.0000 -0.0910086316
C   C47       1.0  0.36990  0.31120  0.28636  1.0000 -0.0910086316
C   C48       1.0  0.68880  0.05870  0.95302  1.0000 -0.0910086316
C   C49       1.0  0.06700  0.26360  0.03517  1.0000 -0.1608449144
C   C50       1.0  0.73640  0.80340  0.70184  1.0000 -0.1608449144
C   C51       1.0  0.19660  0.93300  0.36850  1.0000 -0.1608449144
C   C52       1.0  0.93300  0.73640  0.53517  1.0000 -0.1608449144
C   C53       1.0  0.26360  0.19660  0.20184  1.0000 -0.1608449144
C   C54       1.0  0.80340  0.06700  0.86850  1.0000 -0.1608449144
C   C55       1.0  0.00680  0.23570  0.08122  1.0000 0.0908737681
C   C56       1.0  0.76430  0.77110  0.74789  1.0000 0.0908737681
C   C57       1.0  0.22890  0.99320  0.41455  1.0000 0.0908737681
C   C58       1.0  0.99320  0.76430  0.58122  1.0000 0.0908737681
C   C59       1.0  0.23570  0.22890  0.24789  1.0000 0.0908737681
C   C60       1.0  0.77110  0.00680  0.91455  1.0000 0.0908737681
C   C61       1.0  0.00270  0.28970  0.12328  1.0000 -0.1492639505
C   C62       1.0  0.71030  0.71300  0.78995  1.0000 -0.1492639505
C   C63       1.0  0.28700  0.99730  0.45661  1.0000 -0.1492639505
C   C64       1.0  0.99730  0.71030  0.62328  1.0000 -0.1492639505
C   C65       1.0  0.28970  0.28700  0.28995  1.0000 -0.1492639505
C   C66       1.0  0.71300  0.00270  0.95661  1.0000 -0.1492639505
C   C67       1.0  0.12267  0.34458  0.03141  1.0000 -0.0910086316
C   C68       1.0  0.65542  0.77809  0.69808  1.0000 -0.0910086316
C   C69       1.0  0.22191  0.87733  0.36474  1.0000 -0.0910086316
C   C70       1.0  0.87733  0.65542  0.53141  1.0000 -0.0910086316
C   C71       1.0  0.34458  0.22191  0.19808  1.0000 -0.0910086316
C   C72       1.0  0.77809  0.12267  0.86474  1.0000 -0.0910086316
C   C73       1.0  0.18523  0.48396  0.07199  1.0000 0.5847277767
C   C74       1.0  0.51604  0.70127  0.73866  1.0000 0.5847277767
C   C75       1.0  0.29873  0.81477  0.40532  1.0000 0.5847277767
C   C76       1.0  0.81477  0.51604  0.57199  1.0000 0.5847277767
C   C77       1.0  0.48396  0.29873  0.23866  1.0000 0.5847277767
C   C78       1.0  0.70127  0.18523  0.90532  1.0000 0.5847277767
C   C79       1.0  0.71498  0.20364  0.09510  1.0000 -0.0319184591
C   C80       1.0  0.79636  0.51134  0.76177  1.0000 -0.0319184591
C   C81       1.0  0.48866  0.28502  0.42843  1.0000 -0.0319184591
C   C82       1.0  0.28502  0.79636  0.59510  1.0000 -0.0319184591
C   C83       1.0  0.20364  0.48866  0.26177  1.0000 -0.0319184591
C   C84       1.0  0.51134  0.71498  0.92843  1.0000 -0.0319184591
C   C85       1.0  0.77766  0.23362  0.05161  1.0000 -0.0839771949
C   C86       1.0  0.76638  0.54404  0.71828  1.0000 -0.0839771949
C   C87       1.0  0.45596  0.22234  0.38494  1.0000 -0.0839771949
C   C88       1.0  0.22234  0.76638  0.55161  1.0000 -0.0839771949
C   C89       1.0  0.23362  0.45596  0.21828  1.0000 -0.0839771949
C   C90       1.0  0.54404  0.77766  0.88494  1.0000 -0.0839771949
C   C91       1.0  0.82910  0.20270  0.04970  1.0000 -0.1397913419
C   C92       1.0  0.79730  0.62640  0.71637  1.0000 -0.1397913419
C   C93       1.0  0.37360  0.17090  0.38303  1.0000 -0.1397913419
C   C94       1.0  0.17090  0.79730  0.54970  1.0000 -0.1397913419
C   C95       1.0  0.20270  0.37360  0.21637  1.0000 -0.1397913419
C   C96       1.0  0.62640  0.82910  0.88303  1.0000 -0.1397913419
C   C97       1.0  0.81730  0.14090  0.09165  1.0000 0.096098276
C   C98       1.0  0.85910  0.67640  0.75832  1.0000 0.096098276
C   C99       1.0  0.32360  0.18270  0.42498  1.0000 0.096098276
C   C100      1.0  0.18270  0.85910  0.59165  1.0000 0.096098276
C   C101      1.0  0.14090  0.32360  0.25832  1.0000 0.096098276
C   C102      1.0  0.67640  0.81730  0.92498  1.0000 0.096098276
C   C103      1.0  0.75430  0.11140  0.13557  1.0000 -0.1608449144
C   C104      1.0  0.88860  0.64290  0.80224  1.0000 -0.1608449144
C   C105      1.0  0.35710  0.24570  0.46890  1.0000 -0.1608449144
C   C106      1.0  0.24570  0.88860  0.63557  1.0000 -0.1608449144
C   C107      1.0  0.11140  0.35710  0.30224  1.0000 -0.1608449144
C   C108      1.0  0.64290  0.75430  0.96890  1.0000 -0.1608449144
C   C109      1.0  0.70310  0.14220  0.13712  1.0000 -0.0910086316
C   C110      1.0  0.85780  0.56090  0.80379  1.0000 -0.0910086316
C   C111      1.0  0.43910  0.29690  0.47045  1.0000 -0.0910086316
C   C112      1.0  0.29690  0.85780  0.63712  1.0000 -0.0955512644
C   C113      1.0  0.14220  0.43910  0.30379  1.0000 -0.0910086316
C   C114      1.0  0.56090  0.70310  0.97045  1.0000 -0.0955512644
C   C115      1.0  0.65890  0.23520  0.09793  1.0000 0.5929722316
C   C116      1.0  0.76480  0.42370  0.76460  1.0000 0.5929722316
C   C117      1.0  0.57630  0.34110  0.43126  1.0000 0.5929722316
C   C118      1.0  0.34110  0.76480  0.59793  1.0000 0.5929722316
C   C119      1.0  0.23520  0.57630  0.26460  1.0000 0.5929722316
C   C120      1.0  0.42370  0.65890  0.93126  1.0000 0.5929722316
C   C121      1.0  0.72440  0.52790  0.14578  1.0000 -0.0319184591
C   C122      1.0  0.47210  0.19650  0.81245  1.0000 -0.0319184591
C   C123      1.0  0.80350  0.27560  0.47911  1.0000 -0.0319184591
C   C124      1.0  0.27560  0.47210  0.64578  1.0000 -0.0319184591
C   C125      1.0  0.52790  0.80350  0.31245  1.0000 -0.0319184591
C   C126      1.0  0.19650  0.72440  0.97911  1.0000 -0.0319184591
C   C127      1.0  0.79200  0.56850  0.18398  1.0000 -0.0910086316
C   C128      1.0  0.43150  0.22350  0.85065  1.0000 -0.0910086316
C   C129      1.0  0.77650  0.20800  0.51731  1.0000 -0.0910086316
C   C130      1.0  0.20800  0.43150  0.68398  1.0000 -0.0910086316
C   C131      1.0  0.56850  0.77650  0.35065  1.0000 -0.0910086316
C   C132      1.0  0.22350  0.79200  0.01731  1.0000 -0.0910086316
C   C133      1.0  0.84170  0.65050  0.17819  1.0000 -0.1342192017
C   C134      1.0  0.34950  0.19120  0.84486  1.0000 -0.1342192017
C   C135      1.0  0.80880  0.15830  0.51152  1.0000 -0.1342192017
C   C136      1.0  0.15830  0.34950  0.67819  1.0000 -0.1342192017
C   C137      1.0  0.65050  0.80880  0.34486  1.0000 -0.1342192017
C   C138      1.0  0.19120  0.84170  0.01152  1.0000 -0.1342192017
C   C139      1.0  0.82500  0.69400  0.13342  1.0000 0.096098276
C   C140      1.0  0.30600  0.13100  0.80009  1.0000 0.096098276
C   C141      1.0  0.86900  0.17500  0.46675  1.0000 0.096098276
C   C142      1.0  0.17500  0.30600  0.63342  1.0000 0.096098276
C   C143      1.0  0.69400  0.86900  0.30009  1.0000 0.096098276
C   C144      1.0  0.13100  0.82500  0.96675  1.0000 0.096098276
C   C145      1.0  0.75600  0.65310  0.09587  1.0000 -0.1608449144
C   C146      1.0  0.34690  0.10290  0.76254  1.0000 -0.1608449144
C   C147      1.0  0.89710  0.24400  0.42920  1.0000 -0.1608449144
C   C148      1.0  0.24400  0.34690  0.59587  1.0000 -0.1608449144
C   C149      1.0  0.65310  0.89710  0.26254  1.0000 -0.1608449144
C   C150      1.0  0.10290  0.75600  0.92920  1.0000 -0.1608449144
C   C151      1.0  0.70670  0.57150  0.10165  1.0000 -0.0955512644
C   C152      1.0  0.42850  0.13520  0.76832  1.0000 -0.0955512644
C   C153      1.0  0.86480  0.29330  0.43498  1.0000 -0.0955512644
C   C154      1.0  0.29330  0.42850  0.60165  1.0000 -0.0955512644
C   C155      1.0  0.57150  0.86480  0.26832  1.0000 -0.0955512644
C   C156      1.0  0.13520  0.70670  0.93498  1.0000 -0.0955512644
C   C157      1.0  0.67200  0.43940  0.15091  1.0000 0.6001235075
C   C158      1.0  0.56060  0.23260  0.81758  1.0000 0.6001235075
C   C159      1.0  0.76740  0.32800  0.48424  1.0000 0.6001235075
C   C160      1.0  0.32800  0.56060  0.65091  1.0000 0.6001235075
C   C161      1.0  0.43940  0.76740  0.31758  1.0000 0.6001235075
C   C162      1.0  0.23260  0.67200  0.98424  1.0000 0.6001235075
C   C163      1.0  0.13050  0.75370  0.16457  1.0000 -0.0404140637
C   C164      1.0  0.24630  0.37680  0.83124  1.0000 -0.0404140637
C   C165      1.0  0.62320  0.86950  0.49790  1.0000 -0.0404140637
C   C166      1.0  0.86950  0.24630  0.66457  1.0000 -0.0404140637
C   C167      1.0  0.75370  0.62320  0.33124  1.0000 -0.0404140637
C   C168      1.0  0.37680  0.13050  0.99790  1.0000 -0.0404140637
C   C169      1.0  0.13490  0.82020  0.19379  1.0000 -0.0910086316
C   C170      1.0  0.17980  0.31470  0.86046  1.0000 -0.0910086316
C   C171      1.0  0.68530  0.86510  0.52712  1.0000 -0.0910086316
C   C172      1.0  0.86510  0.17980  0.69379  1.0000 -0.0910086316
C   C173      1.0  0.82020  0.68530  0.36046  1.0000 -0.0910086316
C   C174      1.0  0.31470  0.13490  0.02712  1.0000 -0.0910086316
C   C175      1.0  0.07890  0.84320  0.18082  1.0000 -0.1608449144
C   C176      1.0  0.15680  0.23570  0.84749  1.0000 -0.1608449144
C   C177      1.0  0.76430  0.92110  0.51415  1.0000 -0.1608449144
C   C178      1.0  0.92110  0.15680  0.68082  1.0000 -0.1608449144
C   C179      1.0  0.84320  0.76430  0.34749  1.0000 -0.1608449144
C   C180      1.0  0.23570  0.07890  0.01415  1.0000 -0.1608449144
C   C181      1.0  0.01670  0.79840  0.13892  1.0000 0.0908737681
C   C182      1.0  0.20160  0.21830  0.80559  1.0000 0.0908737681
C   C183      1.0  0.78170  0.98330  0.47225  1.0000 0.0908737681
C   C184      1.0  0.98330  0.20160  0.63892  1.0000 0.0908737681
C   C185      1.0  0.79840  0.78170  0.30559  1.0000 0.0908737681
C   C186      1.0  0.21830  0.01670  0.97225  1.0000 0.0908737681
C   C187      1.0  0.01250  0.73250  0.10833  1.0000 -0.1397913419
C   C188      1.0  0.26750  0.28000  0.77500  1.0000 -0.1397913419
C   C189      1.0  0.72000  0.98750  0.44166  1.0000 -0.1397913419
C   C190      1.0  0.98750  0.26750  0.60833  1.0000 -0.1397913419
C   C191      1.0  0.73250  0.72000  0.27500  1.0000 -0.1397913419
C   C192      1.0  0.28000  0.01250  0.94166  1.0000 -0.1397913419
C   C193      1.0  0.06930  0.71070  0.12173  1.0000 -0.0839771949
C   C194      1.0  0.28930  0.35860  0.78840  1.0000 -0.0839771949
C   C195      1.0  0.64140  0.93070  0.45506  1.0000 -0.0839771949
C   C196      1.0  0.93070  0.28930  0.62173  1.0000 -0.0839771949
C   C197      1.0  0.71070  0.64140  0.28840  1.0000 -0.0839771949
C   C198      1.0  0.35860  0.06930  0.95506  1.0000 -0.0839771949
C   C199      1.0  0.19000  0.72830  0.18030  1.0000 0.5929722316
C   C200      1.0  0.27170  0.46170  0.84697  1.0000 0.5929722316
C   C201      1.0  0.53830  0.81000  0.51363  1.0000 0.5929722316
C   C202      1.0  0.81000  0.27170  0.68030  1.0000 0.5929722316
C   C203      1.0  0.72830  0.53830  0.34697  1.0000 0.5929722316
C   C204      1.0  0.46170  0.19000  0.01363  1.0000 0.5929722316
S   S1        1.0  0.99958  0.09057  0.08589  1.0000 0.0391707152
S   S2        1.0  0.90943  0.90901  0.75256  1.0000 0.0391707152
S   S3        1.0  0.09099  0.00042  0.41922  1.0000 0.0391707152
S   S4        1.0  0.00042  0.90943  0.58589  1.0000 0.0391707152
S   S5        1.0  0.09057  0.09099  0.25256  1.0000 0.0391707152
S   S6        1.0  0.90901  0.99958  0.91922  1.0000 0.0391707152
S   S7        1.0  0.82336  0.00204  0.09366  1.0000 0.052733216
S   S8        1.0  0.99796  0.82132  0.76033  1.0000 0.052733216
S   S9        1.0  0.17868  0.17664  0.42699  1.0000 0.052733216
S   S10       1.0  0.17664  0.99796  0.59366  1.0000 0.052733216
S   S11       1.0  0.00204  0.17868  0.26033  1.0000 0.052733216
S   S12       1.0  0.82132  0.82336  0.92699  1.0000 0.052733216
S   S13       1.0  0.82646  0.83495  0.10927  1.0000 0.0391707152
S   S14       1.0  0.16505  0.99151  0.77594  1.0000 0.0391707152
S   S15       1.0  0.00849  0.17354  0.44260  1.0000 0.0391707152
S   S16       1.0  0.17354  0.16505  0.60927  1.0000 0.0391707152
S   S17       1.0  0.83495  0.00849  0.27594  1.0000 0.0391707152
S   S18       1.0  0.99151  0.82646  0.94260  1.0000 0.0391707152
S   S19       1.0  0.00250  0.92704  0.10690  1.0000 0.052733216
S   S20       1.0  0.07296  0.07546  0.77357  1.0000 0.052733216
S   S21       1.0  0.92454  0.99750  0.44023  1.0000 0.052733216
S   S22       1.0  0.99750  0.07296  0.60690  1.0000 0.052733216
S   S23       1.0  0.92704  0.92454  0.27357  1.0000 0.052733216
S   S24       1.0  0.07546  0.00250  0.94023  1.0000 0.052733216
O   O1        1.0  0.18233  0.53382  0.10875  1.0000 -0.5338885658
O   O2        1.0  0.46618  0.64851  0.77542  1.0000 -0.5338885658
O   O3        1.0  0.35149  0.81767  0.44208  1.0000 -0.5338885658
O   O4        1.0  0.81767  0.46618  0.60875  1.0000 -0.5338885658
O   O5        1.0  0.53382  0.35149  0.27542  1.0000 -0.5338885658
O   O6        1.0  0.64851  0.18233  0.94208  1.0000 -0.5338885658
O   O7        1.0  0.24154  0.50005  0.03327  1.0000 -0.5591005855
O   O8        1.0  0.49995  0.74149  0.69994  1.0000 -0.5591005855
O   O9        1.0  0.25851  0.75846  0.36660  1.0000 -0.5591005855
O   O10       1.0  0.75846  0.49995  0.53327  1.0000 -0.5591005855
O   O11       1.0  0.50005  0.25851  0.19994  1.0000 -0.5591005855
O   O12       1.0  0.74149  0.24154  0.86660  1.0000 -0.5591005855
O   O13       1.0  0.60672  0.21220  0.14146  1.0000 -0.5338885658
O   O14       1.0  0.78780  0.39452  0.80813  1.0000 -0.5338885658
O   O15       1.0  0.60548  0.39328  0.47479  1.0000 -0.5338885658
O   O16       1.0  0.39328  0.78780  0.64146  1.0000 -0.5338885658
O   O17       1.0  0.21220  0.60548  0.30813  1.0000 -0.5338885658
O   O18       1.0  0.39452  0.60672  0.97479  1.0000 -0.5338885658
O   O19       1.0  0.66453  0.28747  0.05751  1.0000 -0.5910588079
O   O20       1.0  0.71253  0.37706  0.72418  1.0000 -0.5910588079
O   O21       1.0  0.62294  0.33547  0.39084  1.0000 -0.5910588079
O   O22       1.0  0.33547  0.71253  0.55751  1.0000 -0.5910588079
O   O23       1.0  0.28747  0.62294  0.22418  1.0000 -0.5910588079
O   O24       1.0  0.37706  0.66453  0.89084  1.0000 -0.5910588079
O   O25       1.0  0.61497  0.40465  0.11017  1.0000 -0.5591005855
O   O26       1.0  0.59535  0.21032  0.77684  1.0000 -0.5591005855
O   O27       1.0  0.78968  0.38503  0.44350  1.0000 -0.5591005855
O   O28       1.0  0.38503  0.59535  0.61017  1.0000 -0.5591005855
O   O29       1.0  0.40465  0.78968  0.27684  1.0000 -0.5591005855
O   O30       1.0  0.21032  0.61497  0.94350  1.0000 -0.5591005855
O   O31       1.0  0.68466  0.40076  0.19351  1.0000 -0.5910588079
O   O32       1.0  0.59924  0.28390  0.86018  1.0000 -0.5910588079
O   O33       1.0  0.71610  0.31534  0.52684  1.0000 -0.5910588079
O   O34       1.0  0.31534  0.59924  0.69351  1.0000 -0.5910588079
O   O35       1.0  0.40076  0.71610  0.36018  1.0000 -0.5910588079
O   O36       1.0  0.28390  0.68466  0.02684  1.0000 -0.5910588079
O   O37       1.0  0.19245  0.67745  0.14533  1.0000 -0.5363837355
O   O38       1.0  0.32255  0.51500  0.81200  1.0000 -0.5363837355
O   O39       1.0  0.48500  0.80755  0.47866  1.0000 -0.5363837355
O   O40       1.0  0.80755  0.32255  0.64533  1.0000 -0.5363837355
O   O41       1.0  0.67745  0.48500  0.31200  1.0000 -0.5363837355
O   O42       1.0  0.51500  0.19245  0.97866  1.0000 -0.5363837355
O   O43       1.0  0.23346  0.76102  0.22982  1.0000 -0.5591005855
O   O44       1.0  0.23898  0.47244  0.89649  1.0000 -0.5591005855
O   O45       1.0  0.52756  0.76654  0.56315  1.0000 -0.5591005855
O   O46       1.0  0.76654  0.23898  0.72982  1.0000 -0.5591005855
O   O47       1.0  0.76102  0.52756  0.39649  1.0000 -0.5591005855
O   O48       1.0  0.47244  0.23346  0.06315  1.0000 -0.5591005855
O   O49       1.0  0.60855  0.37230  0.97558  1.0000 -0.656601918
O   O50       1.0  0.62770  0.23625  0.64225  1.0000 -0.656601918
O   O51       1.0  0.76375  0.39145  0.30891  1.0000 -0.656601918
O   O52       1.0  0.39145  0.62770  0.47558  1.0000 -0.656601918
O   O53       1.0  0.37230  0.76375  0.14225  1.0000 -0.656601918
O   O54       1.0  0.23625  0.60855  0.80891  1.0000 -0.656601918
O   O55       1.0  0.74877  0.36809  0.94302  1.0000 -0.656601918
O   O56       1.0  0.63191  0.38068  0.60969  1.0000 -0.656601918
O   O57       1.0  0.61932  0.25123  0.27635  1.0000 -0.656601918
O   O58       1.0  0.25123  0.63191  0.44302  1.0000 -0.656601918
O   O59       1.0  0.36809  0.61932  0.10969  1.0000 -0.656601918
O   O60       1.0  0.38068  0.74877  0.77635  1.0000 -0.656601918
