# DDEC6 charges by PACMAN v1.1 (https://github.com/mtap-research/PACMAN-charge/)
data_2012[Co][hms]3[FSR]1
_chemical_formula_sum              "Co4 H68 C100 N12 O16"
_cell_length_a       11.4144
_cell_length_b       11.4144
_cell_length_c       27.211
_cell_angle_alpha    73.3636
_cell_angle_beta     106.636
_cell_angle_gamma    128.594

_symmetry_space_group_name_H-M    "P 1"
_symmetry_Int_Tables_number       1

loop_
  _symmetry_equiv_pos_as_xyz
  'x, y, z'

loop_
  _atom_site_type_symbol
  _atom_site_label
  _atom_site_symmetry_multiplicity
  _atom_site_fract_x
  _atom_site_fract_y
  _atom_site_fract_z
  _atom_site_occupancy
  _atom_site_charge
Co  Co1       1.0  0.58018  0.30798  0.67428  1.0000 0.7260237748
Co  Co2       1.0  0.69202  0.41982  0.17428  1.0000 0.7260237748
Co  Co3       1.0  0.30798  0.58018  0.82572  1.0000 0.7260237748
Co  Co4       1.0  0.41982  0.69202  0.32572  1.0000 0.7260237748
H   H1        1.0  0.11020  0.19060  0.67480  1.0000 0.1187252833
H   H2        1.0  0.80940  0.88980  0.17480  1.0000 0.1187252833
H   H3        1.0  0.08610  0.82550  0.66800  1.0000 0.1187252833
H   H4        1.0  0.17450  0.91390  0.16800  1.0000 0.1187252833
H   H5        1.0  0.71030  0.77250  0.68180  1.0000 0.1103968241
H   H6        1.0  0.22750  0.28970  0.18180  1.0000 0.1103968241
H   H7        1.0  0.89130  0.35170  0.71660  1.0000 0.1103968241
H   H8        1.0  0.64830  0.10870  0.21660  1.0000 0.1103968241
H   H9        1.0  0.01240  0.25120  0.71280  1.0000 0.1291328335
H   H10       1.0  0.74880  0.98760  0.21280  1.0000 0.1291328335
H   H11       1.0  0.60620  0.89020  0.65890  1.0000 0.1187252833
H   H12       1.0  0.10980  0.39380  0.15890  1.0000 0.1187252833
H   H13       1.0  0.49750  0.00170  0.66380  1.0000 0.1103968241
H   H14       1.0  0.99830  0.50250  0.16380  1.0000 0.1103968241
H   H15       1.0  0.60740  0.21220  0.94100  1.0000 0.1187252833
H   H16       1.0  0.78780  0.39260  0.44100  1.0000 0.1187252833
H   H17       1.0  0.64380  0.14680  0.78620  1.0000 0.1103968241
H   H18       1.0  0.85320  0.35620  0.28620  1.0000 0.1103968241
H   H19       1.0  0.64930  0.13990  0.87270  1.0000 0.1291328335
H   H20       1.0  0.86010  0.35070  0.37270  1.0000 0.1291328335
H   H21       1.0  0.51550  0.41510  0.82800  1.0000 0.1383020495
H   H22       1.0  0.58490  0.48450  0.32800  1.0000 0.1383020495
H   H23       1.0  0.51740  0.41680  0.74340  1.0000 0.1005495566
H   H24       1.0  0.58320  0.48260  0.24340  1.0000 0.1005495566
H   H25       1.0  0.58300  0.45220  0.90740  1.0000 0.1383020495
H   H26       1.0  0.54780  0.41700  0.40740  1.0000 0.1383020495
H   H27       1.0  0.71960  0.61840  0.06570  1.0000 0.1103968241
H   H28       1.0  0.38160  0.28040  0.56570  1.0000 0.1103968241
H   H29       1.0  0.68250  0.60630  0.97840  1.0000 0.1383020495
H   H30       1.0  0.39370  0.31750  0.47840  1.0000 0.1383020495
H   H31       1.0  0.54060  0.17080  0.01750  1.0000 0.1291328335
H   H32       1.0  0.82920  0.45940  0.51750  1.0000 0.1291328335
H   H33       1.0  0.57860  0.19420  0.10310  1.0000 0.1103968241
H   H34       1.0  0.80580  0.42140  0.60310  1.0000 0.1103968241
H   H35       1.0  0.19060  0.11020  0.82520  1.0000 0.1187252833
H   H36       1.0  0.88980  0.80940  0.32520  1.0000 0.1187252833
H   H37       1.0  0.82550  0.08610  0.83200  1.0000 0.1187252833
H   H38       1.0  0.91390  0.17450  0.33200  1.0000 0.1187252833
H   H39       1.0  0.77250  0.71030  0.81820  1.0000 0.1103968241
H   H40       1.0  0.28970  0.22750  0.31820  1.0000 0.1103968241
H   H41       1.0  0.35170  0.89130  0.78340  1.0000 0.1103968241
H   H42       1.0  0.10870  0.64830  0.28340  1.0000 0.1103968241
H   H43       1.0  0.25120  0.01240  0.78720  1.0000 0.1291328335
H   H44       1.0  0.98760  0.74880  0.28720  1.0000 0.1291328335
H   H45       1.0  0.89020  0.60620  0.84110  1.0000 0.1187252833
H   H46       1.0  0.39380  0.10980  0.34110  1.0000 0.1187252833
H   H47       1.0  0.00170  0.49750  0.83620  1.0000 0.1103968241
H   H48       1.0  0.50250  0.99830  0.33620  1.0000 0.1103968241
H   H49       1.0  0.21220  0.60740  0.55900  1.0000 0.1187252833
H   H50       1.0  0.39260  0.78780  0.05900  1.0000 0.1187252833
H   H51       1.0  0.14680  0.64380  0.71380  1.0000 0.1103968241
H   H52       1.0  0.35620  0.85320  0.21380  1.0000 0.1103968241
H   H53       1.0  0.13990  0.64930  0.62730  1.0000 0.1291328335
H   H54       1.0  0.35070  0.86010  0.12730  1.0000 0.1291328335
H   H55       1.0  0.41510  0.51550  0.67200  1.0000 0.1383020495
H   H56       1.0  0.48450  0.58490  0.17200  1.0000 0.1383020495
H   H57       1.0  0.41680  0.51740  0.75660  1.0000 0.1005495566
H   H58       1.0  0.48260  0.58320  0.25660  1.0000 0.1005495566
H   H59       1.0  0.45220  0.58300  0.59260  1.0000 0.1383020495
H   H60       1.0  0.41700  0.54780  0.09260  1.0000 0.1383020495
H   H61       1.0  0.61840  0.71960  0.43430  1.0000 0.1103968241
H   H62       1.0  0.28040  0.38160  0.93430  1.0000 0.1103968241
H   H63       1.0  0.60630  0.68250  0.52160  1.0000 0.1383020495
H   H64       1.0  0.31750  0.39370  0.02160  1.0000 0.1383020495
H   H65       1.0  0.17080  0.54060  0.48250  1.0000 0.1291328335
H   H66       1.0  0.45940  0.82920  0.98250  1.0000 0.1291328335
H   H67       1.0  0.19420  0.57860  0.39690  1.0000 0.1103968241
H   H68       1.0  0.42140  0.80580  0.89690  1.0000 0.1103968241
C   C1        1.0  0.89805  0.99235  0.67935  1.0000 0.0666562061
C   C2        1.0  0.00765  0.10195  0.17935  1.0000 0.0666562061
C   C3        1.0  0.05215  0.08465  0.67466  1.0000 -0.1626562865
C   C4        1.0  0.91535  0.94785  0.17466  1.0000 -0.1626562865
C   C5        1.0  0.12185  0.02315  0.66979  1.0000 -0.0091309548
C   C6        1.0  0.97685  0.87815  0.16979  1.0000 -0.0091309548
C   C7        1.0  0.03810  0.86770  0.67027  1.0000 -0.1418436055
C   C8        1.0  0.13230  0.96190  0.17027  1.0000 -0.1418436055
C   C9        1.0  0.88395  0.77385  0.67406  1.0000 -0.0091309548
C   C10       1.0  0.22615  0.11605  0.17406  1.0000 -0.0091309548
C   C11       1.0  0.81501  0.83659  0.67883  1.0000 -0.1626562865
C   C12       1.0  0.16341  0.18499  0.17883  1.0000 -0.1626562865
C   C13       1.0  0.83288  0.25792  0.70378  1.0000 0.089933377
C   C14       1.0  0.74208  0.16712  0.20378  1.0000 0.089933377
C   C15       1.0  0.90629  0.19771  0.70196  1.0000 -0.1938134206
C   C16       1.0  0.80229  0.09371  0.20196  1.0000 -0.1938134206
C   C17       1.0  0.82386  0.05854  0.68414  1.0000 0.1187252833
C   C18       1.0  0.94146  0.17614  0.18414  1.0000 0.1187252833
C   C19       1.0  0.66844  0.98636  0.67031  1.0000 -0.1938134206
C   C20       1.0  0.01364  0.33156  0.17031  1.0000 -0.1938134206
C   C21       1.0  0.60392  0.05428  0.67312  1.0000 0.089933377
C   C22       1.0  0.94572  0.39608  0.17312  1.0000 0.089933377
C   C23       1.0  0.59821  0.28439  0.91579  1.0000 -0.1504116465
C   C24       1.0  0.71561  0.40179  0.41579  1.0000 -0.1504116465
C   C25       1.0  0.61964  0.20376  0.79484  1.0000 0.089933377
C   C26       1.0  0.79624  0.38036  0.29484  1.0000 0.089933377
C   C27       1.0  0.62302  0.19898  0.84678  1.0000 -0.2060713505
C   C28       1.0  0.80102  0.37698  0.34678  1.0000 -0.2060713505
C   C29       1.0  0.58788  0.28112  0.86092  1.0000 0.1575283299
C   C30       1.0  0.71888  0.41212  0.36092  1.0000 0.1575283299
C   C31       1.0  0.54498  0.36102  0.82068  1.0000 -0.2021960738
C   C32       1.0  0.63898  0.45502  0.32068  1.0000 -0.2021960738
C   C33       1.0  0.54557  0.36043  0.77011  1.0000 0.0806109833
C   C34       1.0  0.63957  0.45443  0.27011  1.0000 0.0806109833
C   C35       1.0  0.59567  0.38213  0.93261  1.0000 -0.1263986935
C   C36       1.0  0.61787  0.40433  0.43261  1.0000 -0.1263986935
C   C37       1.0  0.28850  0.12490  0.66645  1.0000 0.5236707295
C   C38       1.0  0.87510  0.71150  0.16645  1.0000 0.5236707295
C   C39       1.0  0.68350  0.52650  0.05580  1.0000 0.1005495566
C   C40       1.0  0.47350  0.31650  0.55580  1.0000 0.1005495566
C   C41       1.0  0.66230  0.52050  0.00335  1.0000 -0.2021960738
C   C42       1.0  0.47950  0.33770  0.50335  1.0000 -0.2021960738
C   C43       1.0  0.61115  0.38765  0.98772  1.0000 0.1575283299
C   C44       1.0  0.61235  0.38885  0.48772  1.0000 0.1575283299
C   C45       1.0  0.57867  0.26473  0.02636  1.0000 -0.2021960738
C   C46       1.0  0.73527  0.42133  0.52636  1.0000 -0.2021960738
C   C47       1.0  0.60175  0.27965  0.07750  1.0000 0.0806109833
C   C48       1.0  0.72035  0.39825  0.57750  1.0000 0.0806109833
C   C49       1.0  0.79209  0.60571  0.67392  1.0000 0.5303227718
C   C50       1.0  0.39429  0.20791  0.17392  1.0000 0.5303227718
C   C51       1.0  0.99235  0.89805  0.82065  1.0000 0.0666562061
C   C52       1.0  0.10195  0.00765  0.32065  1.0000 0.0666562061
C   C53       1.0  0.08465  0.05215  0.82534  1.0000 -0.1626562865
C   C54       1.0  0.94785  0.91535  0.32534  1.0000 -0.1626562865
C   C55       1.0  0.02315  0.12185  0.83021  1.0000 -0.0091309548
C   C56       1.0  0.87815  0.97685  0.33021  1.0000 -0.0091309548
C   C57       1.0  0.86770  0.03810  0.82973  1.0000 -0.1418436055
C   C58       1.0  0.96190  0.13230  0.32973  1.0000 -0.1418436055
C   C59       1.0  0.77385  0.88395  0.82594  1.0000 -0.0091309548
C   C60       1.0  0.11605  0.22615  0.32594  1.0000 -0.0091309548
C   C61       1.0  0.83659  0.81501  0.82117  1.0000 -0.1626562865
C   C62       1.0  0.18499  0.16341  0.32117  1.0000 -0.1626562865
C   C63       1.0  0.25792  0.83288  0.79622  1.0000 0.089933377
C   C64       1.0  0.16712  0.74208  0.29622  1.0000 0.089933377
C   C65       1.0  0.19771  0.90629  0.79804  1.0000 -0.1938134206
C   C66       1.0  0.09371  0.80229  0.29804  1.0000 -0.1938134206
C   C67       1.0  0.05854  0.82386  0.81586  1.0000 0.1187252833
C   C68       1.0  0.17614  0.94146  0.31586  1.0000 0.1187252833
C   C69       1.0  0.98636  0.66844  0.82969  1.0000 -0.1938134206
C   C70       1.0  0.33156  0.01364  0.32969  1.0000 -0.1938134206
C   C71       1.0  0.05428  0.60392  0.82688  1.0000 0.089933377
C   C72       1.0  0.39608  0.94572  0.32688  1.0000 0.089933377
C   C73       1.0  0.28439  0.59821  0.58421  1.0000 -0.1504116465
C   C74       1.0  0.40179  0.71561  0.08421  1.0000 -0.1504116465
C   C75       1.0  0.20376  0.61964  0.70516  1.0000 0.089933377
C   C76       1.0  0.38036  0.79624  0.20516  1.0000 0.089933377
C   C77       1.0  0.19898  0.62302  0.65322  1.0000 -0.2060713505
C   C78       1.0  0.37698  0.80102  0.15322  1.0000 -0.2060713505
C   C79       1.0  0.28112  0.58788  0.63908  1.0000 0.1575283299
C   C80       1.0  0.41212  0.71888  0.13908  1.0000 0.1575283299
C   C81       1.0  0.36102  0.54498  0.67932  1.0000 -0.2021960738
C   C82       1.0  0.45502  0.63898  0.17932  1.0000 -0.2021960738
C   C83       1.0  0.36043  0.54557  0.72989  1.0000 0.0806109833
C   C84       1.0  0.45443  0.63957  0.22989  1.0000 0.0806109833
C   C85       1.0  0.38213  0.59567  0.56739  1.0000 -0.1263986935
C   C86       1.0  0.40433  0.61787  0.06739  1.0000 -0.1263986935
C   C87       1.0  0.12490  0.28850  0.83355  1.0000 0.5236707295
C   C88       1.0  0.71150  0.87510  0.33355  1.0000 0.5236707295
C   C89       1.0  0.52650  0.68350  0.44420  1.0000 0.1005495566
C   C90       1.0  0.31650  0.47350  0.94420  1.0000 0.1005495566
C   C91       1.0  0.52050  0.66230  0.49665  1.0000 -0.2021960738
C   C92       1.0  0.33770  0.47950  0.99665  1.0000 -0.2021960738
C   C93       1.0  0.38765  0.61115  0.51228  1.0000 0.1575283299
C   C94       1.0  0.38885  0.61235  0.01228  1.0000 0.1575283299
C   C95       1.0  0.26473  0.57867  0.47364  1.0000 -0.2021960738
C   C96       1.0  0.42133  0.73527  0.97364  1.0000 -0.2021960738
C   C97       1.0  0.27965  0.60175  0.42250  1.0000 0.0806109833
C   C98       1.0  0.39825  0.72035  0.92250  1.0000 0.0806109833
C   C99       1.0  0.60571  0.79209  0.82608  1.0000 0.5303227718
C   C100      1.0  0.20791  0.39429  0.32608  1.0000 0.5303227718
N   N1        1.0  0.68422  0.19076  0.68840  1.0000 -0.2408853953
N   N2        1.0  0.80924  0.31578  0.18840  1.0000 -0.2408853953
N   N3        1.0  0.58372  0.28480  0.75629  1.0000 -0.2408853953
N   N4        1.0  0.71520  0.41628  0.25629  1.0000 -0.2408853953
N   N5        1.0  0.65569  0.40931  0.09299  1.0000 -0.2306629901
N   N6        1.0  0.59069  0.34431  0.59299  1.0000 -0.2306629901
N   N7        1.0  0.19076  0.68422  0.81160  1.0000 -0.2408853953
N   N8        1.0  0.31578  0.80924  0.31160  1.0000 -0.2408853953
N   N9        1.0  0.28480  0.58372  0.74371  1.0000 -0.2408853953
N   N10       1.0  0.41628  0.71520  0.24371  1.0000 -0.2408853953
N   N11       1.0  0.40931  0.65569  0.40701  1.0000 -0.2306629901
N   N12       1.0  0.34431  0.59069  0.90701  1.0000 -0.2306629901
O   O1        1.0  0.35923  0.26579  0.66198  1.0000 -0.530738007
O   O2        1.0  0.73421  0.64077  0.16198  1.0000 -0.530738007
O   O3        1.0  0.35611  0.06815  0.66952  1.0000 -0.5487699693
O   O4        1.0  0.93185  0.64389  0.16952  1.0000 -0.5487699693
O   O5        1.0  0.64943  0.53135  0.66667  1.0000 -0.530738007
O   O6        1.0  0.46865  0.35057  0.16669  1.0000 -0.530738007
O   O7        1.0  0.85700  0.54494  0.68086  1.0000 -0.5669687574
O   O8        1.0  0.45506  0.14300  0.18086  1.0000 -0.5669687574
O   O9        1.0  0.26579  0.35923  0.83802  1.0000 -0.530738007
O   O10       1.0  0.64077  0.73421  0.33802  1.0000 -0.530738007
O   O11       1.0  0.06815  0.35611  0.83048  1.0000 -0.5487699693
O   O12       1.0  0.64389  0.93185  0.33048  1.0000 -0.5487699693
O   O13       1.0  0.53135  0.64943  0.83331  1.0000 -0.530738007
O   O14       1.0  0.35057  0.46865  0.33333  1.0000 -0.530738007
O   O15       1.0  0.54494  0.85700  0.81914  1.0000 -0.5669687574
O   O16       1.0  0.14300  0.45506  0.31914  1.0000 -0.5669687574
