# DDEC6 charges by PACMAN v1.1 (https://github.com/mtap-research/PACMAN-charge/)
data_2012[Co][nan]3[FSR]8
_chemical_formula_sum              "Co8 H208 C224 N56 O32"
_cell_length_a       13.543
_cell_length_b       12.338
_cell_length_c       40.267
_cell_angle_alpha    90
_cell_angle_beta     108.395
_cell_angle_gamma    90

_symmetry_space_group_name_H-M    "P 1"
_symmetry_Int_Tables_number       1

loop_
  _symmetry_equiv_pos_as_xyz
  'x, y, z'

loop_
  _atom_site_type_symbol
  _atom_site_label
  _atom_site_symmetry_multiplicity
  _atom_site_fract_x
  _atom_site_fract_y
  _atom_site_fract_z
  _atom_site_occupancy
  _atom_site_charge
Co  Co1       1.0  0.67932  0.61206  0.80682  1.0000 0.7358408108
Co  Co2       1.0  0.32068  0.11206  0.69318  1.0000 0.7358408108
Co  Co3       1.0  0.32068  0.38794  0.19318  1.0000 0.7358408108
Co  Co4       1.0  0.67932  0.88794  0.30682  1.0000 0.7358408108
Co  Co5       1.0  0.87289  0.59114  0.57936  1.0000 0.7299097166
Co  Co6       1.0  0.12711  0.09114  0.92064  1.0000 0.7299097166
Co  Co7       1.0  0.12711  0.40886  0.42064  1.0000 0.7299097166
Co  Co8       1.0  0.87289  0.90886  0.07936  1.0000 0.7299097166
H   H1        1.0  0.85010  0.57010  0.45420  1.0000 0.1393992214
H   H2        1.0  0.14990  0.07010  0.04580  1.0000 0.1393992214
H   H3        1.0  0.14990  0.42990  0.54580  1.0000 0.1393992214
H   H4        1.0  0.85010  0.92990  0.95420  1.0000 0.1393992214
H   H5        1.0  0.69450  0.82430  0.47840  1.0000 0.1393992214
H   H6        1.0  0.30550  0.32430  0.02160  1.0000 0.1393992214
H   H7        1.0  0.30550  0.17570  0.52160  1.0000 0.1393992214
H   H8        1.0  0.69450  0.67570  0.97840  1.0000 0.1393992214
H   H9        1.0  0.79180  0.61370  0.40190  1.0000 0.1393992214
H   H10       1.0  0.20820  0.11370  0.09810  1.0000 0.1393992214
H   H11       1.0  0.20820  0.38630  0.59810  1.0000 0.1393992214
H   H12       1.0  0.79180  0.88630  0.90190  1.0000 0.1393992214
H   H13       1.0  0.69070  0.89650  0.43190  1.0000 0.1393992214
H   H14       1.0  0.30930  0.39650  0.06810  1.0000 0.1393992214
H   H15       1.0  0.30930  0.10350  0.56810  1.0000 0.1393992214
H   H16       1.0  0.69070  0.60350  0.93190  1.0000 0.1393992214
H   H17       1.0  0.24410  0.54740  0.77330  1.0000 0.1194571863
H   H18       1.0  0.75590  0.04740  0.72670  1.0000 0.1194571863
H   H19       1.0  0.75590  0.45260  0.22670  1.0000 0.1194571863
H   H20       1.0  0.24410  0.95260  0.27330  1.0000 0.1194571863
H   H21       1.0  0.25620  0.59590  0.81120  1.0000 0.1194571863
H   H22       1.0  0.74380  0.09590  0.68880  1.0000 0.1194571863
H   H23       1.0  0.74380  0.40410  0.18880  1.0000 0.1194571863
H   H24       1.0  0.25620  0.90410  0.31120  1.0000 0.1194571863
H   H25       1.0  0.45440  0.55080  0.81540  1.0000 0.1194571863
H   H26       1.0  0.54560  0.05080  0.68460  1.0000 0.1194571863
H   H27       1.0  0.54560  0.44920  0.18460  1.0000 0.1281848906
H   H28       1.0  0.45440  0.94920  0.31540  1.0000 0.1281848906
H   H29       1.0  0.51300  0.80670  0.76620  1.0000 0.1281848906
H   H30       1.0  0.48700  0.30670  0.73380  1.0000 0.1281848906
H   H31       1.0  0.48700  0.19330  0.23380  1.0000 0.1281848906
H   H32       1.0  0.51300  0.69330  0.26620  1.0000 0.1281848906
H   H33       1.0  0.32430  0.80740  0.75870  1.0000 0.1281848906
H   H34       1.0  0.67570  0.30740  0.74130  1.0000 0.1281848906
H   H35       1.0  0.67570  0.19260  0.24130  1.0000 0.1281848906
H   H36       1.0  0.32430  0.69260  0.25870  1.0000 0.1281848906
H   H37       1.0  0.23080  0.59930  0.72530  1.0000 0.1393992214
H   H38       1.0  0.76920  0.09930  0.77470  1.0000 0.1393992214
H   H39       1.0  0.76920  0.40070  0.27470  1.0000 0.1393992214
H   H40       1.0  0.23080  0.90070  0.22530  1.0000 0.1393992214
H   H41       1.0  0.12320  0.60550  0.69400  1.0000 0.1393992214
H   H42       1.0  0.87680  0.10550  0.80600  1.0000 0.1393992214
H   H43       1.0  0.87680  0.39450  0.30600  1.0000 0.1393992214
H   H44       1.0  0.12320  0.89450  0.19400  1.0000 0.1393992214
H   H45       1.0  0.20610  0.70160  0.69960  1.0000 0.1393992214
H   H46       1.0  0.79390  0.20160  0.80040  1.0000 0.1393992214
H   H47       1.0  0.79390  0.29840  0.30040  1.0000 0.1393992214
H   H48       1.0  0.20610  0.79840  0.19960  1.0000 0.1393992214
H   H49       1.0  0.93260  0.81050  0.67350  1.0000 0.1194571863
H   H50       1.0  0.06740  0.31050  0.82650  1.0000 0.1194571863
H   H51       1.0  0.06740  0.18950  0.32650  1.0000 0.1194571863
H   H52       1.0  0.93260  0.68950  0.17350  1.0000 0.1194571863
H   H53       1.0  0.03230  0.74890  0.66940  1.0000 0.1194571863
H   H54       1.0  0.96770  0.24890  0.83060  1.0000 0.1194571863
H   H55       1.0  0.96770  0.25110  0.33060  1.0000 0.1194571863
H   H56       1.0  0.03230  0.75110  0.16940  1.0000 0.1194571863
H   H57       1.0  0.20110  0.90630  0.71110  1.0000 0.1112216726
H   H58       1.0  0.79890  0.40630  0.78890  1.0000 0.1112216726
H   H59       1.0  0.79890  0.09370  0.28890  1.0000 0.1112216726
H   H60       1.0  0.20110  0.59370  0.21110  1.0000 0.1112216726
H   H61       1.0  0.06970  0.12950  0.64140  1.0000 0.1281848906
H   H62       1.0  0.93030  0.62950  0.85860  1.0000 0.1281848906
H   H63       1.0  0.93030  0.87050  0.35860  1.0000 0.1281848906
H   H64       1.0  0.06970  0.37050  0.14140  1.0000 0.1281848906
H   H65       1.0  0.93820  0.98730  0.63760  1.0000 0.1393992214
H   H66       1.0  0.06180  0.48730  0.86240  1.0000 0.1393992214
H   H67       1.0  0.06180  0.01270  0.36240  1.0000 0.1393992214
H   H68       1.0  0.93820  0.51270  0.13760  1.0000 0.1393992214
H   H69       1.0  0.84030  0.86730  0.72150  1.0000 0.1393992214
H   H70       1.0  0.15970  0.36730  0.77850  1.0000 0.1393992214
H   H71       1.0  0.15970  0.13270  0.27850  1.0000 0.1393992214
H   H72       1.0  0.84030  0.63270  0.22150  1.0000 0.1393992214
H   H73       1.0  0.90840  0.96260  0.74470  1.0000 0.1281848906
H   H74       1.0  0.09160  0.46260  0.75530  1.0000 0.1281848906
H   H75       1.0  0.09160  0.03740  0.25530  1.0000 0.1281848906
H   H76       1.0  0.90840  0.53740  0.24470  1.0000 0.1281848906
H   H77       1.0  0.91520  0.93860  0.70650  1.0000 0.1281848906
H   H78       1.0  0.08480  0.43860  0.79350  1.0000 0.1281848906
H   H79       1.0  0.08480  0.06140  0.29350  1.0000 0.1281848906
H   H80       1.0  0.91520  0.56140  0.20650  1.0000 0.1281848906
H   H81       1.0  0.95900  0.79550  0.81730  1.0000 0.1194571863
H   H82       1.0  0.04100  0.29550  0.68270  1.0000 0.1194571863
H   H83       1.0  0.04100  0.20450  0.18270  1.0000 0.1194571863
H   H84       1.0  0.95900  0.70450  0.31730  1.0000 0.1194571863
H   H85       1.0  0.90300  0.88090  0.78730  1.0000 0.1281848906
H   H86       1.0  0.09700  0.38090  0.71270  1.0000 0.1281848906
H   H87       1.0  0.09700  0.11910  0.21270  1.0000 0.1281848906
H   H88       1.0  0.90300  0.61910  0.28730  1.0000 0.1281848906
H   H89       1.0  0.98190  0.93710  0.86630  1.0000 0.1281848906
H   H90       1.0  0.01810  0.43710  0.63370  1.0000 0.1281848906
H   H91       1.0  0.01810  0.06290  0.13370  1.0000 0.1281848906
H   H92       1.0  0.98190  0.56290  0.36630  1.0000 0.1281848906
H   H93       1.0  0.18930  0.12950  0.84700  1.0000 0.1281848906
H   H94       1.0  0.81070  0.62950  0.65300  1.0000 0.1281848906
H   H95       1.0  0.81070  0.87050  0.15300  1.0000 0.1281848906
H   H96       1.0  0.18930  0.37050  0.34700  1.0000 0.1281848906
H   H97       1.0  0.12150  0.00940  0.79600  1.0000 0.1194571863
H   H98       1.0  0.87850  0.50940  0.70400  1.0000 0.1194571863
H   H99       1.0  0.87850  0.99060  0.20400  1.0000 0.1194571863
H   H100      1.0  0.12150  0.49060  0.29600  1.0000 0.1194571863
H   H101      1.0  0.10950  0.75710  0.84400  1.0000 0.1281848906
H   H102      1.0  0.89050  0.25710  0.65600  1.0000 0.1281848906
H   H103      1.0  0.89050  0.24290  0.15600  1.0000 0.1281848906
H   H104      1.0  0.10950  0.74290  0.34400  1.0000 0.1281848906
H   H105      1.0  0.16650  0.64790  0.83870  1.0000 0.1281848906
H   H106      1.0  0.83350  0.14790  0.66130  1.0000 0.1393992214
H   H107      1.0  0.83350  0.35210  0.16130  1.0000 0.1393992214
H   H108      1.0  0.16650  0.85210  0.33870  1.0000 0.1393992214
H   H109      1.0  0.22560  0.76160  0.84200  1.0000 0.1393992214
H   H110      1.0  0.77440  0.26160  0.65800  1.0000 0.1393992214
H   H111      1.0  0.77440  0.23840  0.15800  1.0000 0.1393992214
H   H112      1.0  0.22560  0.73840  0.34200  1.0000 0.1393992214
H   H113      1.0  0.44450  0.40200  0.67610  1.0000 0.1045610517
H   H114      1.0  0.55550  0.90200  0.82390  1.0000 0.1045610517
H   H115      1.0  0.55550  0.59800  0.32390  1.0000 0.1045610517
H   H116      1.0  0.44450  0.09800  0.17610  1.0000 0.1045610517
H   H117      1.0  0.37880  0.50300  0.68250  1.0000 0.1194571863
H   H118      1.0  0.62120  0.00300  0.81750  1.0000 0.1194571863
H   H119      1.0  0.62120  0.49700  0.31750  1.0000 0.1194571863
H   H120      1.0  0.37880  0.99700  0.18250  1.0000 0.1194571863
H   H121      1.0  0.49260  0.51470  0.74560  1.0000 0.1194571863
H   H122      1.0  0.50740  0.01470  0.75440  1.0000 0.1194571863
H   H123      1.0  0.50740  0.48530  0.25440  1.0000 0.1194571863
H   H124      1.0  0.49260  0.98530  0.24560  1.0000 0.1194571863
H   H125      1.0  0.76010  0.60680  0.73530  1.0000 0.1281848906
H   H126      1.0  0.23990  0.10680  0.76470  1.0000 0.1281848906
H   H127      1.0  0.23990  0.39320  0.26470  1.0000 0.1281848906
H   H128      1.0  0.76010  0.89320  0.23530  1.0000 0.1281848906
H   H129      1.0  0.64380  0.56110  0.67640  1.0000 0.1393992214
H   H130      1.0  0.35620  0.06110  0.82360  1.0000 0.1393992214
H   H131      1.0  0.35620  0.43890  0.32360  1.0000 0.1393992214
H   H132      1.0  0.64380  0.93890  0.17640  1.0000 0.1393992214
H   H133      1.0  0.58200  0.35260  0.61940  1.0000 0.1281848906
H   H134      1.0  0.41800  0.85260  0.88060  1.0000 0.1281848906
H   H135      1.0  0.41800  0.64740  0.38060  1.0000 0.1281848906
H   H136      1.0  0.58200  0.14740  0.11940  1.0000 0.1281848906
H   H137      1.0  0.55290  0.35890  0.65490  1.0000 0.1281848906
H   H138      1.0  0.44710  0.85890  0.84510  1.0000 0.1281848906
H   H139      1.0  0.44710  0.64110  0.34510  1.0000 0.1281848906
H   H140      1.0  0.55290  0.14110  0.15490  1.0000 0.1281848906
H   H141      1.0  0.48120  0.29090  0.62230  1.0000 0.1393992214
H   H142      1.0  0.51880  0.79090  0.87770  1.0000 0.1393992214
H   H143      1.0  0.51880  0.70910  0.37770  1.0000 0.1393992214
H   H144      1.0  0.48120  0.20910  0.12230  1.0000 0.1393992214
H   H145      1.0  0.42880  0.43070  0.53190  1.0000 0.1194571863
H   H146      1.0  0.57120  0.93070  0.96810  1.0000 0.1194571863
H   H147      1.0  0.57120  0.56930  0.46810  1.0000 0.1194571863
H   H148      1.0  0.42880  0.06930  0.03190  1.0000 0.1194571863
H   H149      1.0  0.45340  0.33680  0.56080  1.0000 0.1112216726
H   H150      1.0  0.54660  0.83680  0.93920  1.0000 0.1112216726
H   H151      1.0  0.54660  0.66320  0.43920  1.0000 0.1112216726
H   H152      1.0  0.45340  0.16320  0.06080  1.0000 0.1112216726
H   H153      1.0  0.61610  0.58160  0.57020  1.0000 0.1281848906
H   H154      1.0  0.38390  0.08160  0.92980  1.0000 0.1281848906
H   H155      1.0  0.38390  0.41840  0.42980  1.0000 0.1281848906
H   H156      1.0  0.61610  0.91840  0.07020  1.0000 0.1281848906
H   H157      1.0  0.79880  0.33830  0.56470  1.0000 0.1281848906
H   H158      1.0  0.20120  0.83830  0.93530  1.0000 0.1281848906
H   H159      1.0  0.20120  0.66170  0.43530  1.0000 0.1281848906
H   H160      1.0  0.79880  0.16170  0.06470  1.0000 0.1281848906
H   H161      1.0  0.62360  0.26320  0.55450  1.0000 0.1393992214
H   H162      1.0  0.37640  0.76320  0.94550  1.0000 0.1393992214
H   H163      1.0  0.37640  0.73680  0.44550  1.0000 0.1393992214
H   H164      1.0  0.62360  0.23680  0.05450  1.0000 0.1393992214
H   H165      1.0  0.40680  0.58150  0.52140  1.0000 0.1281848906
H   H166      1.0  0.59320  0.08150  0.97860  1.0000 0.1281848906
H   H167      1.0  0.59320  0.41850  0.47860  1.0000 0.1281848906
H   H168      1.0  0.40680  0.91850  0.02140  1.0000 0.1281848906
H   H169      1.0  0.28570  0.59720  0.51640  1.0000 0.1393992214
H   H170      1.0  0.71430  0.09720  0.98360  1.0000 0.1393992214
H   H171      1.0  0.71430  0.40280  0.48360  1.0000 0.1393992214
H   H172      1.0  0.28570  0.90280  0.01640  1.0000 0.1393992214
H   H173      1.0  0.36500  0.69540  0.53050  1.0000 0.1393992214
H   H174      1.0  0.63500  0.19540  0.96950  1.0000 0.1393992214
H   H175      1.0  0.63500  0.30460  0.46950  1.0000 0.1393992214
H   H176      1.0  0.36500  0.80460  0.03050  1.0000 0.1393992214
H   H177      1.0  0.25150  0.74020  0.55140  1.0000 0.1194571863
H   H178      1.0  0.74850  0.24020  0.94860  1.0000 0.1194571863
H   H179      1.0  0.74850  0.25980  0.44860  1.0000 0.1194571863
H   H180      1.0  0.25150  0.75980  0.05140  1.0000 0.1194571863
H   H181      1.0  0.30430  0.80220  0.58740  1.0000 0.1281848906
H   H182      1.0  0.69570  0.30220  0.91260  1.0000 0.1281848906
H   H183      1.0  0.69570  0.19780  0.41260  1.0000 0.1281848906
H   H184      1.0  0.30430  0.69780  0.08740  1.0000 0.1281848906
H   H185      1.0  0.11230  0.58220  0.57450  1.0000 0.1194571863
H   H186      1.0  0.88770  0.08220  0.92550  1.0000 0.1194571863
H   H187      1.0  0.88770  0.41780  0.42550  1.0000 0.1194571863
H   H188      1.0  0.11230  0.91780  0.07450  1.0000 0.1194571863
H   H189      1.0  0.97280  0.83580  0.59910  1.0000 0.1194571863
H   H190      1.0  0.02720  0.33580  0.90090  1.0000 0.1194571863
H   H191      1.0  0.02720  0.16420  0.40090  1.0000 0.1194571863
H   H192      1.0  0.97280  0.66420  0.09910  1.0000 0.1194571863
H   H193      1.0  0.14440  0.89650  0.59620  1.0000 0.1281848906
H   H194      1.0  0.85560  0.39650  0.90380  1.0000 0.1281848906
H   H195      1.0  0.85560  0.10350  0.40380  1.0000 0.1281848906
H   H196      1.0  0.14440  0.60350  0.09620  1.0000 0.1281848906
H   H197      1.0  0.25970  0.65200  0.65250  1.0000 0.1393992214
H   H198      1.0  0.74030  0.15200  0.84750  1.0000 0.1393992214
H   H199      1.0  0.74030  0.34800  0.34750  1.0000 0.1393992214
H   H200      1.0  0.25970  0.84800  0.15250  1.0000 0.1393992214
H   H201      1.0  0.37820  0.67650  0.67470  1.0000 0.1393992214
H   H202      1.0  0.62180  0.17650  0.82530  1.0000 0.1393992214
H   H203      1.0  0.62180  0.32350  0.32530  1.0000 0.1393992214
H   H204      1.0  0.37820  0.82350  0.17470  1.0000 0.1393992214
H   H205      1.0  0.31770  0.75500  0.64320  1.0000 0.1494049266
H   H206      1.0  0.68230  0.25500  0.85680  1.0000 0.1494049266
H   H207      1.0  0.68230  0.24500  0.35680  1.0000 0.1494049266
H   H208      1.0  0.31770  0.74500  0.14320  1.0000 0.1494049266
C   C1        1.0  0.91010  0.47350  0.51985  1.0000 0.5208856672
C   C2        1.0  0.08990  0.97350  0.98015  1.0000 0.5208856672
C   C3        1.0  0.08990  0.52650  0.48015  1.0000 0.5208856672
C   C4        1.0  0.91010  0.02650  0.01985  1.0000 0.5208856672
C   C5        1.0  0.73530  0.77380  0.54863  1.0000 0.5208856672
C   C6        1.0  0.26470  0.27380  0.95137  1.0000 0.5208856672
C   C7        1.0  0.26470  0.22620  0.45137  1.0000 0.5208856672
C   C8        1.0  0.73530  0.72620  0.04863  1.0000 0.5208856672
C   C9        1.0  0.76410  0.67180  0.33333  1.0000 0.5033906385
C   C10       1.0  0.23590  0.17180  0.16667  1.0000 0.5033906385
C   C11       1.0  0.23590  0.32820  0.66667  1.0000 0.5033906385
C   C12       1.0  0.76410  0.82820  0.83333  1.0000 0.5033906385
C   C13       1.0  0.63660  0.99770  0.36681  1.0000 0.5075654074
C   C14       1.0  0.36340  0.49770  0.13319  1.0000 0.5075654074
C   C15       1.0  0.36340  0.00230  0.63319  1.0000 0.5075654074
C   C16       1.0  0.63660  0.50230  0.86681  1.0000 0.5075654074
C   C17       1.0  0.85280  0.57690  0.50499  1.0000 0.1281848906
C   C18       1.0  0.14720  0.07690  0.99501  1.0000 0.1281848906
C   C19       1.0  0.14720  0.42310  0.49501  1.0000 0.1281848906
C   C20       1.0  0.85280  0.92310  0.00499  1.0000 0.1281848906
C   C21       1.0  0.82820  0.61120  0.47052  1.0000 -0.1584584256
C   C22       1.0  0.17180  0.11120  0.02948  1.0000 -0.1584584256
C   C23       1.0  0.17180  0.38880  0.52948  1.0000 -0.1584584256
C   C24       1.0  0.82820  0.88880  0.97052  1.0000 -0.1584584256
C   C25       1.0  0.77160  0.70600  0.46007  1.0000 0.1112216726
C   C26       1.0  0.22840  0.20600  0.03993  1.0000 0.1112216726
C   C27       1.0  0.22840  0.29400  0.53993  1.0000 0.1112216726
C   C28       1.0  0.77160  0.79400  0.96007  1.0000 0.1112216726
C   C29       1.0  0.73700  0.76170  0.48490  1.0000 -0.1971421853
C   C30       1.0  0.26300  0.26170  0.01510  1.0000 -0.1971421853
C   C31       1.0  0.26300  0.23830  0.51510  1.0000 -0.1971421853
C   C32       1.0  0.73700  0.73830  0.98490  1.0000 -0.1971421853
C   C33       1.0  0.76600  0.72360  0.51872  1.0000 0.1194571863
C   C34       1.0  0.23400  0.22360  0.98128  1.0000 0.1194571863
C   C35       1.0  0.23400  0.27640  0.48128  1.0000 0.1194571863
C   C36       1.0  0.76600  0.77640  0.01872  1.0000 0.1194571863
C   C37       1.0  0.74680  0.73000  0.36431  1.0000 0.1194571863
C   C38       1.0  0.25320  0.23000  0.13569  1.0000 0.1194571863
C   C39       1.0  0.25320  0.27000  0.63569  1.0000 0.1194571863
C   C40       1.0  0.74680  0.77000  0.86431  1.0000 0.1194571863
C   C41       1.0  0.76630  0.68570  0.39722  1.0000 -0.1799750194
C   C42       1.0  0.23370  0.18570  0.10278  1.0000 -0.1799750194
C   C43       1.0  0.23370  0.31430  0.60278  1.0000 -0.1799750194
C   C44       1.0  0.76630  0.81430  0.89722  1.0000 -0.1799750194
C   C45       1.0  0.74750  0.74930  0.42369  1.0000 0.1194571863
C   C46       1.0  0.25250  0.24930  0.07631  1.0000 0.1194571863
C   C47       1.0  0.25250  0.25070  0.57631  1.0000 0.1194571863
C   C48       1.0  0.74750  0.75070  0.92369  1.0000 0.1194571863
C   C49       1.0  0.70600  0.85230  0.41485  1.0000 -0.1799750194
C   C50       1.0  0.29400  0.35230  0.08515  1.0000 -0.1799750194
C   C51       1.0  0.29400  0.14770  0.58515  1.0000 -0.1799750194
C   C52       1.0  0.70600  0.64770  0.91485  1.0000 -0.1799750194
C   C53       1.0  0.68710  0.89020  0.38125  1.0000 0.1194571863
C   C54       1.0  0.31290  0.39020  0.11875  1.0000 0.1194571863
C   C55       1.0  0.31290  0.10980  0.61875  1.0000 0.1194571863
C   C56       1.0  0.68710  0.60980  0.88125  1.0000 0.1194571863
C   C57       1.0  0.16310  0.68940  0.77132  1.0000 -0.0481802643
C   C58       1.0  0.83690  0.18940  0.72868  1.0000 -0.0481802643
C   C59       1.0  0.83690  0.31060  0.22868  1.0000 -0.040569409
C   C60       1.0  0.16310  0.81060  0.27132  1.0000 -0.0481802643
C   C61       1.0  0.12610  0.70470  0.73522  1.0000 0.0802862507
C   C62       1.0  0.87390  0.20470  0.76478  1.0000 0.0802862507
C   C63       1.0  0.87390  0.29530  0.26478  1.0000 0.0802862507
C   C64       1.0  0.12610  0.79530  0.23522  1.0000 0.0802862507
C   C65       1.0  0.04360  0.77720  0.72114  1.0000 -0.040569409
C   C66       1.0  0.95640  0.27720  0.77886  1.0000 -0.040569409
C   C67       1.0  0.95640  0.22280  0.27886  1.0000 -0.040569409
C   C68       1.0  0.04360  0.72280  0.22114  1.0000 -0.040569409
C   C69       1.0  0.99410  0.82740  0.74290  1.0000 0.0802862507
C   C70       1.0  0.00590  0.32740  0.75710  1.0000 0.0802862507
C   C71       1.0  0.00590  0.17260  0.25710  1.0000 0.0802862507
C   C72       1.0  0.99410  0.67260  0.24290  1.0000 0.0802862507
C   C73       1.0  0.02860  0.80510  0.77850  1.0000 -0.040569409
C   C74       1.0  0.97140  0.30510  0.72150  1.0000 -0.040569409
C   C75       1.0  0.97140  0.19490  0.22150  1.0000 -0.040569409
C   C76       1.0  0.02860  0.69490  0.27850  1.0000 -0.040569409
C   C77       1.0  0.11500  0.73990  0.79330  1.0000 0.0802862507
C   C78       1.0  0.88500  0.23990  0.70670  1.0000 0.0802862507
C   C79       1.0  0.88500  0.26010  0.20670  1.0000 0.0802862507
C   C80       1.0  0.11500  0.76010  0.29330  1.0000 0.0802862507
C   C81       1.0  0.25400  0.61510  0.78715  1.0000 -0.1584584256
C   C82       1.0  0.74600  0.11510  0.71285  1.0000 -0.1584584256
C   C83       1.0  0.74600  0.38490  0.21285  1.0000 -0.1584584256
C   C84       1.0  0.25400  0.88490  0.28715  1.0000 -0.1584584256
C   C85       1.0  0.44580  0.61590  0.80219  1.0000 0.0802862507
C   C86       1.0  0.55420  0.11590  0.69781  1.0000 0.0802862507
C   C87       1.0  0.55420  0.38410  0.19781  1.0000 0.0802862507
C   C88       1.0  0.44580  0.88410  0.30219  1.0000 0.0802862507
C   C89       1.0  0.47740  0.75470  0.77555  1.0000 -0.040569409
C   C90       1.0  0.52260  0.25470  0.72445  1.0000 -0.040569409
C   C91       1.0  0.52260  0.24530  0.22445  1.0000 -0.040569409
C   C92       1.0  0.47740  0.74530  0.27555  1.0000 -0.040569409
C   C93       1.0  0.37380  0.75530  0.77113  1.0000 -0.1080197826
C   C94       1.0  0.62620  0.25530  0.72887  1.0000 -0.1080197826
C   C95       1.0  0.62620  0.24470  0.22887  1.0000 -0.1080197826
C   C96       1.0  0.37380  0.74470  0.27113  1.0000 -0.1080197826
C   C97       1.0  0.17590  0.64780  0.71146  1.0000 -0.4722957551
C   C98       1.0  0.82410  0.14780  0.78854  1.0000 -0.4722957551
C   C99       1.0  0.82410  0.35220  0.28854  1.0000 -0.4722957551
C   C100      1.0  0.17590  0.85220  0.21146  1.0000 -0.4722957551
C   C101      1.0  0.00950  0.80620  0.68252  1.0000 -0.1584584256
C   C102      1.0  0.99050  0.30620  0.81748  1.0000 -0.1584584256
C   C103      1.0  0.99050  0.19380  0.31748  1.0000 -0.1584584256
C   C104      1.0  0.00950  0.69380  0.18252  1.0000 -0.1584584256
C   C105      1.0  0.15160  0.94560  0.69316  1.0000 0.0916459607
C   C106      1.0  0.84840  0.44560  0.80684  1.0000 0.0916459607
C   C107      1.0  0.84840  0.05440  0.30684  1.0000 0.0916459607
C   C108      1.0  0.15160  0.55440  0.19316  1.0000 0.0916459607
C   C109      1.0  0.08030  0.06620  0.65547  1.0000 -0.040569409
C   C110      1.0  0.91970  0.56620  0.84453  1.0000 -0.040569409
C   C111      1.0  0.91970  0.93380  0.34453  1.0000 -0.040569409
C   C112      1.0  0.08030  0.43380  0.15547  1.0000 -0.040569409
C   C113      1.0  0.00770  0.98810  0.65304  1.0000 -0.1080197826
C   C114      1.0  0.99230  0.48810  0.84696  1.0000 -0.1080197826
C   C115      1.0  0.99230  0.01190  0.34696  1.0000 -0.1080197826
C   C116      1.0  0.00770  0.51190  0.15304  1.0000 -0.1080197826
C   C117      1.0  0.90690  0.90570  0.72757  1.0000 -0.4722957551
C   C118      1.0  0.09310  0.40570  0.77243  1.0000 -0.4722957551
C   C119      1.0  0.09310  0.09430  0.27243  1.0000 -0.4722957551
C   C120      1.0  0.90690  0.59430  0.22757  1.0000 -0.4722957551
C   C121      1.0  0.97150  0.85300  0.80196  1.0000 -0.1476007491
C   C122      1.0  0.02850  0.35300  0.69804  1.0000 -0.1476007491
C   C123      1.0  0.02850  0.14700  0.19804  1.0000 -0.1476007491
C   C124      1.0  0.97150  0.64700  0.30196  1.0000 -0.1476007491
C   C125      1.0  0.02620  0.97070  0.85513  1.0000 0.1112216726
C   C126      1.0  0.97380  0.47070  0.64487  1.0000 0.1112216726
C   C127      1.0  0.97380  0.02930  0.14487  1.0000 0.1112216726
C   C128      1.0  0.02620  0.52930  0.35513  1.0000 0.1112216726
C   C129      1.0  0.13800  0.07480  0.84448  1.0000 -0.0481802643
C   C130      1.0  0.86200  0.57480  0.65552  1.0000 -0.0481802643
C   C131      1.0  0.86200  0.92520  0.15552  1.0000 -0.0481802643
C   C132      1.0  0.13800  0.42520  0.34448  1.0000 -0.0481802643
C   C133      1.0  0.10170  0.00900  0.81664  1.0000 -0.1080197826
C   C134      1.0  0.89830  0.50900  0.68336  1.0000 -0.1080197826
C   C135      1.0  0.89830  0.99100  0.18336  1.0000 -0.1080197826
C   C136      1.0  0.10170  0.49100  0.31664  1.0000 -0.1080197826
C   C137      1.0  0.15800  0.72530  0.83308  1.0000 -0.4605251826
C   C138      1.0  0.84200  0.22530  0.66692  1.0000 -0.4605251826
C   C139      1.0  0.84200  0.27470  0.16692  1.0000 -0.4605251826
C   C140      1.0  0.15800  0.77470  0.33308  1.0000 -0.4605251826
C   C141      1.0  0.42270  0.51920  0.63866  1.0000 -0.040569409
C   C142      1.0  0.57730  0.01920  0.86134  1.0000 -0.040569409
C   C143      1.0  0.57730  0.48080  0.36134  1.0000 -0.040569409
C   C144      1.0  0.42270  0.98080  0.13866  1.0000 -0.040569409
C   C145      1.0  0.45960  0.45560  0.61586  1.0000 0.0743770957
C   C146      1.0  0.54040  0.95560  0.88414  1.0000 0.0743770957
C   C147      1.0  0.54040  0.54440  0.38414  1.0000 0.0743770957
C   C148      1.0  0.45960  0.04440  0.11586  1.0000 0.0802862507
C   C149      1.0  0.43430  0.48650  0.58078  1.0000 -0.0481802643
C   C150      1.0  0.56570  0.98650  0.91922  1.0000 -0.0481802643
C   C151      1.0  0.56570  0.51350  0.41922  1.0000 -0.0481802643
C   C152      1.0  0.43430  0.01350  0.08078  1.0000 -0.0481802643
C   C153      1.0  0.37440  0.57880  0.56820  1.0000 0.0802862507
C   C154      1.0  0.62560  0.07880  0.93180  1.0000 0.0802862507
C   C155      1.0  0.62560  0.42120  0.43180  1.0000 0.0802862507
C   C156      1.0  0.37440  0.92120  0.06820  1.0000 0.0802862507
C   C157      1.0  0.33370  0.63910  0.59068  1.0000 -0.0293034868
C   C158      1.0  0.66630  0.13910  0.90932  1.0000 -0.0293034868
C   C159      1.0  0.66630  0.36090  0.40932  1.0000 -0.0293034868
C   C160      1.0  0.33370  0.86090  0.09068  1.0000 -0.0293034868
C   C161      1.0  0.36210  0.61150  0.62623  1.0000 0.0916459607
C   C162      1.0  0.63790  0.11150  0.87377  1.0000 0.0916459607
C   C163      1.0  0.63790  0.38850  0.37377  1.0000 0.0916459607
C   C164      1.0  0.36210  0.88850  0.12623  1.0000 0.0916459607
C   C165      1.0  0.44000  0.48210  0.67552  1.0000 -0.1584584256
C   C166      1.0  0.56000  0.98210  0.82448  1.0000 -0.1584584256
C   C167      1.0  0.56000  0.51790  0.32448  1.0000 -0.1584584256
C   C168      1.0  0.44000  0.01790  0.17552  1.0000 -0.1584584256
C   C169      1.0  0.54570  0.53280  0.73577  1.0000 0.0802862507
C   C170      1.0  0.45430  0.03280  0.76423  1.0000 0.0802862507
C   C171      1.0  0.45430  0.46720  0.26423  1.0000 0.0802862507
C   C172      1.0  0.54570  0.96720  0.23577  1.0000 0.0802862507
C   C173      1.0  0.69030  0.58230  0.73000  1.0000 -0.0579412073
C   C174      1.0  0.30970  0.08230  0.77000  1.0000 -0.0579412073
C   C175      1.0  0.30970  0.41770  0.27000  1.0000 -0.0579412073
C   C176      1.0  0.69030  0.91770  0.23000  1.0000 -0.0579412073
C   C177      1.0  0.62730  0.55760  0.69765  1.0000 -0.1080197826
C   C178      1.0  0.37270  0.05760  0.80235  1.0000 -0.1080197826
C   C179      1.0  0.37270  0.44240  0.30235  1.0000 -0.1080197826
C   C180      1.0  0.62730  0.94240  0.19765  1.0000 -0.1080197826
C   C181      1.0  0.52470  0.35570  0.62928  1.0000 -0.4794145167
C   C182      1.0  0.47530  0.85570  0.87072  1.0000 -0.4794145167
C   C183      1.0  0.47530  0.64430  0.37072  1.0000 -0.4794145167
C   C184      1.0  0.52470  0.14430  0.12928  1.0000 -0.4794145167
C   C185      1.0  0.46910  0.41290  0.55643  1.0000 -0.1584584256
C   C186      1.0  0.53090  0.91290  0.94357  1.0000 -0.1584584256
C   C187      1.0  0.53090  0.58710  0.44357  1.0000 -0.1584584256
C   C188      1.0  0.46910  0.08710  0.05643  1.0000 -0.1584584256
C   C189      1.0  0.64060  0.51100  0.56751  1.0000 0.0916459607
C   C190      1.0  0.35940  0.01100  0.93249  1.0000 0.0916459607
C   C191      1.0  0.35940  0.48900  0.43249  1.0000 0.0916459607
C   C192      1.0  0.64060  0.98900  0.06751  1.0000 0.0916459607
C   C193      1.0  0.73910  0.37900  0.56453  1.0000 -0.0293034868
C   C194      1.0  0.26090  0.87900  0.93547  1.0000 -0.0293034868
C   C195      1.0  0.26090  0.62100  0.43547  1.0000 -0.0293034868
C   C196      1.0  0.73910  0.12100  0.06453  1.0000 -0.0293034868
C   C197      1.0  0.64360  0.33690  0.55889  1.0000 -0.1189010941
C   C198      1.0  0.35640  0.83690  0.94111  1.0000 -0.1189010941
C   C199      1.0  0.35640  0.66310  0.44111  1.0000 -0.1189010941
C   C200      1.0  0.64360  0.16310  0.05889  1.0000 -0.1189010941
C   C201      1.0  0.35640  0.61660  0.53083  1.0000 -0.4605251826
C   C202      1.0  0.64360  0.11660  0.96917  1.0000 -0.4605251826
C   C203      1.0  0.64360  0.38340  0.46917  1.0000 -0.4605251826
C   C204      1.0  0.35640  0.88340  0.03083  1.0000 -0.4605251826
C   C205      1.0  0.26560  0.73600  0.57699  1.0000 -0.1584584256
C   C206      1.0  0.73440  0.23600  0.92301  1.0000 -0.1584584256
C   C207      1.0  0.73440  0.26400  0.42301  1.0000 -0.1584584256
C   C208      1.0  0.26560  0.76400  0.07699  1.0000 -0.1584584256
C   C209      1.0  0.09880  0.65380  0.58053  1.0000 0.1112216726
C   C210      1.0  0.90120  0.15380  0.91947  1.0000 0.1112216726
C   C211      1.0  0.90120  0.34620  0.41947  1.0000 0.1112216726
C   C212      1.0  0.09880  0.84620  0.08053  1.0000 0.1112216726
C   C213      1.0  0.02280  0.79110  0.59372  1.0000 -0.040569409
C   C214      1.0  0.97720  0.29110  0.90628  1.0000 -0.040569409
C   C215      1.0  0.97720  0.20890  0.40628  1.0000 -0.040569409
C   C216      1.0  0.02280  0.70890  0.09372  1.0000 -0.040569409
C   C217      1.0  0.11720  0.82490  0.59231  1.0000 -0.1080197826
C   C218      1.0  0.88280  0.32490  0.90769  1.0000 -0.1080197826
C   C219      1.0  0.88280  0.17510  0.40769  1.0000 -0.1080197826
C   C220      1.0  0.11720  0.67510  0.09231  1.0000 -0.1080197826
C   C221      1.0  0.32630  0.67970  0.65137  1.0000 -0.4519583002
C   C222      1.0  0.67370  0.17970  0.84863  1.0000 -0.4519583002
C   C223      1.0  0.67370  0.32030  0.34863  1.0000 -0.4519583002
C   C224      1.0  0.32630  0.82030  0.15137  1.0000 -0.4519583002
N   N1        1.0  0.70960  0.83040  0.35690  1.0000 -0.2864873946
N   N2        1.0  0.29040  0.33040  0.14310  1.0000 -0.2864873946
N   N3        1.0  0.29040  0.16960  0.64310  1.0000 -0.2864873946
N   N4        1.0  0.70960  0.66960  0.85690  1.0000 -0.2864873946
N   N5        1.0  0.82280  0.63490  0.52820  1.0000 -0.2658281416
N   N6        1.0  0.17720  0.13490  0.97180  1.0000 -0.2658281416
N   N7        1.0  0.17720  0.36510  0.47180  1.0000 -0.2658281416
N   N8        1.0  0.82280  0.86510  0.02820  1.0000 -0.2658281416
N   N9        1.0  0.35490  0.66540  0.78824  1.0000 0.0485696838
N   N10       1.0  0.64510  0.16540  0.71176  1.0000 0.0485696838
N   N11       1.0  0.64510  0.33460  0.21176  1.0000 0.0485696838
N   N12       1.0  0.35490  0.83460  0.28824  1.0000 0.0485696838
N   N13       1.0  0.52250  0.66770  0.79557  1.0000 -0.3000180065
N   N14       1.0  0.47750  0.16770  0.70443  1.0000 -0.3000180065
N   N15       1.0  0.47750  0.33230  0.20443  1.0000 -0.3000180065
N   N16       1.0  0.52250  0.83230  0.29557  1.0000 -0.3000180065
N   N17       1.0  0.05440  0.91080  0.67714  1.0000 0.0416346243
N   N18       1.0  0.94560  0.41080  0.82286  1.0000 0.0416346243
N   N19       1.0  0.94560  0.08920  0.32286  1.0000 0.0416346243
N   N20       1.0  0.05440  0.58920  0.17714  1.0000 0.0416346243
N   N21       1.0  0.17140  0.04040  0.68129  1.0000 -0.3000180065
N   N22       1.0  0.82860  0.54040  0.81871  1.0000 -0.3000180065
N   N23       1.0  0.82860  0.95960  0.31871  1.0000 -0.3000180065
N   N24       1.0  0.17140  0.45960  0.18129  1.0000 -0.3000180065
N   N25       1.0  0.03120  0.94180  0.82370  1.0000 0.0485696838
N   N26       1.0  0.96880  0.44180  0.67630  1.0000 0.0485696838
N   N27       1.0  0.96880  0.05820  0.17630  1.0000 0.0485696838
N   N28       1.0  0.03120  0.55820  0.32370  1.0000 0.0485696838
N   N29       1.0  0.08930  0.05040  0.86874  1.0000 -0.2864873946
N   N30       1.0  0.91070  0.55040  0.63126  1.0000 -0.2864873946
N   N31       1.0  0.91070  0.94960  0.13126  1.0000 -0.2864873946
N   N32       1.0  0.08930  0.44960  0.36874  1.0000 -0.2864873946
N   N33       1.0  0.53470  0.52650  0.70151  1.0000 0.0485696838
N   N34       1.0  0.46530  0.02650  0.79849  1.0000 0.0485696838
N   N35       1.0  0.46530  0.47350  0.29849  1.0000 0.0485696838
N   N36       1.0  0.53470  0.97350  0.20151  1.0000 0.0485696838
N   N37       1.0  0.63940  0.56720  0.75415  1.0000 -0.3000180065
N   N38       1.0  0.36060  0.06720  0.74585  1.0000 -0.3000180065
N   N39       1.0  0.36060  0.43280  0.24585  1.0000 -0.3000180065
N   N40       1.0  0.63940  0.93280  0.25415  1.0000 -0.3000180065
N   N41       1.0  0.58110  0.42250  0.56086  1.0000 0.0416346243
N   N42       1.0  0.41890  0.92250  0.93914  1.0000 0.0416346243
N   N43       1.0  0.41890  0.57750  0.43914  1.0000 0.0416346243
N   N44       1.0  0.58110  0.07750  0.06086  1.0000 0.0416346243
N   N45       1.0  0.73850  0.48810  0.56996  1.0000 -0.3000180065
N   N46       1.0  0.26150  0.98810  0.93004  1.0000 -0.3000180065
N   N47       1.0  0.26150  0.51190  0.43004  1.0000 -0.3000180065
N   N48       1.0  0.73850  0.01190  0.06996  1.0000 -0.3000180065
N   N49       1.0  0.16550  0.73540  0.58417  1.0000 0.0485696838
N   N50       1.0  0.83450  0.23540  0.91583  1.0000 0.0485696838
N   N51       1.0  0.83450  0.26460  0.41583  1.0000 0.0485696838
N   N52       1.0  0.16550  0.76460  0.08417  1.0000 0.0485696838
N   N53       1.0  0.01140  0.68310  0.58627  1.0000 -0.3096199051
N   N54       1.0  0.98860  0.18310  0.91373  1.0000 -0.3096199051
N   N55       1.0  0.98860  0.31690  0.41373  1.0000 -0.3096199051
N   N56       1.0  0.01140  0.81690  0.08627  1.0000 -0.3096199051
O   O1        1.0  0.93940  0.46690  0.55313  1.0000 -0.5584340334
O   O2        1.0  0.06060  0.96690  0.94687  1.0000 -0.5584340334
O   O3        1.0  0.06060  0.53310  0.44687  1.0000 -0.5584340334
O   O4        1.0  0.93940  0.03310  0.05313  1.0000 -0.5584340334
O   O5        1.0  0.92070  0.40460  0.49902  1.0000 -0.5212818806
O   O6        1.0  0.07930  0.90460  0.00098  1.0000 -0.5212818806
O   O7        1.0  0.07930  0.59540  0.50098  1.0000 -0.5212818806
O   O8        1.0  0.92070  0.09540  0.99902  1.0000 -0.5212818806
O   O9        1.0  0.77680  0.73370  0.57820  1.0000 -0.5486423024
O   O10       1.0  0.22320  0.23370  0.92180  1.0000 -0.5486423024
O   O11       1.0  0.22320  0.26630  0.42180  1.0000 -0.5486423024
O   O12       1.0  0.77680  0.76630  0.07820  1.0000 -0.5486423024
O   O13       1.0  0.67220  0.85060  0.54139  1.0000 -0.5212818806
O   O14       1.0  0.32780  0.35060  0.95861  1.0000 -0.5212818806
O   O15       1.0  0.32780  0.14940  0.45861  1.0000 -0.5212818806
O   O16       1.0  0.67220  0.64940  0.04139  1.0000 -0.5270117238
O   O17       1.0  0.73875  0.72770  0.30500  1.0000 -0.5486423024
O   O18       1.0  0.26125  0.22770  0.19500  1.0000 -0.5486423024
O   O19       1.0  0.26125  0.27230  0.69500  1.0000 -0.5486423024
O   O20       1.0  0.73875  0.77230  0.80500  1.0000 -0.5486423024
O   O21       1.0  0.79720  0.57880  0.33720  1.0000 -0.5212818806
O   O22       1.0  0.20280  0.07880  0.16280  1.0000 -0.5212818806
O   O23       1.0  0.20280  0.42120  0.66280  1.0000 -0.5212818806
O   O24       1.0  0.79720  0.92120  0.83720  1.0000 -0.5212818806
O   O25       1.0  0.63500  0.02060  0.33629  1.0000 -0.5584340334
O   O26       1.0  0.36500  0.52060  0.16371  1.0000 -0.5584340334
O   O27       1.0  0.36500  0.97940  0.66371  1.0000 -0.5584340334
O   O28       1.0  0.63500  0.47940  0.83629  1.0000 -0.5584340334
O   O29       1.0  0.59780  0.05270  0.38570  1.0000 -0.5444124058
O   O30       1.0  0.40220  0.55270  0.11430  1.0000 -0.5486423024
O   O31       1.0  0.40220  0.94730  0.61430  1.0000 -0.5444124058
O   O32       1.0  0.59780  0.44730  0.88570  1.0000 -0.5444124058
