# DDEC6 charges by PACMAN v1.1 (https://github.com/mtap-research/PACMAN-charge/)
data_2012[Zn][acs]3[FSR]1
_chemical_formula_sum              "Zn2 H6 C6 O12"
_cell_length_a       7.3041
_cell_length_b       7.3041
_cell_length_c       8.164
_cell_angle_alpha    90
_cell_angle_beta     90
_cell_angle_gamma    120

_symmetry_space_group_name_H-M    "P 1"
_symmetry_Int_Tables_number       1

loop_
  _symmetry_equiv_pos_as_xyz
  'x, y, z'

loop_
  _atom_site_type_symbol
  _atom_site_label
  _atom_site_symmetry_multiplicity
  _atom_site_fract_x
  _atom_site_fract_y
  _atom_site_fract_z
  _atom_site_occupancy
  _atom_site_charge
Zn  Zn1       1.0  0.66667  0.33333  0.75000  1.0000 0.9470581753
Zn  Zn2       1.0  0.33333  0.66667  0.25000  1.0000 0.9470581753
H   H1        1.0  0.00000  0.56537  0.00000  1.0000 0.1131540592
H   H2        1.0  0.43463  0.00000  0.50000  1.0000 0.1131540592
H   H3        1.0  0.43463  0.43463  0.00000  1.0000 0.1131540592
H   H4        1.0  0.00000  0.43463  0.50000  1.0000 0.1131540592
H   H5        1.0  0.56537  0.00000  0.00000  1.0000 0.1131540592
H   H6        1.0  0.56537  0.56537  0.50000  1.0000 0.1131540592
C   C1        1.0  0.00000  0.43787  0.00000  1.0000 0.4945635938
C   C2        1.0  0.56213  0.00000  0.50000  1.0000 0.4945635938
C   C3        1.0  0.56213  0.56213  0.00000  1.0000 0.4945635938
C   C4        1.0  0.00000  0.56213  0.50000  1.0000 0.4945635938
C   C5        1.0  0.43787  0.00000  0.00000  1.0000 0.4945635938
C   C6        1.0  0.43787  0.43787  0.50000  1.0000 0.4945635938
O   O1        1.0  0.88903  0.30493  0.89520  1.0000 -0.4617018557
O   O2        1.0  0.58410  0.88903  0.39520  1.0000 -0.4617018557
O   O3        1.0  0.69507  0.58410  0.89520  1.0000 -0.4617018557
O   O4        1.0  0.11097  0.69507  0.39520  1.0000 -0.4617018557
O   O5        1.0  0.41590  0.11097  0.89520  1.0000 -0.4617018557
O   O6        1.0  0.30493  0.41590  0.39520  1.0000 -0.4617018557
O   O7        1.0  0.58410  0.69507  0.10480  1.0000 -0.4617018557
O   O8        1.0  0.11097  0.41590  0.10480  1.0000 -0.4617018557
O   O9        1.0  0.30493  0.88903  0.10480  1.0000 -0.4617018557
O   O10       1.0  0.69507  0.11097  0.60480  1.0000 -0.4617018557
O   O11       1.0  0.41590  0.30493  0.60480  1.0000 -0.4617018557
O   O12       1.0  0.88903  0.58410  0.60480  1.0000 -0.4617018557
