# DDEC6 charges by PACMAN v1.1 (https://github.com/mtap-research/PACMAN-charge/)
data_2012[Cu][dia]3[FSR]3
_chemical_formula_sum              "Cu8 H88 C72 N24 O24"
_cell_length_a       9.6972
_cell_length_b       10.7957
_cell_length_c       26.9671
_cell_angle_alpha    90
_cell_angle_beta     90
_cell_angle_gamma    90

_symmetry_space_group_name_H-M    "P 1"
_symmetry_Int_Tables_number       1

loop_
  _symmetry_equiv_pos_as_xyz
  'x, y, z'

loop_
  _atom_site_type_symbol
  _atom_site_label
  _atom_site_symmetry_multiplicity
  _atom_site_fract_x
  _atom_site_fract_y
  _atom_site_fract_z
  _atom_site_occupancy
  _atom_site_charge
Cu  Cu1       1.0  0.68595  0.38507  0.66788  1.0000 0.7122443292
Cu  Cu2       1.0  0.68595  0.61493  0.33212  1.0000 0.7122443292
Cu  Cu3       1.0  0.31405  0.88507  0.83212  1.0000 0.7122443292
Cu  Cu4       1.0  0.31405  0.11493  0.16788  1.0000 0.7122443292
Cu  Cu5       1.0  0.81325  0.61020  0.83390  1.0000 0.7331034664
Cu  Cu6       1.0  0.81325  0.38980  0.16610  1.0000 0.7331034664
Cu  Cu7       1.0  0.18675  0.11020  0.66610  1.0000 0.7331034664
Cu  Cu8       1.0  0.18675  0.88980  0.33390  1.0000 0.7331034664
H   H1        1.0  0.91220  0.28600  0.60140  1.0000 0.2906513486
H   H2        1.0  0.91220  0.71400  0.39860  1.0000 0.2906513486
H   H3        1.0  0.08780  0.78600  0.89860  1.0000 0.2906513486
H   H4        1.0  0.08780  0.21400  0.10140  1.0000 0.2906513486
H   H5        1.0  0.58230  0.72020  0.89930  1.0000 0.2906513486
H   H6        1.0  0.58230  0.27980  0.10070  1.0000 0.2906513486
H   H7        1.0  0.41770  0.22020  0.60070  1.0000 0.2906513486
H   H8        1.0  0.41770  0.77980  0.39930  1.0000 0.2906513486
H   H9        1.0  0.51710  0.27630  0.80930  1.0000 0.1496180725
H   H10       1.0  0.51710  0.72370  0.19070  1.0000 0.1496180725
H   H11       1.0  0.48290  0.77630  0.69070  1.0000 0.1496180725
H   H12       1.0  0.48290  0.22370  0.30930  1.0000 0.1496180725
H   H13       1.0  0.54100  0.18580  0.76310  1.0000 0.1398671144
H   H14       1.0  0.54100  0.81420  0.23690  1.0000 0.1398671144
H   H15       1.0  0.45900  0.68580  0.73690  1.0000 0.1398671144
H   H16       1.0  0.45900  0.31420  0.26310  1.0000 0.1398671144
H   H17       1.0  0.38780  0.21550  0.78160  1.0000 0.1398671144
H   H18       1.0  0.38780  0.78450  0.21840  1.0000 0.1398671144
H   H19       1.0  0.61220  0.71550  0.71840  1.0000 0.1398671144
H   H20       1.0  0.61220  0.28450  0.28160  1.0000 0.1398671144
H   H21       1.0  0.41390  0.42480  0.75670  1.0000 0.1103292631
H   H22       1.0  0.41390  0.57520  0.24330  1.0000 0.1103292631
H   H23       1.0  0.58610  0.92480  0.74330  1.0000 0.1103292631
H   H24       1.0  0.58610  0.07520  0.25670  1.0000 0.1103292631
H   H25       1.0  0.03050  0.68260  0.73710  1.0000 0.1103292631
H   H26       1.0  0.03050  0.31740  0.26290  1.0000 0.1103292631
H   H27       1.0  0.96950  0.18260  0.76290  1.0000 0.1103292631
H   H28       1.0  0.96950  0.81740  0.23710  1.0000 0.1103292631
H   H29       1.0  0.09700  0.48100  0.71360  1.0000 0.1496180725
H   H30       1.0  0.09700  0.51900  0.28640  1.0000 0.1496180725
H   H31       1.0  0.90300  0.98100  0.78640  1.0000 0.1496180725
H   H32       1.0  0.90300  0.01900  0.21360  1.0000 0.1496180725
H   H33       1.0  0.13540  0.44860  0.76980  1.0000 0.1496180725
H   H34       1.0  0.13540  0.55140  0.23020  1.0000 0.1496180725
H   H35       1.0  0.86460  0.94860  0.73020  1.0000 0.1496180725
H   H36       1.0  0.86460  0.05140  0.26980  1.0000 0.1496180725
H   H37       1.0  0.22390  0.54910  0.74000  1.0000 0.1398671144
H   H38       1.0  0.22390  0.45090  0.26000  1.0000 0.1398671144
H   H39       1.0  0.77610  0.04910  0.76000  1.0000 0.1398671144
H   H40       1.0  0.77610  0.95090  0.24000  1.0000 0.1398671144
H   H41       1.0  0.54520  0.53370  0.60050  1.0000 0.1496180725
H   H42       1.0  0.54520  0.46630  0.39950  1.0000 0.1496180725
H   H43       1.0  0.45480  0.03370  0.89950  1.0000 0.1496180725
H   H44       1.0  0.45480  0.96630  0.10050  1.0000 0.1496180725
H   H45       1.0  0.52030  0.52280  0.54200  1.0000 0.1496180725
H   H46       1.0  0.52030  0.47720  0.45800  1.0000 0.1496180725
H   H47       1.0  0.47970  0.02280  0.95800  1.0000 0.1496180725
H   H48       1.0  0.47970  0.97720  0.04200  1.0000 0.1496180725
H   H49       1.0  0.60850  0.63560  0.56390  1.0000 0.1551635984
H   H50       1.0  0.60850  0.36440  0.43610  1.0000 0.1551635984
H   H51       1.0  0.39150  0.13560  0.93610  1.0000 0.1551635984
H   H52       1.0  0.39150  0.86440  0.06390  1.0000 0.1551635984
H   H53       1.0  0.07480  0.27180  0.53600  1.0000 0.1496180725
H   H54       1.0  0.07480  0.72820  0.46400  1.0000 0.1496180725
H   H55       1.0  0.92520  0.77180  0.96400  1.0000 0.1496180725
H   H56       1.0  0.92520  0.22820  0.03600  1.0000 0.1496180725
H   H57       1.0  0.09140  0.39860  0.50590  1.0000 0.1496180725
H   H58       1.0  0.09140  0.60140  0.49410  1.0000 0.1496180725
H   H59       1.0  0.90860  0.89860  0.99410  1.0000 0.1496180725
H   H60       1.0  0.90860  0.10140  0.00590  1.0000 0.1496180725
H   H61       1.0  0.00050  0.28820  0.48350  1.0000 0.1496180725
H   H62       1.0  0.00050  0.71180  0.51650  1.0000 0.1496180725
H   H63       1.0  0.99950  0.78820  0.01650  1.0000 0.1496180725
H   H64       1.0  0.99950  0.21180  0.98350  1.0000 0.1496180725
H   H65       1.0  0.41010  0.72720  0.96280  1.0000 0.1496180725
H   H66       1.0  0.41010  0.27280  0.03720  1.0000 0.1496180725
H   H67       1.0  0.58990  0.22720  0.53720  1.0000 0.1496180725
H   H68       1.0  0.58990  0.77280  0.46280  1.0000 0.1496180725
H   H69       1.0  0.47370  0.70210  0.01660  1.0000 0.1496180725
H   H70       1.0  0.47370  0.29790  0.98340  1.0000 0.1496180725
H   H71       1.0  0.52630  0.20210  0.48340  1.0000 0.1496180725
H   H72       1.0  0.52630  0.79790  0.51660  1.0000 0.1496180725
H   H73       1.0  0.39130  0.59460  0.98850  1.0000 0.1496180725
H   H74       1.0  0.39130  0.40540  0.01150  1.0000 0.1496180725
H   H75       1.0  0.60870  0.09460  0.51150  1.0000 0.1496180725
H   H76       1.0  0.60870  0.90540  0.48850  1.0000 0.1496180725
H   H77       1.0  0.94860  0.46460  0.90230  1.0000 0.1496180725
H   H78       1.0  0.94860  0.53540  0.09770  1.0000 0.1496180725
H   H79       1.0  0.05140  0.96460  0.59770  1.0000 0.1496180725
H   H80       1.0  0.05140  0.03540  0.40230  1.0000 0.1496180725
H   H81       1.0  0.87280  0.35960  0.93410  1.0000 0.1551635984
H   H82       1.0  0.87280  0.64040  0.06590  1.0000 0.1551635984
H   H83       1.0  0.12720  0.85960  0.56590  1.0000 0.1551635984
H   H84       1.0  0.12720  0.14040  0.43410  1.0000 0.1551635984
H   H85       1.0  0.96460  0.46240  0.96140  1.0000 0.1496180725
H   H86       1.0  0.96460  0.53760  0.03860  1.0000 0.1496180725
H   H87       1.0  0.03540  0.96240  0.53860  1.0000 0.1496180725
H   H88       1.0  0.03540  0.03760  0.46140  1.0000 0.1496180725
C   C1        1.0  0.48060  0.24950  0.77715  1.0000 -0.4100260512
C   C2        1.0  0.48060  0.75050  0.22285  1.0000 -0.4100260512
C   C3        1.0  0.51940  0.74950  0.72285  1.0000 -0.4100260512
C   C4        1.0  0.51940  0.25050  0.27715  1.0000 -0.4100260512
C   C5        1.0  0.47450  0.35900  0.74232  1.0000 0.0489091866
C   C6        1.0  0.47450  0.64100  0.25768  1.0000 0.0489091866
C   C7        1.0  0.52550  0.85900  0.75768  1.0000 0.0489091866
C   C8        1.0  0.52550  0.14100  0.24232  1.0000 0.0489091866
C   C9        1.0  0.41650  0.31740  0.69177  1.0000 0.5686978225
C   C10       1.0  0.41650  0.68260  0.30823  1.0000 0.5686978225
C   C11       1.0  0.58350  0.81740  0.80823  1.0000 0.5686978225
C   C12       1.0  0.58350  0.18260  0.19177  1.0000 0.5686978225
C   C13       1.0  0.68340  0.47300  0.76297  1.0000 0.3536523107
C   C14       1.0  0.68340  0.52700  0.23703  1.0000 0.3536523107
C   C15       1.0  0.31660  0.97300  0.73703  1.0000 0.3536523107
C   C16       1.0  0.31660  0.02700  0.26297  1.0000 0.3536523107
C   C17       1.0  0.81890  0.51310  0.74013  1.0000 0.3559612755
C   C18       1.0  0.81890  0.48690  0.25987  1.0000 0.3559612755
C   C19       1.0  0.18110  0.01310  0.75987  1.0000 0.3559612755
C   C20       1.0  0.18110  0.98690  0.24013  1.0000 0.3559612755
C   C21       1.0  0.03500  0.61630  0.76291  1.0000 0.0489091866
C   C22       1.0  0.03500  0.38370  0.23709  1.0000 0.0489091866
C   C23       1.0  0.96500  0.11630  0.73709  1.0000 0.0489091866
C   C24       1.0  0.96500  0.88370  0.26291  1.0000 0.0489091866
C   C25       1.0  0.13140  0.51480  0.74500  1.0000 -0.4152525913
C   C26       1.0  0.13140  0.48520  0.25500  1.0000 -0.4152525913
C   C27       1.0  0.86860  0.01480  0.75500  1.0000 -0.4152525913
C   C28       1.0  0.86860  0.98520  0.24500  1.0000 -0.4152525913
C   C29       1.0  0.08610  0.67330  0.81137  1.0000 0.5621146086
C   C30       1.0  0.08610  0.32670  0.18863  1.0000 0.5621146086
C   C31       1.0  0.91390  0.17330  0.68863  1.0000 0.5621146086
C   C32       1.0  0.91390  0.82670  0.31137  1.0000 0.5621146086
C   C33       1.0  0.58610  0.54760  0.56780  1.0000 -0.4871577796
C   C34       1.0  0.58610  0.45240  0.43220  1.0000 -0.4871577796
C   C35       1.0  0.41390  0.04760  0.93220  1.0000 -0.4871577796
C   C36       1.0  0.41390  0.95240  0.06780  1.0000 -0.4871577796
C   C37       1.0  0.71470  0.47230  0.56292  1.0000 0.1922507483
C   C38       1.0  0.71470  0.52770  0.43708  1.0000 0.1922507483
C   C39       1.0  0.28530  0.97230  0.93708  1.0000 0.1922507483
C   C40       1.0  0.28530  0.02770  0.06292  1.0000 0.1922507483
C   C41       1.0  0.80650  0.46480  0.52356  1.0000 -0.1297434706
C   C42       1.0  0.80650  0.53520  0.47644  1.0000 -0.1297434706
C   C43       1.0  0.19350  0.96480  0.97644  1.0000 -0.1297434706
C   C44       1.0  0.19350  0.03520  0.02356  1.0000 -0.1297434706
C   C45       1.0  0.90530  0.38060  0.53896  1.0000 0.1820223305
C   C46       1.0  0.90530  0.61940  0.46104  1.0000 0.1820223305
C   C47       1.0  0.09470  0.88060  0.96104  1.0000 0.1820223305
C   C48       1.0  0.09470  0.11940  0.03896  1.0000 0.1820223305
C   C49       1.0  0.02820  0.33060  0.51400  1.0000 -0.4871577796
C   C50       1.0  0.02820  0.66940  0.48600  1.0000 -0.4871577796
C   C51       1.0  0.97180  0.83060  0.98600  1.0000 -0.4871577796
C   C52       1.0  0.97180  0.16940  0.01400  1.0000 -0.4871577796
C   C53       1.0  0.45380  0.66520  0.98420  1.0000 -0.4955694553
C   C54       1.0  0.45380  0.33480  0.01580  1.0000 -0.4955694553
C   C55       1.0  0.54620  0.16520  0.51580  1.0000 -0.4955694553
C   C56       1.0  0.54620  0.83480  0.48420  1.0000 -0.4955694553
C   C57       1.0  0.58530  0.62190  0.96087  1.0000 0.1922507483
C   C58       1.0  0.58530  0.37810  0.03913  1.0000 0.1922507483
C   C59       1.0  0.41470  0.12190  0.53913  1.0000 0.1922507483
C   C60       1.0  0.41470  0.87810  0.46087  1.0000 0.1922507483
C   C61       1.0  0.68030  0.53570  0.97670  1.0000 -0.1202611111
C   C62       1.0  0.68030  0.46430  0.02330  1.0000 -0.1202611111
C   C63       1.0  0.31970  0.03570  0.52330  1.0000 -0.1202611111
C   C64       1.0  0.31970  0.96430  0.47670  1.0000 -0.1202611111
C   C65       1.0  0.77780  0.52780  0.93849  1.0000 0.1922507483
C   C66       1.0  0.77780  0.47220  0.06151  1.0000 0.1922507483
C   C67       1.0  0.22220  0.02780  0.56151  1.0000 0.1922507483
C   C68       1.0  0.22220  0.97220  0.43849  1.0000 0.1922507483
C   C69       1.0  0.90160  0.44660  0.93370  1.0000 -0.4838541027
C   C70       1.0  0.90160  0.55340  0.06630  1.0000 -0.4871577796
C   C71       1.0  0.09840  0.94660  0.56630  1.0000 -0.4871577796
C   C72       1.0  0.09840  0.05340  0.43370  1.0000 -0.4838541027
N   N1        1.0  0.60930  0.40990  0.73208  1.0000 -0.4100260512
N   N2        1.0  0.60930  0.59010  0.26792  1.0000 -0.4100260512
N   N3        1.0  0.39070  0.90990  0.76792  1.0000 -0.4100260512
N   N4        1.0  0.39070  0.09010  0.23208  1.0000 -0.4100260512
N   N5        1.0  0.89680  0.57040  0.77197  1.0000 -0.4100260512
N   N6        1.0  0.89680  0.42960  0.22803  1.0000 -0.4100260512
N   N7        1.0  0.10320  0.07040  0.72803  1.0000 -0.4100260512
N   N8        1.0  0.10320  0.92960  0.27197  1.0000 -0.4100260512
N   N9        1.0  0.75220  0.39650  0.59898  1.0000 -0.2344445612
N   N10       1.0  0.75220  0.60350  0.40102  1.0000 -0.2344445612
N   N11       1.0  0.24780  0.89650  0.90102  1.0000 -0.2344445612
N   N12       1.0  0.24780  0.10350  0.09898  1.0000 -0.2344445612
N   N13       1.0  0.86680  0.34160  0.58391  1.0000 -0.1297434706
N   N14       1.0  0.86680  0.65840  0.41609  1.0000 -0.1297434706
N   N15       1.0  0.13320  0.84160  0.91609  1.0000 -0.1297434706
N   N16       1.0  0.13320  0.15840  0.08391  1.0000 -0.1297434706
N   N17       1.0  0.62650  0.66340  0.91651  1.0000 -0.143326002
N   N18       1.0  0.62650  0.33660  0.08349  1.0000 -0.143326002
N   N19       1.0  0.37350  0.16340  0.58349  1.0000 -0.143326002
N   N20       1.0  0.37350  0.83660  0.41651  1.0000 -0.143326002
N   N21       1.0  0.74480  0.60740  0.90123  1.0000 -0.262061673
N   N22       1.0  0.74480  0.39260  0.09877  1.0000 -0.262061673
N   N23       1.0  0.25520  0.10740  0.59877  1.0000 -0.262061673
N   N24       1.0  0.25520  0.89260  0.40123  1.0000 -0.262061673
O   O1        1.0  0.49820  0.31710  0.65469  1.0000 -0.5210352119
O   O2        1.0  0.49820  0.68290  0.34531  1.0000 -0.5210352119
O   O3        1.0  0.50180  0.81710  0.84531  1.0000 -0.5210352119
O   O4        1.0  0.50180  0.18290  0.15469  1.0000 -0.5210352119
O   O5        1.0  0.84300  0.48700  0.69512  1.0000 -0.4465638872
O   O6        1.0  0.84300  0.51300  0.30488  1.0000 -0.4465638872
O   O7        1.0  0.15700  0.98700  0.80488  1.0000 -0.4465638872
O   O8        1.0  0.15700  0.01300  0.19512  1.0000 -0.4465638872
O   O9        1.0  0.65720  0.50320  0.80773  1.0000 -0.4465638872
O   O10       1.0  0.65720  0.49680  0.19227  1.0000 -0.4465638872
O   O11       1.0  0.34280  0.00320  0.69227  1.0000 -0.4465638872
O   O12       1.0  0.34280  0.99680  0.30773  1.0000 -0.4465638872
O   O13       1.0  0.99810  0.68240  0.84723  1.0000 -0.5282754974
O   O14       1.0  0.99810  0.31760  0.15277  1.0000 -0.5282754974
O   O15       1.0  0.00190  0.18240  0.65277  1.0000 -0.5282754974
O   O16       1.0  0.00190  0.81760  0.34723  1.0000 -0.5282754974
O   O17       1.0  0.20780  0.70400  0.81510  1.0000 -0.5282754974
O   O18       1.0  0.20780  0.29600  0.18490  1.0000 -0.5282754974
O   O19       1.0  0.79220  0.20400  0.68490  1.0000 -0.5282754974
O   O20       1.0  0.79220  0.79600  0.31510  1.0000 -0.5282754974
O   O21       1.0  0.29460  0.28330  0.68957  1.0000 -0.5282754974
O   O22       1.0  0.29460  0.71670  0.31043  1.0000 -0.5282754974
O   O23       1.0  0.70540  0.78330  0.81043  1.0000 -0.5282754974
O   O24       1.0  0.70540  0.21670  0.18957  1.0000 -0.5282754974
