# DDEC6 charges by PACMAN v1.1 (https://github.com/mtap-research/PACMAN-charge/)
data_2013[Zn][pcu]3[FSR]2
_chemical_formula_sum              "Zn16 H224 C208 N16 O64"
_cell_length_a       24.5388
_cell_length_b       24.5388
_cell_length_c       24.5388
_cell_angle_alpha    127.715
_cell_angle_beta     127.715
_cell_angle_gamma    77.088

_symmetry_space_group_name_H-M    "P 1"
_symmetry_Int_Tables_number       1

loop_
  _symmetry_equiv_pos_as_xyz
  'x, y, z'

loop_
  _atom_site_type_symbol
  _atom_site_label
  _atom_site_symmetry_multiplicity
  _atom_site_fract_x
  _atom_site_fract_y
  _atom_site_fract_z
  _atom_site_occupancy
  _atom_site_charge
Zn  Zn1       1.0  0.98863  0.44039  0.00588  1.0000 0.8191046161
Zn  Zn2       1.0  0.19039  0.68451  0.95176  1.0000 0.8191046161
Zn  Zn3       1.0  0.43451  0.98275  0.99412  1.0000 0.8191046161
Zn  Zn4       1.0  0.73275  0.23863  0.04824  1.0000 0.8191046161
Zn  Zn5       1.0  0.26137  0.76725  0.95176  1.0000 0.8191046161
Zn  Zn6       1.0  0.81549  0.30961  0.04824  1.0000 0.8191046161
Zn  Zn7       1.0  0.51725  0.06549  0.00588  1.0000 0.8191046161
Zn  Zn8       1.0  0.05961  0.51137  0.99412  1.0000 0.8191046161
Zn  Zn9       1.0  0.76137  0.80961  0.49412  1.0000 0.8191046161
Zn  Zn10      1.0  0.55961  0.56549  0.54824  1.0000 0.8191046161
Zn  Zn11      1.0  0.31549  0.26725  0.50588  1.0000 0.8191046161
Zn  Zn12      1.0  0.01725  0.01137  0.45176  1.0000 0.8191046161
Zn  Zn13      1.0  0.48863  0.48275  0.54824  1.0000 0.8191046161
Zn  Zn14      1.0  0.93451  0.94039  0.45176  1.0000 0.8191046161
Zn  Zn15      1.0  0.23275  0.18451  0.49412  1.0000 0.8191046161
Zn  Zn16      1.0  0.69039  0.73863  0.50588  1.0000 0.8191046161
H   H1        1.0  0.91280  0.29690  0.91630  1.0000 0.1217302367
H   H2        1.0  0.04690  0.63060  0.88410  1.0000 0.1217302367
H   H3        1.0  0.38060  0.99650  0.08370  1.0000 0.1217302367
H   H4        1.0  0.74650  0.16280  0.11590  1.0000 0.1217302367
H   H5        1.0  0.33720  0.75350  0.88410  1.0000 0.1217302367
H   H6        1.0  0.86940  0.45310  0.11590  1.0000 0.1217302367
H   H7        1.0  0.50350  0.11940  0.91630  1.0000 0.1217302367
H   H8        1.0  0.20310  0.58720  0.08370  1.0000 0.1217302367
H   H9        1.0  0.83720  0.95310  0.58370  1.0000 0.1217302367
H   H10       1.0  0.70310  0.61940  0.61590  1.0000 0.1217302367
H   H11       1.0  0.36940  0.25350  0.41630  1.0000 0.1217302367
H   H12       1.0  0.00350  0.08720  0.38410  1.0000 0.1217302367
H   H13       1.0  0.41280  0.49650  0.61590  1.0000 0.1217302367
H   H14       1.0  0.88060  0.79690  0.38410  1.0000 0.1217302367
H   H15       1.0  0.24650  0.13060  0.58370  1.0000 0.1217302367
H   H16       1.0  0.54690  0.66280  0.41630  1.0000 0.1217302367
H   H17       1.0  0.85160  0.33780  0.89300  1.0000 0.1287360438
H   H18       1.0  0.08780  0.69480  0.98620  1.0000 0.1287360438
H   H19       1.0  0.44480  0.95860  0.10700  1.0000 0.1287360438
H   H20       1.0  0.70860  0.10160  0.01380  1.0000 0.1287360438
H   H21       1.0  0.39840  0.79140  0.98620  1.0000 0.1287360438
H   H22       1.0  0.80520  0.41220  0.01380  1.0000 0.1287360438
H   H23       1.0  0.54140  0.05520  0.89300  1.0000 0.1287360438
H   H24       1.0  0.16220  0.64840  0.10700  1.0000 0.1287360438
H   H25       1.0  0.89840  0.91220  0.60700  1.0000 0.1287360438
H   H26       1.0  0.66220  0.55520  0.51380  1.0000 0.1287360438
H   H27       1.0  0.30520  0.29140  0.39300  1.0000 0.1287360438
H   H28       1.0  0.04140  0.14840  0.48620  1.0000 0.1287360438
H   H29       1.0  0.35160  0.45860  0.51380  1.0000 0.1287360438
H   H30       1.0  0.94480  0.83780  0.48620  1.0000 0.1287360438
H   H31       1.0  0.20860  0.19480  0.60700  1.0000 0.1287360438
H   H32       1.0  0.58780  0.60160  0.39300  1.0000 0.1287360438
H   H33       1.0  0.02500  0.43350  0.14510  1.0000 0.1287360438
H   H34       1.0  0.18350  0.53840  0.90850  1.0000 0.1287360438
H   H35       1.0  0.28840  0.87990  0.85490  1.0000 0.1287360438
H   H36       1.0  0.62990  0.27500  0.09150  1.0000 0.1287360438
H   H37       1.0  0.22500  0.87010  0.90850  1.0000 0.1287360438
H   H38       1.0  0.96160  0.31650  0.09150  1.0000 0.1287360438
H   H39       1.0  0.62010  0.21160  0.14510  1.0000 0.1287360438
H   H40       1.0  0.06650  0.47500  0.85490  1.0000 0.1287360438
H   H41       1.0  0.72500  0.81650  0.35490  1.0000 0.1287360438
H   H42       1.0  0.56650  0.71160  0.59150  1.0000 0.1287360438
H   H43       1.0  0.46160  0.37010  0.64510  1.0000 0.1287360438
H   H44       1.0  0.12010  0.97500  0.40850  1.0000 0.1287360438
H   H45       1.0  0.52500  0.37990  0.59150  1.0000 0.1287360438
H   H46       1.0  0.78840  0.93350  0.40850  1.0000 0.1287360438
H   H47       1.0  0.12990  0.03840  0.35490  1.0000 0.1287360438
H   H48       1.0  0.68350  0.77500  0.64510  1.0000 0.1287360438
H   H49       1.0  0.01500  0.35320  0.06960  1.0000 0.1287360438
H   H50       1.0  0.10320  0.53360  0.83820  1.0000 0.1287360438
H   H51       1.0  0.28360  0.94540  0.93040  1.0000 0.1287360438
H   H52       1.0  0.69540  0.26500  0.16180  1.0000 0.1287360438
H   H53       1.0  0.23500  0.80460  0.83820  1.0000 0.1287360438
H   H54       1.0  0.96640  0.39680  0.16180  1.0000 0.1287360438
H   H55       1.0  0.55460  0.21640  0.06960  1.0000 0.1287360438
H   H56       1.0  0.14680  0.48500  0.93040  1.0000 0.1287360438
H   H57       1.0  0.73500  0.89680  0.43040  1.0000 0.1287360438
H   H58       1.0  0.64680  0.71640  0.66180  1.0000 0.1287360438
H   H59       1.0  0.46640  0.30460  0.56960  1.0000 0.1287360438
H   H60       1.0  0.05460  0.98500  0.33820  1.0000 0.1287360438
H   H61       1.0  0.51500  0.44540  0.66180  1.0000 0.1287360438
H   H62       1.0  0.78360  0.85320  0.33820  1.0000 0.1287360438
H   H63       1.0  0.19540  0.03360  0.43040  1.0000 0.1287360438
H   H64       1.0  0.60320  0.76500  0.56960  1.0000 0.1287360438
H   H65       1.0  0.86550  0.46010  0.00820  1.0000 0.1287360438
H   H66       1.0  0.21010  0.70190  0.09460  1.0000 0.1287360438
H   H67       1.0  0.45190  0.85730  0.99180  1.0000 0.1287360438
H   H68       1.0  0.60730  0.11550  0.90540  1.0000 0.1287360438
H   H69       1.0  0.38450  0.89270  0.09460  1.0000 0.1287360438
H   H70       1.0  0.79810  0.28990  0.90540  1.0000 0.1287360438
H   H71       1.0  0.64270  0.04810  0.00820  1.0000 0.1287360438
H   H72       1.0  0.03990  0.63450  0.99180  1.0000 0.1287360438
H   H73       1.0  0.88450  0.78990  0.49180  1.0000 0.1287360438
H   H74       1.0  0.53990  0.54810  0.40540  1.0000 0.1287360438
H   H75       1.0  0.29810  0.39270  0.50820  1.0000 0.1287360438
H   H76       1.0  0.14270  0.13450  0.59460  1.0000 0.1287360438
H   H77       1.0  0.36550  0.35730  0.40540  1.0000 0.1287360438
H   H78       1.0  0.95190  0.96010  0.59460  1.0000 0.1287360438
H   H79       1.0  0.10730  0.20190  0.49180  1.0000 0.1287360438
H   H80       1.0  0.71010  0.61550  0.50820  1.0000 0.1287360438
H   H81       1.0  0.93200  0.49610  0.10850  1.0000 0.1217302367
H   H82       1.0  0.24610  0.63760  0.06410  1.0000 0.1217302367
H   H83       1.0  0.38760  0.82350  0.89150  1.0000 0.1217302367
H   H84       1.0  0.57350  0.18200  0.93590  1.0000 0.1217302367
H   H85       1.0  0.31800  0.92650  0.06410  1.0000 0.1217302367
H   H86       1.0  0.86240  0.25390  0.93590  1.0000 0.1217302367
H   H87       1.0  0.67650  0.11240  0.10850  1.0000 0.1217302367
H   H88       1.0  0.00390  0.56800  0.89150  1.0000 0.1217302367
H   H89       1.0  0.81800  0.75390  0.39150  1.0000 0.1217302367
H   H90       1.0  0.50390  0.61240  0.43590  1.0000 0.1217302367
H   H91       1.0  0.36240  0.42650  0.60850  1.0000 0.1217302367
H   H92       1.0  0.17650  0.06800  0.56410  1.0000 0.1217302367
H   H93       1.0  0.43200  0.32350  0.43590  1.0000 0.1217302367
H   H94       1.0  0.88760  0.99610  0.56410  1.0000 0.1217302367
H   H95       1.0  0.07350  0.13760  0.39150  1.0000 0.1217302367
H   H96       1.0  0.74610  0.68200  0.60850  1.0000 0.1217302367
H   H97       1.0  0.88560  0.55980  0.85080  1.0000 0.1217302367
H   H98       1.0  0.30980  0.95900  0.17420  1.0000 0.1217302367
H   H99       1.0  0.70900  0.03480  0.14920  1.0000 0.1217302367
H   H100      1.0  0.78480  0.13560  0.82580  1.0000 0.1217302367
H   H101      1.0  0.36440  0.71520  0.17420  1.0000 0.1217302367
H   H102      1.0  0.54100  0.19020  0.82580  1.0000 0.1217302367
H   H103      1.0  0.46520  0.79100  0.85080  1.0000 0.1217302367
H   H104      1.0  0.94020  0.61440  0.14920  1.0000 0.1217302367
H   H105      1.0  0.86440  0.69020  0.64920  1.0000 0.1217302367
H   H106      1.0  0.44020  0.29100  0.32580  1.0000 0.1217302367
H   H107      1.0  0.04100  0.21520  0.35080  1.0000 0.1217302367
H   H108      1.0  0.96520  0.11440  0.67420  1.0000 0.1217302367
H   H109      1.0  0.38560  0.53480  0.32580  1.0000 0.1217302367
H   H110      1.0  0.20900  0.05980  0.67420  1.0000 0.1217302367
H   H111      1.0  0.28480  0.45900  0.64920  1.0000 0.1217302367
H   H112      1.0  0.80980  0.63560  0.35080  1.0000 0.1217302367
H   H113      1.0  0.76300  0.42010  0.84330  1.0000 0.1287360438
H   H114      1.0  0.17010  0.82680  0.15710  1.0000 0.1287360438
H   H115      1.0  0.57680  0.91970  0.15670  1.0000 0.1287360438
H   H116      1.0  0.66970  0.01300  0.84290  1.0000 0.1287360438
H   H117      1.0  0.48700  0.83030  0.15710  1.0000 0.1287360438
H   H118      1.0  0.67320  0.32990  0.84290  1.0000 0.1287360438
H   H119      1.0  0.58030  0.92320  0.84330  1.0000 0.1287360438
H   H120      1.0  0.07990  0.73700  0.15670  1.0000 0.1287360438
H   H121      1.0  0.98700  0.82990  0.65670  1.0000 0.1287360438
H   H122      1.0  0.57990  0.42320  0.34290  1.0000 0.1287360438
H   H123      1.0  0.17320  0.33030  0.34330  1.0000 0.1287360438
H   H124      1.0  0.08030  0.23700  0.65710  1.0000 0.1287360438
H   H125      1.0  0.26300  0.41970  0.34290  1.0000 0.1287360438
H   H126      1.0  0.07680  0.92010  0.65710  1.0000 0.1287360438
H   H127      1.0  0.16970  0.32680  0.65670  1.0000 0.1287360438
H   H128      1.0  0.67010  0.51300  0.34330  1.0000 0.1287360438
H   H129      1.0  0.78580  0.36390  0.78330  1.0000 0.138223153
H   H130      1.0  0.11390  0.83060  0.07810  1.0000 0.138223153
H   H131      1.0  0.58060  0.00250  0.21670  1.0000 0.138223153
H   H132      1.0  0.75250  0.03580  0.92190  1.0000 0.138223153
H   H133      1.0  0.46420  0.74750  0.07810  1.0000 0.138223153
H   H134      1.0  0.66940  0.38610  0.92190  1.0000 0.138223153
H   H135      1.0  0.49750  0.91940  0.78330  1.0000 0.138223153
H   H136      1.0  0.13610  0.71420  0.21670  1.0000 0.138223153
H   H137      1.0  0.96420  0.88610  0.71670  1.0000 0.138223153
H   H138      1.0  0.63610  0.41940  0.42190  1.0000 0.138223153
H   H139      1.0  0.16940  0.24750  0.28330  1.0000 0.138223153
H   H140      1.0  0.99750  0.21420  0.57810  1.0000 0.138223153
H   H141      1.0  0.28580  0.50250  0.42190  1.0000 0.138223153
H   H142      1.0  0.08060  0.86390  0.57810  1.0000 0.138223153
H   H143      1.0  0.25250  0.33060  0.71670  1.0000 0.138223153
H   H144      1.0  0.61390  0.53580  0.28330  1.0000 0.138223153
H   H145      1.0  0.70430  0.36730  0.73920  1.0000 0.1217302367
H   H146      1.0  0.11730  0.87810  0.16300  1.0000 0.1217302367
H   H147      1.0  0.62810  0.96510  0.26080  1.0000 0.1217302367
H   H148      1.0  0.71510  0.95430  0.83700  1.0000 0.1217302367
H   H149      1.0  0.54570  0.78490  0.16300  1.0000 0.1217302367
H   H150      1.0  0.62190  0.38270  0.83700  1.0000 0.1217302367
H   H151      1.0  0.53490  0.87190  0.73920  1.0000 0.1217302367
H   H152      1.0  0.13270  0.79570  0.26080  1.0000 0.1217302367
H   H153      1.0  0.04570  0.88270  0.76080  1.0000 0.1217302367
H   H154      1.0  0.63270  0.37190  0.33700  1.0000 0.1217302367
H   H155      1.0  0.12190  0.28490  0.23920  1.0000 0.1217302367
H   H156      1.0  0.03490  0.29570  0.66300  1.0000 0.1217302367
H   H157      1.0  0.20430  0.46510  0.33700  1.0000 0.1217302367
H   H158      1.0  0.12810  0.86730  0.66300  1.0000 0.1217302367
H   H159      1.0  0.21510  0.37810  0.76080  1.0000 0.1217302367
H   H160      1.0  0.61730  0.45430  0.23920  1.0000 0.1217302367
H   H161      1.0  0.66130  0.44040  0.69850  1.0000 0.1217302367
H   H162      1.0  0.19040  0.99190  0.27910  1.0000 0.1217302367
H   H163      1.0  0.74190  0.96280  0.30150  1.0000 0.1217302367
H   H164      1.0  0.71280  0.91130  0.72090  1.0000 0.1217302367
H   H165      1.0  0.58870  0.78720  0.27910  1.0000 0.1217302367
H   H166      1.0  0.50810  0.30960  0.72090  1.0000 0.1217302367
H   H167      1.0  0.53720  0.75810  0.69850  1.0000 0.1217302367
H   H168      1.0  0.05960  0.83870  0.30150  1.0000 0.1217302367
H   H169      1.0  0.08870  0.80960  0.80150  1.0000 0.1217302367
H   H170      1.0  0.55960  0.25810  0.22090  1.0000 0.1217302367
H   H171      1.0  0.00810  0.28720  0.19850  1.0000 0.1217302367
H   H172      1.0  0.03720  0.33870  0.77910  1.0000 0.1217302367
H   H173      1.0  0.16130  0.46280  0.22090  1.0000 0.1217302367
H   H174      1.0  0.24190  0.94040  0.77910  1.0000 0.1217302367
H   H175      1.0  0.21280  0.49190  0.80150  1.0000 0.1217302367
H   H176      1.0  0.69040  0.41130  0.19850  1.0000 0.1217302367
H   H177      1.0  0.78610  0.58410  0.71080  1.0000 0.1287360438
H   H178      1.0  0.33410  0.12330  0.29800  1.0000 0.1287360438
H   H179      1.0  0.87330  0.07530  0.28920  1.0000 0.1287360438
H   H180      1.0  0.82530  0.03610  0.70200  1.0000 0.1287360438
H   H181      1.0  0.46390  0.67470  0.29800  1.0000 0.1287360438
H   H182      1.0  0.37670  0.16590  0.70200  1.0000 0.1287360438
H   H183      1.0  0.42470  0.62670  0.71080  1.0000 0.1287360438
H   H184      1.0  0.91590  0.71390  0.28920  1.0000 0.1287360438
H   H185      1.0  0.96390  0.66590  0.78920  1.0000 0.1287360438
H   H186      1.0  0.41590  0.12670  0.20200  1.0000 0.1287360438
H   H187      1.0  0.87670  0.17470  0.21080  1.0000 0.1287360438
H   H188      1.0  0.92470  0.21390  0.79800  1.0000 0.1287360438
H   H189      1.0  0.28610  0.57530  0.20200  1.0000 0.1287360438
H   H190      1.0  0.37330  0.08410  0.79800  1.0000 0.1287360438
H   H191      1.0  0.32530  0.62330  0.78920  1.0000 0.1287360438
H   H192      1.0  0.83410  0.53610  0.21080  1.0000 0.1287360438
H   H193      1.0  0.76070  0.63800  0.76830  1.0000 0.138223153
H   H194      1.0  0.38800  0.11970  0.37730  1.0000 0.138223153
H   H195      1.0  0.86970  0.99240  0.23170  1.0000 0.138223153
H   H196      1.0  0.74240  0.01070  0.62270  1.0000 0.138223153
H   H197      1.0  0.48930  0.75760  0.37730  1.0000 0.138223153
H   H198      1.0  0.38030  0.11200  0.62270  1.0000 0.138223153
H   H199      1.0  0.50760  0.63030  0.76830  1.0000 0.138223153
H   H200      1.0  0.86200  0.73930  0.23170  1.0000 0.138223153
H   H201      1.0  0.98930  0.61200  0.73170  1.0000 0.138223153
H   H202      1.0  0.36200  0.13030  0.12270  1.0000 0.138223153
H   H203      1.0  0.88030  0.25760  0.26830  1.0000 0.138223153
H   H204      1.0  0.00760  0.23930  0.87730  1.0000 0.138223153
H   H205      1.0  0.26070  0.49240  0.12270  1.0000 0.138223153
H   H206      1.0  0.36970  0.13800  0.87730  1.0000 0.138223153
H   H207      1.0  0.24240  0.61970  0.73170  1.0000 0.138223153
H   H208      1.0  0.88800  0.51070  0.26830  1.0000 0.138223153
H   H209      1.0  0.84260  0.63620  0.81520  1.0000 0.1217302367
H   H210      1.0  0.38620  0.07100  0.29360  1.0000 0.1217302367
H   H211      1.0  0.82100  0.02740  0.18480  1.0000 0.1217302367
H   H212      1.0  0.77740  0.09260  0.70640  1.0000 0.1217302367
H   H213      1.0  0.40740  0.72260  0.29360  1.0000 0.1217302367
H   H214      1.0  0.42900  0.11380  0.70640  1.0000 0.1217302367
H   H215      1.0  0.47260  0.67900  0.81520  1.0000 0.1217302367
H   H216      1.0  0.86380  0.65740  0.18480  1.0000 0.1217302367
H   H217      1.0  0.90740  0.61380  0.68480  1.0000 0.1217302367
H   H218      1.0  0.36380  0.17900  0.20640  1.0000 0.1217302367
H   H219      1.0  0.92900  0.22260  0.31520  1.0000 0.1217302367
H   H220      1.0  0.97260  0.15740  0.79360  1.0000 0.1217302367
H   H221      1.0  0.34260  0.52740  0.20640  1.0000 0.1217302367
H   H222      1.0  0.32100  0.13620  0.79360  1.0000 0.1217302367
H   H223      1.0  0.27740  0.57100  0.68480  1.0000 0.1217302367
H   H224      1.0  0.88620  0.59260  0.31520  1.0000 0.1217302367
C   C1        1.0  0.88742  0.33063  0.93731  1.0000 -0.1201132204
C   C2        1.0  0.08063  0.64332  0.94321  1.0000 -0.1201132204
C   C3        1.0  0.39332  0.95011  0.06269  1.0000 -0.1201132204
C   C4        1.0  0.70011  0.13742  0.05679  1.0000 -0.1201132204
C   C5        1.0  0.36258  0.79989  0.94321  1.0000 -0.1201132204
C   C6        1.0  0.85668  0.41937  0.05679  1.0000 -0.1201132204
C   C7        1.0  0.54989  0.10668  0.93731  1.0000 -0.1201132204
C   C8        1.0  0.16937  0.61258  0.06269  1.0000 -0.1201132204
C   C9        1.0  0.86258  0.91937  0.56269  1.0000 -0.1201132204
C   C10       1.0  0.66937  0.60668  0.55679  1.0000 -0.1201132204
C   C11       1.0  0.35668  0.29989  0.43731  1.0000 -0.1201132204
C   C12       1.0  0.04989  0.11258  0.44321  1.0000 -0.1201132204
C   C13       1.0  0.38742  0.45011  0.55679  1.0000 -0.1201132204
C   C14       1.0  0.89332  0.83063  0.44321  1.0000 -0.1201132204
C   C15       1.0  0.20011  0.14332  0.56269  1.0000 -0.1201132204
C   C16       1.0  0.58063  0.63742  0.43731  1.0000 -0.1201132204
C   C17       1.0  0.98950  0.38841  0.08867  1.0000 -0.1201132204
C   C18       1.0  0.13841  0.54974  0.89891  1.0000 -0.1201132204
C   C19       1.0  0.29974  0.90083  0.91133  1.0000 -0.1201132204
C   C20       1.0  0.65083  0.23950  0.10109  1.0000 -0.1148875314
C   C21       1.0  0.26050  0.84917  0.89891  1.0000 -0.1201132204
C   C22       1.0  0.95026  0.36159  0.10109  1.0000 -0.1148875314
C   C23       1.0  0.59917  0.20026  0.08867  1.0000 -0.1148875314
C   C24       1.0  0.11159  0.51050  0.91133  1.0000 -0.1201132204
C   C25       1.0  0.76050  0.86159  0.41133  1.0000 -0.1201132204
C   C26       1.0  0.61159  0.70026  0.60109  1.0000 -0.1148875314
C   C27       1.0  0.45026  0.34917  0.58867  1.0000 -0.1201132204
C   C28       1.0  0.09917  0.01050  0.39891  1.0000 -0.1148875314
C   C29       1.0  0.48950  0.40083  0.60109  1.0000 -0.1148875314
C   C30       1.0  0.79974  0.88841  0.39891  1.0000 -0.1201132204
C   C31       1.0  0.15083  0.04974  0.41133  1.0000 -0.1201132204
C   C32       1.0  0.63841  0.73950  0.58867  1.0000 -0.1148875314
C   C33       1.0  0.89857  0.45054  0.05073  1.0000 -0.1201132204
C   C34       1.0  0.20054  0.64981  0.05197  1.0000 -0.1201132204
C   C35       1.0  0.39981  0.84784  0.94927  1.0000 -0.1201132204
C   C36       1.0  0.59784  0.14857  0.94803  1.0000 -0.1201132204
C   C37       1.0  0.35143  0.90216  0.05197  1.0000 -0.1201132204
C   C38       1.0  0.85019  0.29946  0.94803  1.0000 -0.1201132204
C   C39       1.0  0.65216  0.10019  0.05073  1.0000 -0.1201132204
C   C40       1.0  0.04946  0.60143  0.94927  1.0000 -0.1201132204
C   C41       1.0  0.85143  0.79946  0.44927  1.0000 -0.1201132204
C   C42       1.0  0.54946  0.60019  0.44803  1.0000 -0.1201132204
C   C43       1.0  0.35019  0.40216  0.55073  1.0000 -0.1201132204
C   C44       1.0  0.15216  0.10143  0.55197  1.0000 -0.1201132204
C   C45       1.0  0.39857  0.34784  0.44803  1.0000 -0.1201132204
C   C46       1.0  0.89981  0.95054  0.55197  1.0000 -0.1201132204
C   C47       1.0  0.09784  0.14981  0.44927  1.0000 -0.1201132204
C   C48       1.0  0.70054  0.64857  0.55073  1.0000 -0.1201132204
C   C49       1.0  0.90149  0.47566  0.88681  1.0000 0.5897138756
C   C50       1.0  0.22566  0.83885  0.07417  1.0000 0.5897138756
C   C51       1.0  0.58885  0.01468  0.11319  1.0000 0.5897138756
C   C52       1.0  0.76468  0.15149  0.92583  1.0000 0.5897138756
C   C53       1.0  0.34851  0.73532  0.07417  1.0000 0.5897138756
C   C54       1.0  0.66115  0.27434  0.92583  1.0000 0.5897138756
C   C55       1.0  0.48532  0.91115  0.88681  1.0000 0.5897138756
C   C56       1.0  0.02434  0.59851  0.11319  1.0000 0.5897138756
C   C57       1.0  0.84851  0.77434  0.61319  1.0000 0.5897138756
C   C58       1.0  0.52434  0.41115  0.42583  1.0000 0.5897138756
C   C59       1.0  0.16115  0.23532  0.38681  1.0000 0.5897138756
C   C60       1.0  0.98532  0.09851  0.57417  1.0000 0.5897138756
C   C61       1.0  0.40149  0.51468  0.42583  1.0000 0.5897138756
C   C62       1.0  0.08885  0.97566  0.57417  1.0000 0.5897138756
C   C63       1.0  0.26468  0.33885  0.61319  1.0000 0.5897138756
C   C64       1.0  0.72566  0.65149  0.38681  1.0000 0.5897138756
C   C65       1.0  0.83337  0.48591  0.82702  1.0000 -0.0822721287
C   C66       1.0  0.23591  0.90889  0.15254  1.0000 -0.0822721287
C   C67       1.0  0.65889  0.00635  0.17298  1.0000 -0.0822721287
C   C68       1.0  0.75635  0.08337  0.84746  1.0000 -0.0822721287
C   C69       1.0  0.41663  0.74365  0.15254  1.0000 -0.0822721287
C   C70       1.0  0.59111  0.26409  0.84746  1.0000 -0.0822721287
C   C71       1.0  0.49365  0.84111  0.82702  1.0000 -0.0822721287
C   C72       1.0  0.01409  0.66667  0.17298  1.0000 -0.0822721287
C   C73       1.0  0.91663  0.76409  0.67298  1.0000 -0.0822721287
C   C74       1.0  0.51409  0.34111  0.34746  1.0000 -0.0822721287
C   C75       1.0  0.09111  0.24365  0.32702  1.0000 -0.0822721287
C   C76       1.0  0.99365  0.16663  0.65254  1.0000 -0.0822721287
C   C77       1.0  0.33337  0.50635  0.34746  1.0000 -0.0822721287
C   C78       1.0  0.15889  0.98591  0.65254  1.0000 -0.0822721287
C   C79       1.0  0.25635  0.40889  0.67298  1.0000 -0.0822721287
C   C80       1.0  0.73591  0.58337  0.32702  1.0000 -0.0822721287
C   C81       1.0  0.83942  0.53561  0.81939  1.0000 -0.1959800697
C   C82       1.0  0.28561  0.96622  0.19619  1.0000 -0.1959800697
C   C83       1.0  0.71622  0.02003  0.18061  1.0000 -0.1959800697
C   C84       1.0  0.77003  0.08942  0.80381  1.0000 -0.1959800697
C   C85       1.0  0.41058  0.72997  0.19619  1.0000 -0.1959800697
C   C86       1.0  0.53378  0.21439  0.80381  1.0000 -0.1959800697
C   C87       1.0  0.47997  0.78378  0.81939  1.0000 -0.1959800697
C   C88       1.0  0.96439  0.66058  0.18061  1.0000 -0.1959800697
C   C89       1.0  0.91058  0.71439  0.68061  1.0000 -0.1959800697
C   C90       1.0  0.46439  0.28378  0.30381  1.0000 -0.1959800697
C   C91       1.0  0.03378  0.22997  0.31939  1.0000 -0.1959800697
C   C92       1.0  0.97997  0.16058  0.69619  1.0000 -0.1959800697
C   C93       1.0  0.33942  0.52003  0.30381  1.0000 -0.1959800697
C   C94       1.0  0.21622  0.03561  0.69619  1.0000 -0.1959800697
C   C95       1.0  0.27003  0.46622  0.68061  1.0000 -0.1959800697
C   C96       1.0  0.78561  0.58942  0.31939  1.0000 -0.1959800697
C   C97       1.0  0.76541  0.44922  0.78189  1.0000 0.1713833041
C   C98       1.0  0.19922  0.91733  0.18381  1.0000 0.1713833041
C   C99       1.0  0.66733  0.98352  0.21811  1.0000 0.1713833041
C   C100      1.0  0.73352  0.01541  0.81619  1.0000 0.1713833041
C   C101      1.0  0.48459  0.76648  0.18381  1.0000 0.1713833041
C   C102      1.0  0.58267  0.30078  0.81619  1.0000 0.1713833041
C   C103      1.0  0.51648  0.83267  0.78189  1.0000 0.1713833041
C   C104      1.0  0.05078  0.73459  0.21811  1.0000 0.1713833041
C   C105      1.0  0.98459  0.80078  0.71811  1.0000 0.1713833041
C   C106      1.0  0.55078  0.33267  0.31619  1.0000 0.1713833041
C   C107      1.0  0.08267  0.26648  0.28189  1.0000 0.1713833041
C   C108      1.0  0.01648  0.23459  0.68381  1.0000 0.1713833041
C   C109      1.0  0.26541  0.48352  0.31619  1.0000 0.1713833041
C   C110      1.0  0.16733  0.94922  0.68381  1.0000 0.1713833041
C   C111      1.0  0.23352  0.41733  0.71811  1.0000 0.1713833041
C   C112      1.0  0.69922  0.51541  0.28189  1.0000 0.1713833041
C   C113      1.0  0.75360  0.39541  0.78745  1.0000 -0.4588438654
C   C114      1.0  0.14541  0.85796  0.14181  1.0000 -0.4588438654
C   C115      1.0  0.60796  0.96615  0.21255  1.0000 -0.4588438654
C   C116      1.0  0.71615  0.00360  0.85819  1.0000 -0.4588438654
C   C117      1.0  0.49640  0.78385  0.14181  1.0000 -0.4588438654
C   C118      1.0  0.64204  0.35459  0.85819  1.0000 -0.4588438654
C   C119      1.0  0.53385  0.89204  0.78745  1.0000 -0.4588438654
C   C120      1.0  0.10459  0.74640  0.21255  1.0000 -0.4588438654
C   C121      1.0  0.99640  0.85459  0.71255  1.0000 -0.4588438654
C   C122      1.0  0.60459  0.39204  0.35819  1.0000 -0.4588438654
C   C123      1.0  0.14204  0.28385  0.28745  1.0000 -0.4588438654
C   C124      1.0  0.03385  0.24640  0.64181  1.0000 -0.4588438654
C   C125      1.0  0.25360  0.46615  0.35819  1.0000 -0.4588438654
C   C126      1.0  0.10796  0.89541  0.64181  1.0000 -0.4588438654
C   C127      1.0  0.21615  0.35796  0.71255  1.0000 -0.4588438654
C   C128      1.0  0.64541  0.50360  0.28745  1.0000 -0.4588438654
C   C129      1.0  0.64501  0.52426  0.66183  1.0000 0.5971969967
C   C130      1.0  0.27426  0.11243  0.37925  1.0000 0.5971969967
C   C131      1.0  0.86243  0.98318  0.33817  1.0000 0.5971969967
C   C132      1.0  0.73318  0.89501  0.62075  1.0000 0.5971969967
C   C133      1.0  0.60499  0.76682  0.37925  1.0000 0.5971969967
C   C134      1.0  0.38757  0.22574  0.62075  1.0000 0.5971969967
C   C135      1.0  0.51682  0.63757  0.66183  1.0000 0.5971969967
C   C136      1.0  0.97574  0.85499  0.33817  1.0000 0.5971969967
C   C137      1.0  0.10499  0.72574  0.83817  1.0000 0.5971969967
C   C138      1.0  0.47574  0.13757  0.12075  1.0000 0.5971969967
C   C139      1.0  0.88757  0.26682  0.16183  1.0000 0.5971969967
C   C140      1.0  0.01682  0.35499  0.87925  1.0000 0.5971969967
C   C141      1.0  0.14501  0.48318  0.12075  1.0000 0.5971969967
C   C142      1.0  0.36243  0.02426  0.87925  1.0000 0.5971969967
C   C143      1.0  0.23318  0.61243  0.83817  1.0000 0.5971969967
C   C144      1.0  0.77426  0.39501  0.16183  1.0000 0.5971969967
C   C145      1.0  0.71339  0.51453  0.72210  1.0000 -0.0888690655
C   C146      1.0  0.26453  0.04243  0.30114  1.0000 -0.0888690655
C   C147      1.0  0.79243  0.99129  0.27790  1.0000 -0.0888690655
C   C148      1.0  0.74129  0.96339  0.69886  1.0000 -0.0888690655
C   C149      1.0  0.53661  0.75871  0.30114  1.0000 -0.0888690655
C   C150      1.0  0.45757  0.23547  0.69886  1.0000 -0.0888690655
C   C151      1.0  0.50871  0.70757  0.72210  1.0000 -0.0888690655
C   C152      1.0  0.98547  0.78661  0.27790  1.0000 -0.0888690655
C   C153      1.0  0.03661  0.73547  0.77790  1.0000 -0.0888690655
C   C154      1.0  0.48547  0.20757  0.19886  1.0000 -0.0888690655
C   C155      1.0  0.95757  0.25871  0.22210  1.0000 -0.0888690655
C   C156      1.0  0.00871  0.28661  0.80114  1.0000 -0.0888690655
C   C157      1.0  0.21339  0.49129  0.19886  1.0000 -0.0888690655
C   C158      1.0  0.29243  0.01453  0.80114  1.0000 -0.0888690655
C   C159      1.0  0.24129  0.54243  0.77790  1.0000 -0.0888690655
C   C160      1.0  0.76453  0.46339  0.22210  1.0000 -0.0888690655
C   C161      1.0  0.70746  0.46479  0.73015  1.0000 -0.1918255217
C   C162      1.0  0.21479  0.98464  0.25733  1.0000 -0.1918255217
C   C163      1.0  0.73464  0.97731  0.26985  1.0000 -0.1918255217
C   C164      1.0  0.72731  0.95746  0.74267  1.0000 -0.1918255217
C   C165      1.0  0.54254  0.77269  0.25733  1.0000 -0.1918255217
C   C166      1.0  0.51536  0.28521  0.74267  1.0000 -0.1918255217
C   C167      1.0  0.52269  0.76536  0.73015  1.0000 -0.1918255217
C   C168      1.0  0.03521  0.79254  0.26985  1.0000 -0.1918255217
C   C169      1.0  0.04254  0.78521  0.76985  1.0000 -0.1918255217
C   C170      1.0  0.53521  0.26536  0.24267  1.0000 -0.1918255217
C   C171      1.0  0.01536  0.27269  0.23015  1.0000 -0.1918255217
C   C172      1.0  0.02269  0.29254  0.75733  1.0000 -0.1918255217
C   C173      1.0  0.20746  0.47731  0.24267  1.0000 -0.1918255217
C   C174      1.0  0.23464  0.96479  0.75733  1.0000 -0.1918255217
C   C175      1.0  0.22731  0.48464  0.76985  1.0000 -0.1918255217
C   C176      1.0  0.71479  0.45746  0.23015  1.0000 -0.1918255217
C   C177      1.0  0.78099  0.55165  0.76794  1.0000 0.1713833041
C   C178      1.0  0.30165  0.03371  0.27066  1.0000 0.1713833041
C   C179      1.0  0.78371  0.01305  0.23206  1.0000 0.1713833041
C   C180      1.0  0.76305  0.03099  0.72934  1.0000 0.1713833041
C   C181      1.0  0.46901  0.73695  0.27066  1.0000 0.1713833041
C   C182      1.0  0.46629  0.19835  0.72934  1.0000 0.1713833041
C   C183      1.0  0.48695  0.71629  0.76794  1.0000 0.1713833041
C   C184      1.0  0.94835  0.71901  0.23206  1.0000 0.1713833041
C   C185      1.0  0.96901  0.69835  0.73206  1.0000 0.1713833041
C   C186      1.0  0.44835  0.21629  0.22934  1.0000 0.1713833041
C   C187      1.0  0.96629  0.23695  0.26794  1.0000 0.1713833041
C   C188      1.0  0.98695  0.21901  0.77066  1.0000 0.1713833041
C   C189      1.0  0.28099  0.51305  0.22934  1.0000 0.1713833041
C   C190      1.0  0.28371  0.05165  0.77066  1.0000 0.1713833041
C   C191      1.0  0.26305  0.53371  0.73206  1.0000 0.1713833041
C   C192      1.0  0.80165  0.53099  0.26794  1.0000 0.1713833041
C   C193      1.0  0.79369  0.60743  0.76530  1.0000 -0.4588438654
C   C194      1.0  0.35743  0.09213  0.31374  1.0000 -0.4588438654
C   C195      1.0  0.84213  0.02839  0.23470  1.0000 -0.4588438654
C   C196      1.0  0.77839  0.04369  0.68626  1.0000 -0.4588438654
C   C197      1.0  0.45631  0.72161  0.31374  1.0000 -0.4588438654
C   C198      1.0  0.40787  0.14257  0.68626  1.0000 -0.4588438654
C   C199      1.0  0.47161  0.65787  0.76530  1.0000 -0.4588438654
C   C200      1.0  0.89257  0.70631  0.23470  1.0000 -0.4588438654
C   C201      1.0  0.95631  0.64257  0.73470  1.0000 -0.4548723358
C   C202      1.0  0.39257  0.15787  0.18626  1.0000 -0.4588438654
C   C203      1.0  0.90787  0.22161  0.26530  1.0000 -0.4588438654
C   C204      1.0  0.97161  0.20631  0.81374  1.0000 -0.4588438654
C   C205      1.0  0.29369  0.52839  0.18626  1.0000 -0.4588438654
C   C206      1.0  0.34213  0.10743  0.81374  1.0000 -0.4588438654
C   C207      1.0  0.27839  0.59213  0.73470  1.0000 -0.4588438654
C   C208      1.0  0.85743  0.54369  0.26530  1.0000 -0.4588438654
N   N1        1.0  0.93914  0.40011  0.02241  1.0000 -0.0694963667
N   N2        1.0  0.15011  0.62770  0.96097  1.0000 -0.0694963667
N   N3        1.0  0.37770  0.91673  0.97759  1.0000 -0.0694963667
N   N4        1.0  0.66667  0.18914  0.03903  1.0000 -0.0694963667
N   N5        1.0  0.31086  0.83327  0.96097  1.0000 -0.0694963667
N   N6        1.0  0.87230  0.34989  0.03903  1.0000 -0.0694963667
N   N7        1.0  0.58327  0.12230  0.02241  1.0000 -0.0694963667
N   N8        1.0  0.09989  0.56086  0.97759  1.0000 -0.0694963667
N   N9        1.0  0.81086  0.84989  0.47759  1.0000 -0.0694963667
N   N10       1.0  0.59989  0.62230  0.53903  1.0000 -0.0694963667
N   N11       1.0  0.37230  0.33327  0.52241  1.0000 -0.0694963667
N   N12       1.0  0.08327  0.06086  0.46097  1.0000 -0.0694963667
N   N13       1.0  0.43914  0.41673  0.53903  1.0000 -0.0694963667
N   N14       1.0  0.87770  0.90011  0.46097  1.0000 -0.0694963667
N   N15       1.0  0.16673  0.12770  0.47759  1.0000 -0.0694963667
N   N16       1.0  0.65011  0.68914  0.52241  1.0000 -0.0694963667
O   O1        1.0  0.90170  0.46220  0.92918  1.0000 -0.5468085274
O   O2        1.0  0.21220  0.78302  0.06050  1.0000 -0.5468085274
O   O3        1.0  0.53302  0.97252  0.07082  1.0000 -0.5468085274
O   O4        1.0  0.72252  0.15170  0.93950  1.0000 -0.5468085274
O   O5        1.0  0.34830  0.77748  0.06050  1.0000 -0.5468085274
O   O6        1.0  0.71698  0.28780  0.93950  1.0000 -0.5468085274
O   O7        1.0  0.52748  0.96698  0.92918  1.0000 -0.5468085274
O   O8        1.0  0.03780  0.59830  0.07082  1.0000 -0.5468085274
O   O9        1.0  0.84830  0.78780  0.57082  1.0000 -0.5468085274
O   O10       1.0  0.53780  0.46698  0.43950  1.0000 -0.5468085274
O   O11       1.0  0.21698  0.27748  0.42918  1.0000 -0.5468085274
O   O12       1.0  0.02748  0.09830  0.56050  1.0000 -0.5468085274
O   O13       1.0  0.40170  0.47252  0.43950  1.0000 -0.5468085274
O   O14       1.0  0.03302  0.96220  0.56050  1.0000 -0.5468085274
O   O15       1.0  0.22252  0.28302  0.57082  1.0000 -0.5468085274
O   O16       1.0  0.71220  0.65170  0.42918  1.0000 -0.5468085274
O   O17       1.0  0.64530  0.54239  0.62361  1.0000 -0.5468085274
O   O18       1.0  0.29239  0.16878  0.39709  1.0000 -0.5468085274
O   O19       1.0  0.91878  0.02169  0.37639  1.0000 -0.5468085274
O   O20       1.0  0.77169  0.89530  0.60291  1.0000 -0.5468085274
O   O21       1.0  0.60470  0.72831  0.39709  1.0000 -0.5468085274
O   O22       1.0  0.33122  0.20761  0.60291  1.0000 -0.5468085274
O   O23       1.0  0.47831  0.58122  0.62361  1.0000 -0.5468085274
O   O24       1.0  0.95761  0.85470  0.37639  1.0000 -0.5468085274
O   O25       1.0  0.10470  0.70761  0.87639  1.0000 -0.5468085274
O   O26       1.0  0.45761  0.08122  0.10291  1.0000 -0.5468085274
O   O27       1.0  0.83122  0.22831  0.12361  1.0000 -0.5468085274
O   O28       1.0  0.97831  0.35470  0.89709  1.0000 -0.5468085274
O   O29       1.0  0.14530  0.52169  0.10291  1.0000 -0.5468085274
O   O30       1.0  0.41878  0.04239  0.89709  1.0000 -0.5468085274
O   O31       1.0  0.27169  0.66878  0.87639  1.0000 -0.5468085274
O   O32       1.0  0.79239  0.39530  0.12361  1.0000 -0.5468085274
O   O33       1.0  0.95358  0.48252  0.89094  1.0000 -0.562564991
O   O34       1.0  0.23252  0.84158  0.02894  1.0000 -0.562564991
O   O35       1.0  0.59158  0.06264  0.10906  1.0000 -0.562564991
O   O36       1.0  0.81264  0.20358  0.97106  1.0000 -0.562564991
O   O37       1.0  0.29642  0.68736  0.02894  1.0000 -0.562564991
O   O38       1.0  0.65842  0.26748  0.97106  1.0000 -0.562564991
O   O39       1.0  0.43736  0.90842  0.89094  1.0000 -0.562564991
O   O40       1.0  0.01748  0.54642  0.10906  1.0000 -0.562564991
O   O41       1.0  0.79642  0.76748  0.60906  1.0000 -0.562564991
O   O42       1.0  0.51748  0.40842  0.47106  1.0000 -0.562564991
O   O43       1.0  0.15842  0.18736  0.39094  1.0000 -0.562564991
O   O44       1.0  0.93736  0.04642  0.52894  1.0000 -0.562564991
O   O45       1.0  0.45358  0.56264  0.47106  1.0000 -0.562564991
O   O46       1.0  0.09158  0.98252  0.52894  1.0000 -0.562564991
O   O47       1.0  0.31264  0.34158  0.60906  1.0000 -0.562564991
O   O48       1.0  0.73252  0.70358  0.39094  1.0000 -0.562564991
O   O49       1.0  0.59156  0.51161  0.65285  1.0000 -0.5679079551
O   O50       1.0  0.26161  0.10876  0.42005  1.0000 -0.5679079551
O   O51       1.0  0.85876  0.93871  0.34715  1.0000 -0.5679079551
O   O52       1.0  0.68871  0.84156  0.57995  1.0000 -0.5679079551
O   O53       1.0  0.65844  0.81129  0.42005  1.0000 -0.5679079551
O   O54       1.0  0.39124  0.23839  0.57995  1.0000 -0.5679079551
O   O55       1.0  0.56129  0.64124  0.65285  1.0000 -0.5679079551
O   O56       1.0  0.98839  0.90844  0.34715  1.0000 -0.5679079551
O   O57       1.0  0.15844  0.73839  0.84715  1.0000 -0.5679079551
O   O58       1.0  0.48839  0.14124  0.07995  1.0000 -0.5679079551
O   O59       1.0  0.89124  0.31129  0.15285  1.0000 -0.5679079551
O   O60       1.0  0.06129  0.40844  0.92005  1.0000 -0.5679079551
O   O61       1.0  0.09156  0.43871  0.07995  1.0000 -0.5679079551
O   O62       1.0  0.35876  0.01161  0.92005  1.0000 -0.5679079551
O   O63       1.0  0.18871  0.60876  0.84715  1.0000 -0.5679079551
O   O64       1.0  0.76161  0.34156  0.15285  1.0000 -0.5679079551
