# DDEC6 charges by PACMAN v1.1 (https://github.com/mtap-research/PACMAN-charge/)
data_2013[Cd][nan]3[FSR]10
_chemical_formula_sum              "Cd4 H104 C82 N12 O16"
_cell_length_a       12.3825
_cell_length_b       13.0128
_cell_length_c       15.3729
_cell_angle_alpha    91.351
_cell_angle_beta     94.864
_cell_angle_gamma    98.73

_symmetry_space_group_name_H-M    "P 1"
_symmetry_Int_Tables_number       1

loop_
  _symmetry_equiv_pos_as_xyz
  'x, y, z'

loop_
  _atom_site_type_symbol
  _atom_site_label
  _atom_site_symmetry_multiplicity
  _atom_site_fract_x
  _atom_site_fract_y
  _atom_site_fract_z
  _atom_site_occupancy
  _atom_site_charge
Cd  Cd1       1.0  0.50831  0.61494  0.42338  1.0000 0.8815164654
Cd  Cd2       1.0  0.49169  0.38506  0.57662  1.0000 0.8815164654
Cd  Cd3       1.0  0.17616  0.80723  0.85051  1.0000 0.8074753969
Cd  Cd4       1.0  0.82384  0.19277  0.14949  1.0000 0.8074753969
H   H1        1.0  0.07310  0.74360  0.30450  1.0000 0.1397305219
H   H2        1.0  0.92690  0.25640  0.69550  1.0000 0.1397305219
H   H3        1.0  0.01080  0.81500  0.24410  1.0000 0.1215893867
H   H4        1.0  0.98920  0.18500  0.75590  1.0000 0.1215893867
H   H5        1.0  0.01280  0.82770  0.34590  1.0000 0.1397305219
H   H6        1.0  0.98720  0.17230  0.65410  1.0000 0.1397305219
H   H7        1.0  0.31470  0.02310  0.09870  1.0000 0.1484681009
H   H8        1.0  0.68530  0.97690  0.90130  1.0000 0.1484681009
H   H9        1.0  0.37830  0.11830  0.15570  1.0000 0.1290801084
H   H10       1.0  0.62170  0.88170  0.84430  1.0000 0.1290801084
H   H11       1.0  0.25480  0.11650  0.12230  1.0000 0.1397305219
H   H12       1.0  0.74520  0.88350  0.87770  1.0000 0.1397305219
H   H13       1.0  0.43680  0.05790  0.47230  1.0000 0.1290801084
H   H14       1.0  0.56320  0.94210  0.52770  1.0000 0.1290801084
H   H15       1.0  0.33180  0.01190  0.51710  1.0000 0.1215893867
H   H16       1.0  0.66820  0.98810  0.48290  1.0000 0.1215893867
H   H17       1.0  0.34330  0.12500  0.48240  1.0000 0.1484681009
H   H18       1.0  0.65670  0.87500  0.51760  1.0000 0.1484681009
H   H19       1.0  0.17050  0.91750  0.09000  1.0000 0.1215893867
H   H20       1.0  0.82950  0.08250  0.91000  1.0000 0.1215893867
H   H21       1.0  0.11080  0.82230  0.13760  1.0000 0.1215893867
H   H22       1.0  0.88920  0.17770  0.86240  1.0000 0.1215893867
H   H23       1.0  0.05700  0.09150  0.17600  1.0000 0.1215893867
H   H24       1.0  0.94300  0.90850  0.82400  1.0000 0.1215893867
H   H25       1.0  0.78400  0.95580  0.06030  1.0000 0.1290801084
H   H26       1.0  0.21600  0.04420  0.93970  1.0000 0.1290801084
H   H27       1.0  0.91150  0.82370  0.05280  1.0000 0.1397305219
H   H28       1.0  0.08850  0.17630  0.94720  1.0000 0.1397305219
H   H29       1.0  0.40170  0.20350  0.27070  1.0000 0.1215893867
H   H30       1.0  0.59830  0.79650  0.72930  1.0000 0.1215893867
H   H31       1.0  0.43510  0.18050  0.36820  1.0000 0.1215893867
H   H32       1.0  0.56490  0.81950  0.63180  1.0000 0.1215893867
H   H33       1.0  0.53720  0.98090  0.34540  1.0000 0.1397305219
H   H34       1.0  0.46280  0.01910  0.65460  1.0000 0.1397305219
H   H35       1.0  0.72110  0.99430  0.28090  1.0000 0.1290801084
H   H36       1.0  0.27890  0.00570  0.71910  1.0000 0.1290801084
H   H37       1.0  0.58700  0.24080  0.21190  1.0000 0.1215893867
H   H38       1.0  0.41300  0.75920  0.78810  1.0000 0.1215893867
H   H39       1.0  0.19000  0.92380  0.50940  1.0000 0.1215893867
H   H40       1.0  0.81000  0.07620  0.49060  1.0000 0.1215893867
H   H41       1.0  0.11620  0.83330  0.45380  1.0000 0.1290801084
H   H42       1.0  0.88380  0.16670  0.54620  1.0000 0.1215893867
H   H43       1.0  0.21770  0.74850  0.60950  1.0000 0.1397305219
H   H44       1.0  0.78230  0.25150  0.39050  1.0000 0.1397305219
H   H45       1.0  0.35460  0.63190  0.59350  1.0000 0.1290801084
H   H46       1.0  0.64540  0.36810  0.40650  1.0000 0.1290801084
H   H47       1.0  0.35290  0.78900  0.38100  1.0000 0.1290801084
H   H48       1.0  0.64710  0.21100  0.61900  1.0000 0.1290801084
H   H49       1.0  0.57070  0.65260  0.13500  1.0000 0.1022947426
H   H50       1.0  0.42930  0.34740  0.86500  1.0000 0.1022947426
H   H51       1.0  0.64960  0.81580  0.14010  1.0000 0.0823503436
H   H52       1.0  0.35040  0.18420  0.85990  1.0000 0.0823503436
H   H53       1.0  0.56200  0.85350  0.19660  1.0000 0.0932334936
H   H54       1.0  0.43800  0.14650  0.80340  1.0000 0.0932334936
H   H55       1.0  0.46820  0.89840  0.07690  1.0000 0.1070225103
H   H56       1.0  0.53180  0.10160  0.92310  1.0000 0.1070225103
H   H57       1.0  0.56160  0.86930  0.02130  1.0000 0.1022947426
H   H58       1.0  0.43840  0.13070  0.97870  1.0000 0.1022947426
H   H59       1.0  0.51620  0.72210  0.91670  1.0000 0.1215893867
H   H60       1.0  0.48380  0.27790  0.08330  1.0000 0.1215893867
H   H61       1.0  0.42810  0.62590  0.93210  1.0000 0.1290801084
H   H62       1.0  0.57190  0.37410  0.06790  1.0000 0.1290801084
H   H63       1.0  0.54130  0.64360  0.98870  1.0000 0.1290801084
H   H64       1.0  0.45870  0.35640  0.01130  1.0000 0.1290801084
H   H65       1.0  0.31880  0.56240  0.03620  1.0000 0.1397305219
H   H66       1.0  0.68120  0.43760  0.96380  1.0000 0.1397305219
H   H67       1.0  0.33530  0.53640  0.13500  1.0000 0.1290801084
H   H68       1.0  0.66470  0.46360  0.86500  1.0000 0.1290801084
H   H69       1.0  0.43210  0.53640  0.07550  1.0000 0.1215893867
H   H70       1.0  0.56790  0.46360  0.92450  1.0000 0.1215893867
H   H71       1.0  0.25750  0.72310  0.12500  1.0000 0.1290801084
H   H72       1.0  0.74250  0.27690  0.87500  1.0000 0.1290801084
H   H73       1.0  0.35060  0.79130  0.18580  1.0000 0.1215893867
H   H74       1.0  0.64940  0.20870  0.81420  1.0000 0.1215893867
H   H75       1.0  0.30810  0.67650  0.20950  1.0000 0.1215893867
H   H76       1.0  0.69190  0.32350  0.79050  1.0000 0.1215893867
H   H77       1.0  0.83000  0.53900  0.55100  1.0000 0.1070225103
H   H78       1.0  0.17000  0.46100  0.44900  1.0000 0.1070225103
H   H79       1.0  0.70780  0.46420  0.68570  1.0000 0.0932334936
H   H80       1.0  0.29220  0.53580  0.31430  1.0000 0.0932334936
H   H81       1.0  0.78210  0.40600  0.62960  1.0000 0.0823503436
H   H82       1.0  0.21790  0.59400  0.37040  1.0000 0.0823503436
H   H83       1.0  0.91130  0.44310  0.73970  1.0000 0.1022947426
H   H84       1.0  0.08870  0.55690  0.26030  1.0000 0.1022947426
H   H85       1.0  0.84820  0.52530  0.78210  1.0000 0.1022947426
H   H86       1.0  0.15180  0.47470  0.21790  1.0000 0.1022947426
H   H87       1.0  0.97210  0.47370  0.60100  1.0000 0.1215893867
H   H88       1.0  0.02790  0.52630  0.39900  1.0000 0.1215893867
H   H89       1.0  0.08310  0.54050  0.63870  1.0000 0.1290801084
H   H90       1.0  0.91690  0.45950  0.36130  1.0000 0.1290801084
H   H91       1.0  0.00770  0.58500  0.56650  1.0000 0.1215893867
H   H92       1.0  0.99230  0.41500  0.43350  1.0000 0.1215893867
H   H93       1.0  0.81930  0.73940  0.75200  1.0000 0.1215893867
H   H94       1.0  0.18070  0.26060  0.24800  1.0000 0.1215893867
H   H95       1.0  0.72070  0.71330  0.68040  1.0000 0.1215893867
H   H96       1.0  0.27930  0.28670  0.31960  1.0000 0.1215893867
H   H97       1.0  0.74720  0.62890  0.74690  1.0000 0.1215893867
H   H98       1.0  0.25280  0.37110  0.25310  1.0000 0.1290801084
H   H99       1.0  0.93330  0.71970  0.55330  1.0000 0.1215893867
H   H100      1.0  0.06670  0.28030  0.44670  1.0000 0.1215893867
H   H101      1.0  0.93500  0.79170  0.63670  1.0000 0.1215893867
H   H102      1.0  0.06500  0.20830  0.36330  1.0000 0.1215893867
H   H103      1.0  0.82840  0.76720  0.57240  1.0000 0.1290801084
H   H104      1.0  0.17160  0.23280  0.42760  1.0000 0.1290801084
C   C1        1.0  0.21500  0.93020  0.37810  1.0000 -0.0552161546
C   C2        1.0  0.78500  0.06980  0.62190  1.0000 -0.0552161546
C   C3        1.0  0.15960  0.89220  0.30030  1.0000 0.0823503436
C   C4        1.0  0.84040  0.10780  0.69970  1.0000 0.0823503436
C   C5        1.0  0.18680  0.94010  0.22410  1.0000 -0.0503130877
C   C6        1.0  0.81320  0.05990  0.77590  1.0000 -0.0503130877
C   C7        1.0  0.27370  0.02130  0.22570  1.0000 0.0823503436
C   C8        1.0  0.72630  0.97870  0.77430  1.0000 0.0823503436
C   C9        1.0  0.33210  0.06020  0.30500  1.0000 -0.043720786
C   C10       1.0  0.66790  0.93980  0.69500  1.0000 -0.043720786
C   C11       1.0  0.30270  0.01270  0.38250  1.0000 0.0823503436
C   C12       1.0  0.69730  0.98730  0.61750  1.0000 0.0823503436
C   C13       1.0  0.05420  0.81200  0.29850  1.0000 -0.4512582283
C   C14       1.0  0.94580  0.18800  0.70150  1.0000 -0.4512582283
C   C15       1.0  0.30860  0.07480  0.14290  1.0000 -0.4720257035
C   C16       1.0  0.69140  0.92520  0.85710  1.0000 -0.4720257035
C   C17       1.0  0.35900  0.05600  0.47200  1.0000 -0.45825335
C   C18       1.0  0.64100  0.94400  0.52800  1.0000 -0.45825335
C   C19       1.0  0.12590  0.89760  0.13760  1.0000 -0.1517947228
C   C20       1.0  0.87410  0.10240  0.86240  1.0000 -0.1517947228
C   C21       1.0  0.00350  0.04060  0.14820  1.0000 0.0823503436
C   C22       1.0  0.99650  0.95940  0.85180  1.0000 0.0823503436
C   C23       1.0  0.85650  0.96610  0.08430  1.0000 -0.0104981358
C   C24       1.0  0.14350  0.03390  0.91570  1.0000 -0.0104981358
C   C25       1.0  0.92520  0.88980  0.07930  1.0000 -0.1286231489
C   C26       1.0  0.07480  0.11020  0.92070  1.0000 -0.1286231489
C   C27       1.0  0.42320  0.15060  0.30910  1.0000 -0.163294992
C   C28       1.0  0.57680  0.84940  0.69090  1.0000 -0.163294992
C   C29       1.0  0.56850  0.03340  0.31130  1.0000 -0.0977189192
C   C30       1.0  0.43150  0.96660  0.68870  1.0000 -0.0977189192
C   C31       1.0  0.67220  0.04190  0.27490  1.0000 -0.0252351282
C   C32       1.0  0.32780  0.95810  0.72510  1.0000 -0.0246499577
C   C33       1.0  0.59730  0.17820  0.23670  1.0000 0.0560548319
C   C34       1.0  0.40270  0.82180  0.76330  1.0000 0.0560548319
C   C35       1.0  0.18960  0.87250  0.46260  1.0000 -0.1445068703
C   C36       1.0  0.81040  0.12750  0.53740  1.0000 -0.1445068703
C   C37       1.0  0.26210  0.74540  0.56400  1.0000 -0.0977189192
C   C38       1.0  0.73790  0.25460  0.43600  1.0000 -0.0977189192
C   C39       1.0  0.34120  0.68280  0.55420  1.0000 -0.0104981358
C   C40       1.0  0.65880  0.31720  0.44580  1.0000 -0.0104981358
C   C41       1.0  0.34110  0.76880  0.43750  1.0000 -0.0104981358
C   C42       1.0  0.65890  0.23120  0.56250  1.0000 -0.0104981358
C   C43       1.0  0.52320  0.67360  0.25740  1.0000 0.5527725308
C   C44       1.0  0.47680  0.32640  0.74260  1.0000 0.5527725308
C   C45       1.0  0.52630  0.69820  0.16250  1.0000 -0.1751057119
C   C46       1.0  0.47370  0.30180  0.83750  1.0000 -0.1707311363
C   C47       1.0  0.57170  0.80950  0.14700  1.0000 -0.1707311363
C   C48       1.0  0.42830  0.19050  0.85300  1.0000 -0.1707311363
C   C49       1.0  0.51070  0.84420  0.06340  1.0000 -0.215852371
C   C50       1.0  0.48930  0.15580  0.93660  1.0000 -0.215852371
C   C51       1.0  0.43570  0.74400  0.02920  1.0000 0.0411055959
C   C52       1.0  0.56430  0.25600  0.97080  1.0000 0.0411055959
C   C53       1.0  0.40860  0.68430  0.11070  1.0000 0.2041994869
C   C54       1.0  0.59140  0.31570  0.88930  1.0000 0.2041994869
C   C55       1.0  0.33420  0.76240  0.97140  1.0000 0.5267139761
C   C56       1.0  0.66580  0.23760  0.02860  1.0000 0.5267139761
C   C57       1.0  0.48520  0.67730  0.95990  1.0000 -0.4512582283
C   C58       1.0  0.51480  0.32270  0.04010  1.0000 -0.4512582283
C   C59       1.0  0.37020  0.56920  0.08720  1.0000 -0.45825335
C   C60       1.0  0.62980  0.43080  0.91280  1.0000 -0.45825335
C   C61       1.0  0.32350  0.72220  0.16250  1.0000 -0.4720257035
C   C62       1.0  0.67650  0.27780  0.83750  1.0000 -0.4720257035
C   C63       1.0  0.67810  0.57790  0.53240  1.0000 0.5527725308
C   C64       1.0  0.32190  0.42210  0.46760  1.0000 0.5527725308
C   C65       1.0  0.77970  0.55820  0.59230  1.0000 -0.1707311363
C   C66       1.0  0.22030  0.44180  0.40770  1.0000 -0.1707311363
C   C67       1.0  0.77640  0.47170  0.65870  1.0000 -0.2010520087
C   C68       1.0  0.22360  0.52830  0.34130  1.0000 -0.2010520087
C   C69       1.0  0.87320  0.50180  0.72800  1.0000 -0.2260181368
C   C70       1.0  0.12680  0.49820  0.27200  1.0000 -0.2260181368
C   C71       1.0  0.94860  0.59040  0.68860  1.0000 0.0500720014
C   C72       1.0  0.05140  0.40960  0.31140  1.0000 0.0500720014
C   C73       1.0  0.85070  0.64270  0.65130  1.0000 0.1675315737
C   C74       1.0  0.14930  0.35730  0.34870  1.0000 0.1675315737
C   C75       1.0  0.01990  0.67340  0.74700  1.0000 0.4817959754
C   C76       1.0  0.98010  0.32660  0.25300  1.0000 0.4817959754
C   C77       1.0  0.00860  0.54290  0.61690  1.0000 -0.4417507411
C   C78       1.0  0.99140  0.45710  0.38310  1.0000 -0.4417507411
C   C79       1.0  0.77350  0.68300  0.71270  1.0000 -0.4512582283
C   C80       1.0  0.22650  0.31700  0.28730  1.0000 -0.4512582283
C   C81       1.0  0.89070  0.73960  0.59830  1.0000 -0.45825335
C   C82       1.0  0.10930  0.26040  0.40170  1.0000 -0.45825335
N   N1        1.0  0.01900  0.94180  0.12530  1.0000 0.0500720014
N   N2        1.0  0.98100  0.05820  0.87470  1.0000 0.0500720014
N   N3        1.0  0.90310  0.05250  0.12530  1.0000 -0.2742371471
N   N4        1.0  0.09690  0.94750  0.87470  1.0000 -0.27545788
N   N5        1.0  0.52490  0.12170  0.28400  1.0000 0.0411055959
N   N6        1.0  0.47510  0.87830  0.71600  1.0000 0.0411055959
N   N7        1.0  0.68720  0.13180  0.22980  1.0000 -0.3136454211
N   N8        1.0  0.31280  0.86820  0.77020  1.0000 -0.3136454211
N   N9        1.0  0.26520  0.80160  0.49030  1.0000 0.0500720014
N   N10       1.0  0.73480  0.19840  0.50970  1.0000 0.0500720014
N   N11       1.0  0.39560  0.70040  0.48590  1.0000 -0.3136454211
N   N12       1.0  0.60440  0.29960  0.51410  1.0000 -0.3136454211
O   O1        1.0  0.52940  0.74560  0.31180  1.0000 -0.5266937823
O   O2        1.0  0.47060  0.25440  0.68820  1.0000 -0.5266937823
O   O3        1.0  0.50270  0.58340  0.28240  1.0000 -0.5132712038
O   O4        1.0  0.49730  0.41660  0.71760  1.0000 -0.5132712038
O   O5        1.0  0.28420  0.69620  0.91840  1.0000 -0.4889315279
O   O6        1.0  0.71580  0.30380  0.08160  1.0000 -0.4889315279
O   O7        1.0  0.29940  0.84760  0.98010  1.0000 -0.5537843318
O   O8        1.0  0.70060  0.15240  0.01990  1.0000 -0.5537843318
O   O9        1.0  0.58570  0.55070  0.55570  1.0000 -0.5266937823
O   O10       1.0  0.41430  0.44930  0.44430  1.0000 -0.5266937823
O   O11       1.0  0.68920  0.62760  0.46610  1.0000 -0.4989809604
O   O12       1.0  0.31080  0.37240  0.53390  1.0000 -0.4989809604
O   O13       1.0  0.09250  0.72680  0.72320  1.0000 -0.4084277065
O   O14       1.0  0.90750  0.27320  0.27680  1.0000 -0.4084277065
O   O15       1.0  0.01440  0.69480  0.82790  1.0000 -0.4720257035
O   O16       1.0  0.98560  0.30520  0.17210  1.0000 -0.4720257035
