# DDEC6 charges by PACMAN v1.1 (https://github.com/mtap-research/PACMAN-charge/)
data_2013[CdSi][flu]3[FSR]1
_chemical_formula_sum              "Cd4 Si2 H72 C74 N4 O22"
_cell_length_a       13.9817
_cell_length_b       14.1817
_cell_length_c       14.27
_cell_angle_alpha    115.922
_cell_angle_beta     113.196
_cell_angle_gamma    97.144

_symmetry_space_group_name_H-M    "P 1"
_symmetry_Int_Tables_number       1

loop_
  _symmetry_equiv_pos_as_xyz
  'x, y, z'

loop_
  _atom_site_type_symbol
  _atom_site_label
  _atom_site_symmetry_multiplicity
  _atom_site_fract_x
  _atom_site_fract_y
  _atom_site_fract_z
  _atom_site_occupancy
  _atom_site_charge
Cd  Cd1       1.0  0.50489  0.38427  0.18529  1.0000 0.9808358964
Cd  Cd2       1.0  0.49511  0.61573  0.81471  1.0000 0.9808358964
Cd  Cd3       1.0  0.50000  0.50000  0.00000  1.0000 1.1283571538
Cd  Cd4       1.0  1.00000  0.50000  0.50000  1.0000 1.1079906043
Si  Si1       1.0  0.76388  0.14398  0.67870  1.0000 0.6560705718
Si  Si2       1.0  0.23612  0.85602  0.32130  1.0000 0.6549618062
H   H1        1.0  0.68440  0.74100  0.53310  1.0000 0.1217403298
H   H2        1.0  0.31560  0.25900  0.46690  1.0000 0.1217403298
H   H3        1.0  0.75920  0.93220  0.68030  1.0000 0.1105570044
H   H4        1.0  0.24080  0.06780  0.31970  1.0000 0.1105570044
H   H5        1.0  0.55010  0.08210  0.86530  1.0000 0.1217403298
H   H6        1.0  0.44990  0.91790  0.13470  1.0000 0.1217403298
H   H7        1.0  0.13210  0.43130  0.90170  1.0000 0.1217403298
H   H8        1.0  0.86790  0.56870  0.09830  1.0000 0.1217403298
H   H9        1.0  0.56690  0.19980  0.58260  1.0000 0.1105570044
H   H10       1.0  0.43310  0.80020  0.41740  1.0000 0.1105570044
H   H11       1.0  0.13950  0.14210  0.88980  1.0000 0.1217403298
H   H12       1.0  0.86050  0.85790  0.11020  1.0000 0.1217403298
H   H13       1.0  0.61980  0.02380  0.73330  1.0000 0.1105570044
H   H14       1.0  0.38020  0.97620  0.26670  1.0000 0.1105570044
H   H15       1.0  0.78370  0.29870  0.43780  1.0000 0.1105570044
H   H16       1.0  0.21630  0.70130  0.56220  1.0000 0.1105570044
H   H17       1.0  0.57060  0.81250  0.27300  1.0000 0.1105570044
H   H18       1.0  0.42940  0.18750  0.72700  1.0000 0.1105570044
H   H19       1.0  0.64230  0.00270  0.41940  1.0000 0.1105570044
H   H20       1.0  0.35770  0.99730  0.58060  1.0000 0.1105570044
H   H21       1.0  0.94610  0.06240  0.76910  1.0000 0.1105570044
H   H22       1.0  0.05390  0.93760  0.23090  1.0000 0.1105570044
H   H23       1.0  0.49720  0.25860  0.44910  1.0000 0.1105570044
H   H24       1.0  0.50280  0.74140  0.55090  1.0000 0.1105570044
H   H25       1.0  0.70340  0.40690  0.98850  1.0000 0.1217403298
H   H26       1.0  0.29660  0.59310  0.01150  1.0000 0.1217403298
H   H27       1.0  0.77970  0.34930  0.86340  1.0000 0.1105570044
H   H28       1.0  0.22030  0.65070  0.13660  1.0000 0.1105570044
H   H29       1.0  0.85260  0.23870  0.57010  1.0000 0.1105570044
H   H30       1.0  0.14740  0.76130  0.42990  1.0000 0.1105570044
H   H31       1.0  0.93860  0.35710  0.79630  1.0000 0.1029110667
H   H32       1.0  0.06140  0.64290  0.20370  1.0000 0.1029110667
H   H33       1.0  0.30120  0.43350  0.46470  1.0000 0.1410866831
H   H34       1.0  0.69880  0.56650  0.53530  1.0000 0.1410866831
H   H35       1.0  0.36540  0.49020  0.42040  1.0000 0.1410866831
H   H36       1.0  0.63460  0.50980  0.57960  1.0000 0.1410866831
H   H37       1.0  0.31430  0.35630  0.35190  1.0000 0.1410866831
H   H38       1.0  0.68570  0.64370  0.64810  1.0000 0.1410866831
H   H39       1.0  0.82730  0.52200  0.27160  1.0000 0.1601623263
H   H40       1.0  0.17270  0.47800  0.72840  1.0000 0.1601623263
H   H41       1.0  0.79330  0.62040  0.25670  1.0000 0.1601623263
H   H42       1.0  0.20670  0.37960  0.74330  1.0000 0.1601623263
H   H43       1.0  0.76400  0.58460  0.33690  1.0000 0.1713205096
H   H44       1.0  0.23600  0.41540  0.66310  1.0000 0.1713205096
H   H45       1.0  0.00740  0.50350  0.25790  1.0000 0.1410866831
H   H46       1.0  0.99260  0.49650  0.74210  1.0000 0.1410866831
H   H47       1.0  0.95330  0.36960  0.19400  1.0000 0.1288445613
H   H48       1.0  0.04670  0.63040  0.80600  1.0000 0.1288445613
H   H49       1.0  0.08410  0.83410  0.62190  1.0000 0.1288445613
H   H50       1.0  0.91590  0.16590  0.37810  1.0000 0.1288445613
H   H51       1.0  0.03230  0.93010  0.63090  1.0000 0.1288445613
H   H52       1.0  0.96770  0.06990  0.36910  1.0000 0.1288445613
H   H53       1.0  0.10430  0.90490  0.56530  1.0000 0.1288445613
H   H54       1.0  0.89570  0.09510  0.43470  1.0000 0.1288445613
H   H55       1.0  0.81300  0.77550  0.33270  1.0000 0.1288445613
H   H56       1.0  0.18700  0.22450  0.66730  1.0000 0.1288445613
H   H57       1.0  0.92140  0.87890  0.38820  1.0000 0.1288445613
H   H58       1.0  0.07860  0.12110  0.61180  1.0000 0.1217403298
H   H59       1.0  0.85750  0.88630  0.46130  1.0000 0.1217403298
H   H60       1.0  0.14250  0.11370  0.53870  1.0000 0.1217403298
H   H61       1.0  0.01430  0.34300  0.06610  1.0000 0.1105570044
H   H62       1.0  0.98570  0.65700  0.93390  1.0000 0.1105570044
H   H63       1.0  0.06790  0.47650  0.12960  1.0000 0.090530042
H   H64       1.0  0.93210  0.52350  0.87040  1.0000 0.090530042
H   H65       1.0  0.17930  0.33730  0.14690  1.0000 0.1105570044
H   H66       1.0  0.82070  0.66270  0.85310  1.0000 0.1105570044
H   H67       1.0  0.23300  0.47110  0.21090  1.0000 0.1105570044
H   H68       1.0  0.76700  0.52890  0.78910  1.0000 0.1105570044
H   H69       1.0  0.83900  0.29800  0.26900  1.0000 0.3836017963
H   H70       1.0  0.16100  0.70200  0.73100  1.0000 0.3836017963
H   H71       1.0  0.77320  0.35500  0.30900  1.0000 0.3948694285
H   H72       1.0  0.22680  0.64500  0.69100  1.0000 0.3948694285
C   C1        1.0  0.70690  0.18020  0.78370  1.0000 -0.2195908212
C   C2        1.0  0.29310  0.81980  0.21630  1.0000 -0.2195908212
C   C3        1.0  0.92050  0.20090  0.76880  1.0000 -0.2195908212
C   C4        1.0  0.07950  0.79910  0.23120  1.0000 -0.2195908212
C   C5        1.0  0.58640  0.31990  0.34170  1.0000 0.5535841998
C   C6        1.0  0.41360  0.68010  0.65830  1.0000 0.5535841998
C   C7        1.0  0.61820  0.25000  0.93750  1.0000 -0.0107489755
C   C8        1.0  0.38180  0.75000  0.06250  1.0000 -0.0107489755
C   C9        1.0  0.71730  0.21160  0.59020  1.0000 -0.2195908212
C   C10       1.0  0.28270  0.78840  0.40980  1.0000 -0.2195908212
C   C11       1.0  0.61960  0.75810  0.38840  1.0000 -0.0188760549
C   C12       1.0  0.38040  0.24190  0.61160  1.0000 -0.0188760549
C   C13       1.0  0.56660  0.28720  0.01560  1.0000 0.5736293611
C   C14       1.0  0.43340  0.71280  0.98440  1.0000 0.5736293611
C   C15       1.0  0.67600  0.79430  0.51000  1.0000 -0.1020657491
C   C16       1.0  0.32400  0.20570  0.49000  1.0000 -0.1020657491
C   C17       1.0  0.72020  0.90840  0.59770  1.0000 -0.0922887234
C   C18       1.0  0.27980  0.09160  0.40230  1.0000 -0.0922887234
C   C19       1.0  0.59510  0.13620  0.86320  1.0000 -0.1020657491
C   C20       1.0  0.40490  0.86380  0.13680  1.0000 -0.1020657491
C   C21       1.0  0.70820  0.98890  0.56640  1.0000 -0.2268129546
C   C22       1.0  0.29180  0.01110  0.43360  1.0000 -0.2268129546
C   C23       1.0  0.09450  0.35700  0.87700  1.0000 -0.1067940701
C   C24       1.0  0.90550  0.64300  0.12300  1.0000 -0.1067940701
C   C25       1.0  0.61110  0.21910  0.55290  1.0000 -0.080279628
C   C26       1.0  0.38890  0.78090  0.44710  1.0000 -0.080279628
C   C27       1.0  0.09890  0.18500  0.86800  1.0000 -0.1186252195
C   C28       1.0  0.90110  0.81500  0.13200  1.0000 -0.1186252195
C   C29       1.0  0.63790  0.10170  0.78560  1.0000 -0.080279628
C   C30       1.0  0.36210  0.89830  0.21440  1.0000 -0.080279628
C   C31       1.0  0.73910  0.27790  0.46640  1.0000 -0.1020657491
C   C32       1.0  0.26090  0.72210  0.53360  1.0000 -0.1020657491
C   C33       1.0  0.28130  0.34400  0.97830  1.0000 0.5777220544
C   C34       1.0  0.71870  0.65600  0.02170  1.0000 0.5777220544
C   C35       1.0  0.60820  0.83660  0.35580  1.0000 -0.0922887234
C   C36       1.0  0.39180  0.16340  0.64420  1.0000 -0.0922887234
C   C37       1.0  0.57000  0.63550  0.29060  1.0000 0.5777220544
C   C38       1.0  0.43000  0.36450  0.70940  1.0000 0.5777220544
C   C39       1.0  0.15560  0.29400  0.90620  1.0000 -0.0107489755
C   C40       1.0  0.84440  0.70600  0.09380  1.0000 -0.0107489755
C   C41       1.0  0.65140  0.95010  0.44330  1.0000 -0.080279628
C   C42       1.0  0.34860  0.04990  0.55670  1.0000 -0.080279628
C   C43       1.0  0.98320  0.13820  0.79780  1.0000 -0.080279628
C   C44       1.0  0.01680  0.86180  0.20220  1.0000 -0.080279628
C   C45       1.0  0.63260  0.28310  0.42870  1.0000 -0.0107489755
C   C46       1.0  0.36740  0.71690  0.57130  1.0000 -0.0107489755
C   C47       1.0  0.56940  0.25420  0.47330  1.0000 -0.1067940701
C   C48       1.0  0.43060  0.74580  0.52670  1.0000 -0.1067940701
C   C49       1.0  0.68690  0.32920  0.93730  1.0000 -0.1020657491
C   C50       1.0  0.31310  0.67080  0.06270  1.0000 -0.1020657491
C   C51       1.0  0.73150  0.29450  0.86190  1.0000 -0.080279628
C   C52       1.0  0.26850  0.70550  0.13810  1.0000 -0.080279628
C   C53       1.0  0.78010  0.24230  0.54550  1.0000 -0.080279628
C   C54       1.0  0.21990  0.75770  0.45450  1.0000 -0.080279628
C   C55       1.0  0.97910  0.31170  0.81200  1.0000 -0.0922887234
C   C56       1.0  0.02090  0.68830  0.18800  1.0000 -0.0922887234
C   C57       1.0  0.92890  0.67870  0.42100  1.0000 0.5342145678
C   C58       1.0  0.07110  0.32130  0.57900  1.0000 0.5342145678
C   C59       1.0  0.11630  0.43820  0.33580  1.0000 0.476593357
C   C60       1.0  0.88370  0.56180  0.66420  1.0000 0.476593357
C   C61       1.0  0.30350  0.42640  0.39420  1.0000 -0.3250379447
C   C62       1.0  0.69650  0.57360  0.60580  1.0000 -0.3248029235
C   C63       1.0  0.81890  0.59410  0.31210  1.0000 -0.6142285648
C   C64       1.0  0.18110  0.40590  0.68790  1.0000 -0.6142285648
C   C65       1.0  0.02240  0.43260  0.23140  1.0000 -0.337454069
C   C66       1.0  0.97760  0.56740  0.76860  1.0000 -0.337454069
C   C67       1.0  0.05100  0.87120  0.58040  1.0000 -0.337454069
C   C68       1.0  0.94900  0.12880  0.41960  1.0000 -0.337454069
C   C69       1.0  0.87970  0.83630  0.40720  1.0000 -0.337454069
C   C70       1.0  0.12030  0.16370  0.59280  1.0000 -0.337454069
C   C71       1.0  0.06470  0.41440  0.14410  1.0000 -0.1666526008
C   C72       1.0  0.93530  0.58560  0.85590  1.0000 -0.1666526008
C   C73       1.0  0.17710  0.41040  0.19900  1.0000 -0.1067940701
C   C74       1.0  0.82290  0.58960  0.80100  1.0000 -0.1067940701
N   N1        1.0  0.19970  0.42550  0.31400  1.0000 -0.0391283814
N   N2        1.0  0.80030  0.57450  0.68600  1.0000 -0.0391283814
N   N3        1.0  0.94980  0.78880  0.46590  1.0000 -0.0188760549
N   N4        1.0  0.05020  0.21120  0.53410  1.0000 -0.0188760549
O   O1        1.0  0.57825  0.39172  0.06922  1.0000 -0.6047876064
O   O2        1.0  0.42175  0.60828  0.93078  1.0000 -0.6047876064
O   O3        1.0  0.51670  0.21903  0.02840  1.0000 -0.5089337114
O   O4        1.0  0.48330  0.78097  0.97160  1.0000 -0.5089337114
O   O5        1.0  0.56500  0.56517  0.32140  1.0000 -0.539849538
O   O6        1.0  0.43500  0.43483  0.67860  1.0000 -0.539849538
O   O7        1.0  0.32815  0.40300  0.95360  1.0000 -0.5704213364
O   O8        1.0  0.67185  0.59700  0.04640  1.0000 -0.5704213364
O   O9        1.0  0.64816  0.35210  0.30820  1.0000 -0.5565155331
O   O10       1.0  0.35184  0.64790  0.69180  1.0000 -0.5565155331
O   O11       1.0  0.32623  0.32090  0.05710  1.0000 -0.5512371543
O   O12       1.0  0.67377  0.67910  0.94290  1.0000 -0.5512371543
O   O13       1.0  0.48809  0.31840  0.30420  1.0000 -0.539849538
O   O14       1.0  0.51191  0.68160  0.69580  1.0000 -0.539849538
O   O15       1.0  0.53860  0.61380  0.18640  1.0000 -0.5704213364
O   O16       1.0  0.46140  0.38620  0.81360  1.0000 -0.5704213364
O   O17       1.0  0.84655  0.37370  0.31960  1.0000 -0.7307288233
O   O18       1.0  0.15345  0.62630  0.68040  1.0000 -0.7307288233
O   O19       1.0  0.00110  0.64740  0.47200  1.0000 -0.5704213364
O   O20       1.0  0.99890  0.35260  0.52800  1.0000 -0.5704213364
O   O21       1.0  0.11540  0.44780  0.42650  1.0000 -0.5512371543
O   O22       1.0  0.88460  0.55220  0.57350  1.0000 -0.5512371543
