# DDEC6 charges by PACMAN v1.1 (https://github.com/mtap-research/PACMAN-charge/)
data_2013[Cu][dia]3[FSR]1
_chemical_formula_sum              "Cu4 H52 C64 N28 O32"
_cell_length_a       5.7467
_cell_length_b       17.9631
_cell_length_c       20.3944
_cell_angle_alpha    90
_cell_angle_beta     90
_cell_angle_gamma    90

_symmetry_space_group_name_H-M    "P 1"
_symmetry_Int_Tables_number       1

loop_
  _symmetry_equiv_pos_as_xyz
  'x, y, z'

loop_
  _atom_site_type_symbol
  _atom_site_label
  _atom_site_symmetry_multiplicity
  _atom_site_fract_x
  _atom_site_fract_y
  _atom_site_fract_z
  _atom_site_occupancy
  _atom_site_charge
Cu  Cu1       1.0  0.64423  0.99617  0.79151  1.0000 0.7651590938
Cu  Cu2       1.0  0.85577  0.00383  0.29151  1.0000 0.7651590938
Cu  Cu3       1.0  0.35577  0.49617  0.70849  1.0000 0.7651590938
Cu  Cu4       1.0  0.14423  0.50383  0.20849  1.0000 0.7651590938
H   H1        1.0  0.18980  0.93840  0.55750  1.0000 0.3744890029
H   H2        1.0  0.31020  0.06160  0.05750  1.0000 0.3744890029
H   H3        1.0  0.81020  0.43840  0.94250  1.0000 0.3744890029
H   H4        1.0  0.68980  0.56160  0.44250  1.0000 0.3744890029
H   H5        1.0  0.47200  0.13320  0.43460  1.0000 0.1286187584
H   H6        1.0  0.02800  0.86680  0.93460  1.0000 0.1286187584
H   H7        1.0  0.52800  0.63320  0.06540  1.0000 0.1286187584
H   H8        1.0  0.97200  0.36680  0.56540  1.0000 0.1286187584
H   H9        1.0  0.37100  0.12400  0.62860  1.0000 0.1286187584
H   H10       1.0  0.12900  0.87600  0.12860  1.0000 0.1286187584
H   H11       1.0  0.62900  0.62400  0.87140  1.0000 0.1286187584
H   H12       1.0  0.87100  0.37600  0.37140  1.0000 0.1286187584
H   H13       1.0  0.42860  0.84750  0.85550  1.0000 0.1188928733
H   H14       1.0  0.07140  0.15250  0.35550  1.0000 0.1188928733
H   H15       1.0  0.57140  0.34750  0.64450  1.0000 0.1188928733
H   H16       1.0  0.92860  0.65250  0.14450  1.0000 0.1188928733
H   H17       1.0  0.23870  0.94510  0.69480  1.0000 0.1286187584
H   H18       1.0  0.26130  0.05490  0.19480  1.0000 0.1286187584
H   H19       1.0  0.76130  0.44510  0.80520  1.0000 0.1286187584
H   H20       1.0  0.73870  0.55490  0.30520  1.0000 0.1286187584
H   H21       1.0  0.08850  0.76340  0.66690  1.0000 0.112281681
H   H22       1.0  0.41150  0.23660  0.16690  1.0000 0.112281681
H   H23       1.0  0.91150  0.26340  0.83310  1.0000 0.112281681
H   H24       1.0  0.58850  0.73660  0.33310  1.0000 0.112281681
H   H25       1.0  0.00350  0.84160  0.64270  1.0000 0.1286187584
H   H26       1.0  0.49650  0.15840  0.14270  1.0000 0.1286187584
H   H27       1.0  0.99650  0.34160  0.85730  1.0000 0.1286187584
H   H28       1.0  0.50350  0.65840  0.35730  1.0000 0.1286187584
H   H29       1.0  0.70220  0.83480  0.72390  1.0000 0.112281681
H   H30       1.0  0.79780  0.16520  0.22390  1.0000 0.112281681
H   H31       1.0  0.29780  0.33480  0.77610  1.0000 0.112281681
H   H32       1.0  0.20220  0.66520  0.27610  1.0000 0.112281681
H   H33       1.0  0.67370  0.77950  0.66520  1.0000 0.1188928733
H   H34       1.0  0.82630  0.22050  0.16520  1.0000 0.1188928733
H   H35       1.0  0.32630  0.27950  0.83480  1.0000 0.1188928733
H   H36       1.0  0.17370  0.72050  0.33480  1.0000 0.1188928733
H   H37       1.0  0.82680  0.73960  0.79190  1.0000 0.1188928733
H   H38       1.0  0.67320  0.26040  0.29190  1.0000 0.1188928733
H   H39       1.0  0.17320  0.23960  0.70810  1.0000 0.1188928733
H   H40       1.0  0.32680  0.76040  0.20810  1.0000 0.1188928733
H   H41       1.0  0.58720  0.71680  0.76090  1.0000 0.1188928733
H   H42       1.0  0.91280  0.28320  0.26090  1.0000 0.1188928733
H   H43       1.0  0.41280  0.21680  0.73910  1.0000 0.1188928733
H   H44       1.0  0.08720  0.78320  0.23910  1.0000 0.1188928733
H   H45       1.0  0.14740  0.64140  0.77510  1.0000 0.1286187584
H   H46       1.0  0.35260  0.35860  0.27510  1.0000 0.1286187584
H   H47       1.0  0.85260  0.14140  0.72490  1.0000 0.1286187584
H   H48       1.0  0.64740  0.85860  0.22490  1.0000 0.1286187584
H   H49       1.0  0.88540  0.53600  0.62640  1.0000 0.1188928733
H   H50       1.0  0.61460  0.46400  0.12640  1.0000 0.1188928733
H   H51       1.0  0.11460  0.03600  0.87360  1.0000 0.1188928733
H   H52       1.0  0.38540  0.96400  0.37360  1.0000 0.1188928733
C   C1        1.0  0.61610  0.05116  0.59707  1.0000 -0.0420156745
C   C2        1.0  0.88390  0.94884  0.09707  1.0000 -0.0420156745
C   C3        1.0  0.38390  0.55116  0.90293  1.0000 -0.0420156745
C   C4        1.0  0.11610  0.44884  0.40293  1.0000 -0.0420156745
C   C5        1.0  0.73330  0.02623  0.54076  1.0000 -0.0230572239
C   C6        1.0  0.76670  0.97377  0.04076  1.0000 -0.0230572239
C   C7        1.0  0.26670  0.52623  0.95924  1.0000 -0.0230572239
C   C8        1.0  0.23330  0.47377  0.45924  1.0000 -0.0230572239
C   C9        1.0  0.67880  0.05796  0.47982  1.0000 -0.0230572239
C   C10       1.0  0.82120  0.94204  0.97982  1.0000 -0.025373607
C   C11       1.0  0.32120  0.55796  0.02018  1.0000 -0.0230572239
C   C12       1.0  0.17880  0.44204  0.52018  1.0000 -0.0230572239
C   C13       1.0  0.50860  0.11230  0.47500  1.0000 -0.1216138406
C   C14       1.0  0.99140  0.88770  0.97500  1.0000 -0.1216138406
C   C15       1.0  0.49140  0.61230  0.02500  1.0000 -0.1216138406
C   C16       1.0  0.00860  0.38770  0.52500  1.0000 -0.1216138406
C   C17       1.0  0.39480  0.13472  0.53067  1.0000 0.0661470378
C   C18       1.0  0.10520  0.86528  0.03067  1.0000 0.0661470378
C   C19       1.0  0.60520  0.63472  0.96933  1.0000 0.0661470378
C   C20       1.0  0.89480  0.36528  0.46933  1.0000 0.0661470378
C   C21       1.0  0.44740  0.10643  0.59151  1.0000 -0.1368620889
C   C22       1.0  0.05260  0.89357  0.09151  1.0000 -0.1368620889
C   C23       1.0  0.55260  0.60643  0.90849  1.0000 -0.1368620889
C   C24       1.0  0.94740  0.39357  0.40849  1.0000 -0.1368620889
C   C25       1.0  0.66060  0.01853  0.66372  1.0000 0.5285532111
C   C26       1.0  0.83940  0.98147  0.16372  1.0000 0.5285532111
C   C27       1.0  0.33940  0.51853  0.83628  1.0000 0.5285532111
C   C28       1.0  0.16060  0.48147  0.33628  1.0000 0.5285532111
C   C29       1.0  0.89540  0.96024  0.54442  1.0000 0.5818646336
C   C30       1.0  0.60460  0.03976  0.04442  1.0000 0.5818646336
C   C31       1.0  0.10460  0.46024  0.95558  1.0000 0.5818646336
C   C32       1.0  0.39540  0.53976  0.45558  1.0000 0.5818646336
C   C33       1.0  0.80040  0.03224  0.41797  1.0000 0.5364380116
C   C34       1.0  0.69960  0.96776  0.91797  1.0000 0.5364380116
C   C35       1.0  0.19960  0.53224  0.08203  1.0000 0.5364380116
C   C36       1.0  0.30040  0.46776  0.58203  1.0000 0.5364380116
C   C37       1.0  0.35790  0.85670  0.81526  1.0000 0.1528914282
C   C38       1.0  0.14210  0.14330  0.31526  1.0000 0.1528914282
C   C39       1.0  0.64210  0.35670  0.68474  1.0000 0.1528914282
C   C40       1.0  0.85790  0.64330  0.18474  1.0000 0.1528914282
C   C41       1.0  0.25710  0.91079  0.72854  1.0000 0.0962030375
C   C42       1.0  0.24290  0.08921  0.22854  1.0000 0.0962030375
C   C43       1.0  0.74290  0.41079  0.77146  1.0000 0.0962030375
C   C44       1.0  0.75710  0.58921  0.27146  1.0000 0.0962030375
C   C45       1.0  0.01280  0.80910  0.68064  1.0000 -0.1216138406
C   C46       1.0  0.48720  0.19090  0.18064  1.0000 -0.1216138406
C   C47       1.0  0.98720  0.30910  0.81936  1.0000 -0.1216138406
C   C48       1.0  0.51280  0.69090  0.31936  1.0000 -0.1216138406
C   C49       1.0  0.76790  0.79088  0.70339  1.0000 -0.1862037099
C   C50       1.0  0.73210  0.20912  0.20339  1.0000 -0.1862037099
C   C51       1.0  0.23210  0.29088  0.79661  1.0000 -0.1862037099
C   C52       1.0  0.26790  0.70912  0.29661  1.0000 -0.1862037099
C   C53       1.0  0.74970  0.72641  0.75121  1.0000 -0.1368620889
C   C54       1.0  0.75030  0.27359  0.25121  1.0000 -0.1368620889
C   C55       1.0  0.25030  0.22641  0.74879  1.0000 -0.1368620889
C   C56       1.0  0.24970  0.77359  0.24879  1.0000 -0.1368620889
C   C57       1.0  0.05160  0.62648  0.74079  1.0000 0.0931064868
C   C58       1.0  0.44840  0.37352  0.24079  1.0000 0.0931064868
C   C59       1.0  0.94840  0.12648  0.75921  1.0000 0.0931064868
C   C60       1.0  0.55160  0.87352  0.25921  1.0000 0.0931064868
C   C61       1.0  0.90580  0.57026  0.66010  1.0000 0.1573009873
C   C62       1.0  0.59420  0.42974  0.16010  1.0000 0.1573009873
C   C63       1.0  0.09420  0.07026  0.83990  1.0000 0.1573009873
C   C64       1.0  0.40580  0.92974  0.33990  1.0000 0.1573009873
N   N1        1.0  0.20270  0.18854  0.52616  1.0000 0.5147737795
N   N2        1.0  0.29730  0.81146  0.02616  1.0000 0.5147737795
N   N3        1.0  0.79730  0.68854  0.97384  1.0000 0.5147737795
N   N4        1.0  0.70270  0.31146  0.47384  1.0000 0.5147737795
N   N5        1.0  0.38920  0.92110  0.78148  1.0000 -0.3369196123
N   N6        1.0  0.11080  0.07890  0.28148  1.0000 -0.3369196123
N   N7        1.0  0.61080  0.42110  0.71852  1.0000 -0.3369196123
N   N8        1.0  0.88920  0.57890  0.21852  1.0000 -0.3369196123
N   N9        1.0  0.15650  0.84509  0.73080  1.0000 0.1703876937
N   N10       1.0  0.34350  0.15491  0.23080  1.0000 0.1703876937
N   N11       1.0  0.84350  0.34509  0.76920  1.0000 0.1703876937
N   N12       1.0  0.65650  0.65491  0.26920  1.0000 0.1703876937
N   N13       1.0  0.22030  0.80861  0.78665  1.0000 -0.2629131442
N   N14       1.0  0.27970  0.19139  0.28665  1.0000 -0.2629131442
N   N15       1.0  0.77970  0.30861  0.71335  1.0000 -0.2629131442
N   N16       1.0  0.72030  0.69139  0.21335  1.0000 -0.2629131442
N   N17       1.0  0.85630  0.65906  0.72423  1.0000 0.1703876937
N   N18       1.0  0.64370  0.34094  0.22423  1.0000 0.1703876937
N   N19       1.0  0.14370  0.15906  0.77577  1.0000 0.1703876937
N   N20       1.0  0.35630  0.84094  0.27577  1.0000 0.1703876937
N   N21       1.0  0.75800  0.62383  0.67207  1.0000 -0.2418419933
N   N22       1.0  0.74200  0.37617  0.17207  1.0000 -0.2418419933
N   N23       1.0  0.24200  0.12383  0.82793  1.0000 -0.2418419933
N   N24       1.0  0.25800  0.87617  0.32793  1.0000 -0.2418419933
N   N25       1.0  0.09290  0.56893  0.70135  1.0000 -0.3291214472
N   N26       1.0  0.40710  0.43107  0.20135  1.0000 -0.3291214472
N   N27       1.0  0.90710  0.06893  0.79865  1.0000 -0.3291214472
N   N28       1.0  0.59290  0.93107  0.29865  1.0000 -0.3291214472
O   O1        1.0  0.54160  0.04654  0.71096  1.0000 -0.5371717354
O   O2        1.0  0.95840  0.95346  0.21096  1.0000 -0.5371717354
O   O3        1.0  0.45840  0.54654  0.78904  1.0000 -0.5371717354
O   O4        1.0  0.04160  0.45346  0.28904  1.0000 -0.5371717354
O   O5        1.0  0.80130  0.96765  0.67106  1.0000 -0.5371717354
O   O6        1.0  0.69870  0.03235  0.17106  1.0000 -0.5371717354
O   O7        1.0  0.19870  0.46765  0.82894  1.0000 -0.5371717354
O   O8        1.0  0.30130  0.53235  0.32894  1.0000 -0.5371717354
O   O9        1.0  0.82420  0.89712  0.53668  1.0000 -0.4865211612
O   O10       1.0  0.67580  0.10288  0.03668  1.0000 -0.4865211612
O   O11       1.0  0.17580  0.39712  0.96332  1.0000 -0.4865211612
O   O12       1.0  0.32420  0.60288  0.46332  1.0000 -0.4865211612
O   O13       1.0  0.11250  0.97677  0.55613  1.0000 -0.446608997
O   O14       1.0  0.38750  0.02323  0.05613  1.0000 -0.446608997
O   O15       1.0  0.88750  0.47677  0.94387  1.0000 -0.446608997
O   O16       1.0  0.61250  0.52323  0.44387  1.0000 -0.446608997
O   O17       1.0  0.95720  0.98612  0.42067  1.0000 -0.5217637485
O   O18       1.0  0.54280  0.01388  0.92067  1.0000 -0.5217637485
O   O19       1.0  0.04280  0.48612  0.07933  1.0000 -0.5217637485
O   O20       1.0  0.45720  0.51388  0.57933  1.0000 -0.5217637485
O   O21       1.0  0.72220  0.05970  0.36453  1.0000 -0.5307306415
O   O22       1.0  0.77780  0.94030  0.86453  1.0000 -0.5307306415
O   O23       1.0  0.27780  0.55970  0.13547  1.0000 -0.5307306415
O   O24       1.0  0.22220  0.44030  0.63547  1.0000 -0.5307306415
O   O25       1.0  0.12390  0.20241  0.47180  1.0000 -0.3235973073
O   O26       1.0  0.37610  0.79759  0.97180  1.0000 -0.3235973073
O   O27       1.0  0.87610  0.70241  0.02820  1.0000 -0.3235973073
O   O28       1.0  0.62390  0.29759  0.52820  1.0000 -0.3235973073
O   O29       1.0  0.12800  0.21599  0.57640  1.0000 -0.3235973073
O   O30       1.0  0.37200  0.78401  0.07640  1.0000 -0.3235973073
O   O31       1.0  0.87200  0.71599  0.92360  1.0000 -0.3235973073
O   O32       1.0  0.62800  0.28401  0.42360  1.0000 -0.3235973073
