# DDEC6 charges by PACMAN v1.1 (https://github.com/mtap-research/PACMAN-charge/)
data_2013[ZnMo][nan]3[FSR]1
_chemical_formula_sum              "Zn6 Mo20 H52 C48 N36 O68"
_cell_length_a       14.2997
_cell_length_b       14.2997
_cell_length_c       22.0865
_cell_angle_alpha    83.1916
_cell_angle_beta     96.8084
_cell_angle_gamma    138.838

_symmetry_space_group_name_H-M    "P 1"
_symmetry_Int_Tables_number       1

loop_
  _symmetry_equiv_pos_as_xyz
  'x, y, z'

loop_
  _atom_site_type_symbol
  _atom_site_label
  _atom_site_symmetry_multiplicity
  _atom_site_fract_x
  _atom_site_fract_y
  _atom_site_fract_z
  _atom_site_occupancy
  _atom_site_charge
Zn  Zn1       1.0  0.23158  0.43248  0.50729  1.0000 0.9708211471
Zn  Zn2       1.0  0.43248  0.23158  0.99271  1.0000 0.9708211471
Zn  Zn3       1.0  0.76842  0.56752  0.49271  1.0000 0.9708211471
Zn  Zn4       1.0  0.56752  0.76842  0.00729  1.0000 0.9708211471
Zn  Zn5       1.0  0.00000  0.00000  0.50000  1.0000 1.0370133122
Zn  Zn6       1.0  0.00000  0.00000  0.00000  1.0000 1.0370133122
Mo  Mo1       1.0  0.32393  0.72653  0.56260  1.0000 2.1507443388
Mo  Mo2       1.0  0.72653  0.32393  0.93740  1.0000 2.1507443388
Mo  Mo3       1.0  0.67607  0.27347  0.43740  1.0000 2.1507443388
Mo  Mo4       1.0  0.27347  0.67607  0.06260  1.0000 2.1507443388
Mo  Mo5       1.0  0.14526  0.76030  0.48067  1.0000 2.1195802291
Mo  Mo6       1.0  0.76030  0.14526  0.01933  1.0000 2.1195802291
Mo  Mo7       1.0  0.85474  0.23970  0.51933  1.0000 2.1195802291
Mo  Mo8       1.0  0.23970  0.85474  0.98067  1.0000 2.1195802291
Mo  Mo9       1.0  0.29099  0.07417  0.44564  1.0000 2.1507443388
Mo  Mo10      1.0  0.07417  0.29099  0.05436  1.0000 2.1507443388
Mo  Mo11      1.0  0.70901  0.92583  0.55436  1.0000 2.1507443388
Mo  Mo12      1.0  0.92583  0.70901  0.94564  1.0000 2.1507443388
Mo  Mo13      1.0  0.46968  0.05852  0.54966  1.0000 2.1409051617
Mo  Mo14      1.0  0.05852  0.46968  0.95034  1.0000 2.1409051617
Mo  Mo15      1.0  0.53032  0.94148  0.45034  1.0000 2.1409051617
Mo  Mo16      1.0  0.94148  0.53032  0.04966  1.0000 2.1409051617
Mo  Mo17      1.0  0.38654  0.33906  0.52827  1.0000 2.1015547116
Mo  Mo18      1.0  0.33906  0.38654  0.97173  1.0000 2.1015547116
Mo  Mo19      1.0  0.61346  0.66094  0.47173  1.0000 2.1015547116
Mo  Mo20      1.0  0.66094  0.61346  0.02827  1.0000 2.1015547116
H   H1        1.0  0.63350  0.69530  0.28230  1.0000 0.1295253744
H   H2        1.0  0.69530  0.63350  0.21770  1.0000 0.1295253744
H   H3        1.0  0.36650  0.30470  0.71770  1.0000 0.1295253744
H   H4        1.0  0.30470  0.36650  0.78230  1.0000 0.1295253744
H   H5        1.0  0.50840  0.67480  0.27410  1.0000 0.1295253744
H   H6        1.0  0.67480  0.50840  0.22590  1.0000 0.1295253744
H   H7        1.0  0.49160  0.32520  0.72590  1.0000 0.1295253744
H   H8        1.0  0.32520  0.49160  0.77410  1.0000 0.1295253744
H   H9        1.0  0.44150  0.58870  0.13440  1.0000 0.1381411304
H   H10       1.0  0.58870  0.44150  0.36560  1.0000 0.1381411304
H   H11       1.0  0.55850  0.41130  0.86560  1.0000 0.1381411304
H   H12       1.0  0.41130  0.55850  0.63440  1.0000 0.1381411304
H   H13       1.0  0.81090  0.97990  0.11200  1.0000 0.1230512208
H   H14       1.0  0.97990  0.81090  0.38800  1.0000 0.1230512208
H   H15       1.0  0.18910  0.02010  0.88800  1.0000 0.1230512208
H   H16       1.0  0.02010  0.18910  0.61200  1.0000 0.1230512208
H   H17       1.0  0.15930  0.40690  0.22960  1.0000 0.1381411304
H   H18       1.0  0.40690  0.15930  0.27040  1.0000 0.1381411304
H   H19       1.0  0.84070  0.59310  0.77040  1.0000 0.1381411304
H   H20       1.0  0.59310  0.84070  0.72960  1.0000 0.1381411304
H   H21       1.0  0.31620  0.56000  0.23830  1.0000 0.1381411304
H   H22       1.0  0.56000  0.31620  0.26170  1.0000 0.1381411304
H   H23       1.0  0.68380  0.44000  0.76170  1.0000 0.1381411304
H   H24       1.0  0.44000  0.68380  0.73830  1.0000 0.1381411304
H   H25       1.0  0.31530  0.43130  0.37560  1.0000 0.1230512208
H   H26       1.0  0.43130  0.31530  0.12440  1.0000 0.1230512208
H   H27       1.0  0.68470  0.56870  0.62440  1.0000 0.1230512208
H   H28       1.0  0.56870  0.68470  0.87560  1.0000 0.1230512208
H   H29       1.0  0.09420  0.47900  0.40720  1.0000 0.1522355352
H   H30       1.0  0.47900  0.09420  0.09280  1.0000 0.1522355352
H   H31       1.0  0.90580  0.52100  0.59280  1.0000 0.1522355352
H   H32       1.0  0.52100  0.90580  0.90720  1.0000 0.1522355352
H   H33       1.0  0.99780  0.07320  0.23210  1.0000 0.1230512208
H   H34       1.0  0.07320  0.99780  0.26790  1.0000 0.1230512208
H   H35       1.0  0.00220  0.92680  0.76790  1.0000 0.1230512208
H   H36       1.0  0.92680  0.00220  0.73210  1.0000 0.1230512208
H   H37       1.0  0.02660  0.20280  0.23350  1.0000 0.1295253744
H   H38       1.0  0.20280  0.02660  0.26650  1.0000 0.1295253744
H   H39       1.0  0.97340  0.79720  0.76650  1.0000 0.1295253744
H   H40       1.0  0.79720  0.97340  0.73350  1.0000 0.1295253744
H   H41       1.0  0.12410  0.10950  0.36690  1.0000 0.1295253744
H   H42       1.0  0.10950  0.12410  0.13310  1.0000 0.1295253744
H   H43       1.0  0.87590  0.89050  0.63310  1.0000 0.1295253744
H   H44       1.0  0.89050  0.87590  0.86690  1.0000 0.1295253744
H   H45       1.0  0.80680  0.01340  0.41150  1.0000 0.160855179
H   H46       1.0  0.01340  0.80680  0.08850  1.0000 0.160855179
H   H47       1.0  0.19320  0.98660  0.58850  1.0000 0.160855179
H   H48       1.0  0.98660  0.19320  0.91150  1.0000 0.160855179
H   H49       1.0  0.84110  0.08570  0.30770  1.0000 0.300144722
H   H50       1.0  0.08570  0.84110  0.19230  1.0000 0.300144722
H   H51       1.0  0.15890  0.91430  0.69230  1.0000 0.300144722
H   H52       1.0  0.91430  0.15890  0.80770  1.0000 0.300144722
C   C1        1.0  0.44705  0.49935  0.25230  1.0000 0.017894863
C   C2        1.0  0.49935  0.44705  0.24770  1.0000 0.017894863
C   C3        1.0  0.55295  0.50065  0.74770  1.0000 0.017894863
C   C4        1.0  0.50065  0.55295  0.75230  1.0000 0.017894863
C   C5        1.0  0.30050  0.40410  0.25330  1.0000 0.017894863
C   C6        1.0  0.40410  0.30050  0.24670  1.0000 0.017894863
C   C7        1.0  0.69950  0.59590  0.74670  1.0000 0.017894863
C   C8        1.0  0.59590  0.69950  0.75330  1.0000 0.017894863
C   C9        1.0  0.20668  0.25812  0.25210  1.0000 0.0082207931
C   C10       1.0  0.25812  0.20668  0.24790  1.0000 0.0082207931
C   C11       1.0  0.79332  0.74188  0.74790  1.0000 0.0082207931
C   C12       1.0  0.74188  0.79332  0.75210  1.0000 0.0082207931
C   C13       1.0  0.55210  0.65670  0.25620  1.0000 -0.1879044275
C   C14       1.0  0.65670  0.55210  0.24380  1.0000 -0.1879044275
C   C15       1.0  0.44790  0.34330  0.74380  1.0000 -0.1879044275
C   C16       1.0  0.34330  0.44790  0.75620  1.0000 -0.1879044275
C   C17       1.0  0.53254  0.67986  0.14140  1.0000 0.1230512208
C   C18       1.0  0.67986  0.53254  0.35860  1.0000 0.1230512208
C   C19       1.0  0.46746  0.32014  0.85860  1.0000 0.1230512208
C   C20       1.0  0.32014  0.46746  0.64140  1.0000 0.1230512208
C   C21       1.0  0.73350  0.89170  0.13040  1.0000 0.160855179
C   C22       1.0  0.89170  0.73350  0.36960  1.0000 0.160855179
C   C23       1.0  0.26650  0.10830  0.86960  1.0000 0.160855179
C   C24       1.0  0.10830  0.26650  0.63040  1.0000 0.160855179
C   C25       1.0  0.24620  0.46260  0.25490  1.0000 -0.1832509886
C   C26       1.0  0.46260  0.24620  0.24510  1.0000 -0.1832509886
C   C27       1.0  0.75380  0.53740  0.74510  1.0000 -0.1832509886
C   C28       1.0  0.53740  0.75380  0.75490  1.0000 -0.1832509886
C   C29       1.0  0.25937  0.44343  0.37060  1.0000 0.0890417446
C   C30       1.0  0.44343  0.25937  0.12940  1.0000 0.0890417446
C   C31       1.0  0.74063  0.55657  0.62940  1.0000 0.0890417446
C   C32       1.0  0.55657  0.74063  0.87060  1.0000 0.0890417446
C   C33       1.0  0.14040  0.47040  0.38660  1.0000 0.1874610347
C   C34       1.0  0.47040  0.14040  0.11340  1.0000 0.1874610347
C   C35       1.0  0.85960  0.52960  0.61340  1.0000 0.1874610347
C   C36       1.0  0.52960  0.85960  0.88660  1.0000 0.1874610347
C   C37       1.0  0.04910  0.15730  0.25390  1.0000 -0.205527241
C   C38       1.0  0.15730  0.04910  0.24610  1.0000 -0.205527241
C   C39       1.0  0.95090  0.84270  0.74610  1.0000 -0.205527241
C   C40       1.0  0.84270  0.95090  0.75390  1.0000 -0.205527241
C   C41       1.0  0.04820  0.09440  0.36550  1.0000 0.0890417446
C   C42       1.0  0.09440  0.04820  0.13450  1.0000 0.0890417446
C   C43       1.0  0.95180  0.90560  0.63450  1.0000 0.0890417446
C   C44       1.0  0.90560  0.95180  0.86550  1.0000 0.0890417446
C   C45       1.0  0.87680  0.04300  0.38880  1.0000 0.1837948014
C   C46       1.0  0.04300  0.87680  0.11120  1.0000 0.1837948014
C   C47       1.0  0.12320  0.95700  0.61120  1.0000 0.1837948014
C   C48       1.0  0.95700  0.12320  0.88880  1.0000 0.1837948014
N   N1        1.0  0.61428  0.78132  0.09899  1.0000 -0.305405962
N   N2        1.0  0.78132  0.61428  0.40101  1.0000 -0.305405962
N   N3        1.0  0.38572  0.21868  0.90101  1.0000 -0.305405962
N   N4        1.0  0.21868  0.38572  0.59899  1.0000 -0.305405962
N   N5        1.0  0.59884  0.72656  0.19530  1.0000 0.1702195754
N   N6        1.0  0.72656  0.59884  0.30470  1.0000 0.1702195754
N   N7        1.0  0.40116  0.27344  0.80470  1.0000 0.1702195754
N   N8        1.0  0.27344  0.40116  0.69530  1.0000 0.1702195754
N   N9        1.0  0.73125  0.86435  0.18930  1.0000 -0.2897612105
N   N10       1.0  0.86435  0.73125  0.31070  1.0000 -0.2897612105
N   N11       1.0  0.26875  0.13565  0.81070  1.0000 -0.2897612105
N   N12       1.0  0.13565  0.26875  0.68930  1.0000 -0.2897612105
N   N13       1.0  0.21034  0.44746  0.41524  1.0000 -0.2964919607
N   N14       1.0  0.44746  0.21034  0.08476  1.0000 -0.2964919607
N   N15       1.0  0.78966  0.55254  0.58476  1.0000 -0.2964919607
N   N16       1.0  0.55254  0.78966  0.91524  1.0000 -0.2964919607
N   N17       1.0  0.21843  0.45877  0.31740  1.0000 0.1702195754
N   N18       1.0  0.45877  0.21843  0.18260  1.0000 0.1702195754
N   N19       1.0  0.78157  0.54123  0.68260  1.0000 0.1702195754
N   N20       1.0  0.54123  0.78157  0.81740  1.0000 0.1702195754
N   N21       1.0  0.14327  0.47953  0.32640  1.0000 -0.2470481942
N   N22       1.0  0.47953  0.14327  0.17360  1.0000 -0.2470481942
N   N23       1.0  0.85673  0.52047  0.67360  1.0000 -0.2470481942
N   N24       1.0  0.52047  0.85673  0.82640  1.0000 -0.2470481942
N   N25       1.0  0.97184  0.04936  0.41240  1.0000 -0.2964919607
N   N26       1.0  0.04936  0.97184  0.08760  1.0000 -0.2964919607
N   N27       1.0  0.02816  0.95064  0.58760  1.0000 -0.2964919607
N   N28       1.0  0.95064  0.02816  0.91240  1.0000 -0.2964919607
N   N29       1.0  0.00288  0.11512  0.31652  1.0000 0.1295253744
N   N30       1.0  0.11512  0.00288  0.18348  1.0000 0.1295253744
N   N31       1.0  0.99712  0.88488  0.68348  1.0000 0.1295253744
N   N32       1.0  0.88488  0.99712  0.81652  1.0000 0.1295253744
N   N33       1.0  0.89100  0.08200  0.33100  1.0000 -0.1417063052
N   N34       1.0  0.08200  0.89100  0.16900  1.0000 -0.1417063052
N   N35       1.0  0.10900  0.91800  0.66900  1.0000 -0.1417063052
N   N36       1.0  0.91800  0.10900  0.83100  1.0000 -0.1417063052
O   O1        1.0  0.25249  0.58791  0.52061  1.0000 -0.7238033513
O   O2        1.0  0.58791  0.25249  0.97939  1.0000 -0.7238033513
O   O3        1.0  0.74751  0.41209  0.47939  1.0000 -0.7238033513
O   O4        1.0  0.41209  0.74751  0.02061  1.0000 -0.7238033513
O   O5        1.0  0.32467  0.67713  0.63643  1.0000 -0.6392839949
O   O6        1.0  0.67713  0.32467  0.86357  1.0000 -0.6392839949
O   O7        1.0  0.67533  0.32287  0.36357  1.0000 -0.6392839949
O   O8        1.0  0.32287  0.67533  0.13643  1.0000 -0.6392839949
O   O9        1.0  0.51500  0.85340  0.53974  1.0000 -0.9248371863
O   O10       1.0  0.85340  0.51500  0.96026  1.0000 -0.9248371863
O   O11       1.0  0.48500  0.14660  0.46026  1.0000 -0.9248371863
O   O12       1.0  0.14660  0.48500  0.03974  1.0000 -0.9318708579
O   O13       1.0  0.16712  0.69448  0.55649  1.0000 -0.8241666357
O   O14       1.0  0.69448  0.16712  0.94351  1.0000 -0.8241666357
O   O15       1.0  0.83288  0.30552  0.44351  1.0000 -0.8241666357
O   O16       1.0  0.30552  0.83288  0.05649  1.0000 -0.8241666357
O   O17       1.0  0.08620  0.64020  0.43202  1.0000 -0.5820588867
O   O18       1.0  0.64020  0.08620  0.06798  1.0000 -0.5820588867
O   O19       1.0  0.91380  0.35980  0.56798  1.0000 -0.5820588867
O   O20       1.0  0.35980  0.91380  0.93202  1.0000 -0.5820588867
O   O21       1.0  0.99797  0.71123  0.49637  1.0000 -0.690829816
O   O22       1.0  0.71123  0.99797  0.00363  1.0000 -0.690829816
O   O23       1.0  0.00203  0.28877  0.50363  1.0000 -0.690829816
O   O24       1.0  0.28877  0.00203  0.99637  1.0000 -0.690829816
O   O25       1.0  0.21627  0.90733  0.41679  1.0000 -0.8293291827
O   O26       1.0  0.90733  0.21627  0.08321  1.0000 -0.8293291827
O   O27       1.0  0.78373  0.09267  0.58321  1.0000 -0.8353227179
O   O28       1.0  0.09267  0.78373  0.91679  1.0000 -0.8353227179
O   O29       1.0  0.12775  0.99985  0.46056  1.0000 -0.7688409935
O   O30       1.0  0.99985  0.12775  0.03944  1.0000 -0.7688409935
O   O31       1.0  0.87225  0.00015  0.53944  1.0000 -0.7688409935
O   O32       1.0  0.00015  0.87225  0.96056  1.0000 -0.7688409935
O   O33       1.0  0.33659  0.17021  0.37872  1.0000 -0.690829816
O   O34       1.0  0.17021  0.33659  0.12128  1.0000 -0.690829816
O   O35       1.0  0.66341  0.82979  0.62128  1.0000 -0.690829816
O   O36       1.0  0.82979  0.66341  0.87872  1.0000 -0.690829816
O   O37       1.0  0.38583  0.22057  0.50475  1.0000 -0.8293291827
O   O38       1.0  0.22057  0.38583  0.99525  1.0000 -0.8293291827
O   O39       1.0  0.61417  0.77943  0.49525  1.0000 -0.8293291827
O   O40       1.0  0.77943  0.61417  0.00475  1.0000 -0.8293291827
O   O41       1.0  0.28355  0.96165  0.52929  1.0000 -0.9318708579
O   O42       1.0  0.96165  0.28355  0.97071  1.0000 -0.9318708579
O   O43       1.0  0.71645  0.03835  0.47071  1.0000 -0.9318708579
O   O44       1.0  0.03835  0.71645  0.02929  1.0000 -0.9318708579
O   O45       1.0  0.54057  0.19123  0.59278  1.0000 -0.6057985227
O   O46       1.0  0.19123  0.54057  0.90722  1.0000 -0.6039097111
O   O47       1.0  0.45943  0.80877  0.40722  1.0000 -0.6057985227
O   O48       1.0  0.80877  0.45943  0.09278  1.0000 -0.6057985227
O   O49       1.0  0.63351  0.13109  0.51462  1.0000 -1.0316656034
O   O50       1.0  0.13109  0.63351  0.98538  1.0000 -1.0316656034
O   O51       1.0  0.36649  0.86891  0.48538  1.0000 -1.0316656034
O   O52       1.0  0.86891  0.36649  0.01462  1.0000 -1.0316656034
O   O53       1.0  0.43260  0.93400  0.60354  1.0000 -0.7415272842
O   O54       1.0  0.93400  0.43260  0.89646  1.0000 -0.7415272842
O   O55       1.0  0.56740  0.06600  0.39646  1.0000 -0.7415272842
O   O56       1.0  0.06600  0.56740  0.10354  1.0000 -0.7415272842
O   O57       1.0  0.20570  0.22950  0.51045  1.0000 -0.8109127084
O   O58       1.0  0.22950  0.20570  0.98955  1.0000 -0.8109127084
O   O59       1.0  0.79430  0.77050  0.48955  1.0000 -0.8109127084
O   O60       1.0  0.77050  0.79430  0.01045  1.0000 -0.8109127084
O   O61       1.0  0.41180  0.34340  0.60517  1.0000 -0.707198898
O   O62       1.0  0.34340  0.41180  0.89483  1.0000 -0.707198898
O   O63       1.0  0.58820  0.65660  0.39483  1.0000 -0.707198898
O   O64       1.0  0.65660  0.58820  0.10517  1.0000 -0.707198898
O   O65       1.0  0.58009  0.49871  0.49431  1.0000 -0.9248371863
O   O66       1.0  0.49871  0.58009  0.00569  1.0000 -0.9248371863
O   O67       1.0  0.41991  0.50129  0.50569  1.0000 -0.9248371863
O   O68       1.0  0.50129  0.41991  0.99431  1.0000 -0.9248371863
