# DDEC6 charges by PACMAN v1.1 (https://github.com/mtap-research/PACMAN-charge/)
data_2013[Ce][ant]3[FSR]1
_chemical_formula_sum              "Ce4 H36 C28 S2 N4 O36"
_cell_length_a       14.7484
_cell_length_b       14.7484
_cell_length_c       6.7481
_cell_angle_alpha    87.9617
_cell_angle_beta     92.0383
_cell_angle_gamma    125.397

_symmetry_space_group_name_H-M    "P 1"
_symmetry_Int_Tables_number       1

loop_
  _symmetry_equiv_pos_as_xyz
  'x, y, z'

loop_
  _atom_site_type_symbol
  _atom_site_label
  _atom_site_symmetry_multiplicity
  _atom_site_fract_x
  _atom_site_fract_y
  _atom_site_fract_z
  _atom_site_occupancy
  _atom_site_charge
Ce  Ce1       1.0  0.70368  0.91064  0.49037  1.0000 2.0298781127
Ce  Ce2       1.0  0.91064  0.70368  0.00963  1.0000 2.0298781127
Ce  Ce3       1.0  0.29632  0.08936  0.50963  1.0000 2.0298781127
Ce  Ce4       1.0  0.08936  0.29632  0.99037  1.0000 2.0298781127
H   H1        1.0  0.92740  0.95140  0.32810  1.0000 0.2055108429
H   H2        1.0  0.95140  0.92740  0.17190  1.0000 0.2055108429
H   H3        1.0  0.07260  0.04860  0.67190  1.0000 0.2038379342
H   H4        1.0  0.04860  0.07260  0.82810  1.0000 0.2038379342
H   H5        1.0  0.94210  0.04530  0.34970  1.0000 0.3500649959
H   H6        1.0  0.04530  0.94210  0.15030  1.0000 0.3500649959
H   H7        1.0  0.05790  0.95470  0.65030  1.0000 0.3500649959
H   H8        1.0  0.95470  0.05790  0.84970  1.0000 0.3500649959
H   H9        1.0  0.57240  0.89220  0.84910  1.0000 0.3096019656
H   H10       1.0  0.89220  0.57240  0.65090  1.0000 0.3096019656
H   H11       1.0  0.42760  0.10780  0.15090  1.0000 0.3096019656
H   H12       1.0  0.10780  0.42760  0.34910  1.0000 0.3096019656
H   H13       1.0  0.67750  0.93670  0.91350  1.0000 0.3766000599
H   H14       1.0  0.93670  0.67750  0.58650  1.0000 0.3766000599
H   H15       1.0  0.32250  0.06330  0.08650  1.0000 0.3766000599
H   H16       1.0  0.06330  0.32250  0.41350  1.0000 0.3766000599
H   H17       1.0  0.59160  0.72520  0.18790  1.0000 0.4179372669
H   H18       1.0  0.72520  0.59160  0.31210  1.0000 0.4179372669
H   H19       1.0  0.40840  0.27480  0.81210  1.0000 0.4179372669
H   H20       1.0  0.27480  0.40840  0.68790  1.0000 0.4179372669
H   H21       1.0  0.70780  0.78640  0.12620  1.0000 0.4179372669
H   H22       1.0  0.78640  0.70780  0.37380  1.0000 0.4179372669
H   H23       1.0  0.29220  0.21360  0.87380  1.0000 0.4179372669
H   H24       1.0  0.21360  0.29220  0.62620  1.0000 0.4179372669
H   H25       1.0  0.95650  0.40870  0.63460  1.0000 0.1189277463
H   H26       1.0  0.40870  0.95650  0.86540  1.0000 0.1189277463
H   H27       1.0  0.04350  0.59130  0.36540  1.0000 0.1189277463
H   H28       1.0  0.59130  0.04350  0.13460  1.0000 0.1189277463
H   H29       1.0  0.69320  0.40820  0.54940  1.0000 0.1189277463
H   H30       1.0  0.40820  0.69320  0.95060  1.0000 0.1189277463
H   H31       1.0  0.30680  0.59180  0.45060  1.0000 0.1189277463
H   H32       1.0  0.59180  0.30680  0.04940  1.0000 0.1189277463
H   H33       1.0  0.65650  0.11690  0.58860  1.0000 0.1422858045
H   H34       1.0  0.11690  0.65650  0.91140  1.0000 0.1422858045
H   H35       1.0  0.34350  0.88310  0.41140  1.0000 0.1422858045
H   H36       1.0  0.88310  0.34350  0.08860  1.0000 0.1422858045
C   C1        1.0  0.87463  0.19697  0.63760  1.0000 0.6378757537
C   C2        1.0  0.19697  0.87463  0.86240  1.0000 0.6378757537
C   C3        1.0  0.12537  0.80303  0.36240  1.0000 0.6378757537
C   C4        1.0  0.80303  0.12537  0.13760  1.0000 0.6378757537
C   C5        1.0  0.81653  0.25367  0.61290  1.0000 -0.0770151194
C   C6        1.0  0.25367  0.81653  0.88710  1.0000 -0.0770151194
C   C7        1.0  0.18347  0.74633  0.38710  1.0000 -0.0770151194
C   C8        1.0  0.74633  0.18347  0.11290  1.0000 -0.0770151194
C   C9        1.0  0.87985  0.36935  0.61540  1.0000 0.0789904923
C   C10       1.0  0.36935  0.87985  0.88460  1.0000 0.0789904923
C   C11       1.0  0.12015  0.63065  0.38460  1.0000 0.0789904923
C   C12       1.0  0.63065  0.12015  0.11540  1.0000 0.0789904923
C   C13       1.0  0.72459  0.36901  0.56680  1.0000 0.0565879711
C   C14       1.0  0.36901  0.72459  0.93320  1.0000 0.0565879711
C   C15       1.0  0.27541  0.63099  0.43320  1.0000 0.0565879711
C   C16       1.0  0.63099  0.27541  0.06680  1.0000 0.0565879711
C   C17       1.0  0.65419  0.25301  0.56620  1.0000 -0.056104169
C   C18       1.0  0.25301  0.65419  0.93380  1.0000 -0.056104169
C   C19       1.0  0.34581  0.74699  0.43380  1.0000 -0.056104169
C   C20       1.0  0.74699  0.34581  0.06620  1.0000 -0.056104169
C   C21       1.0  0.70099  0.19421  0.58910  1.0000 -0.0716260343
C   C22       1.0  0.19421  0.70099  0.91090  1.0000 -0.0716260343
C   C23       1.0  0.29901  0.80579  0.41090  1.0000 -0.0716260343
C   C24       1.0  0.80579  0.29901  0.08910  1.0000 -0.0716260343
C   C25       1.0  0.53047  0.19513  0.54280  1.0000 0.5585903258
C   C26       1.0  0.19513  0.53047  0.95720  1.0000 0.5585903258
C   C27       1.0  0.46953  0.80487  0.45720  1.0000 0.5585903258
C   C28       1.0  0.80487  0.46953  0.04280  1.0000 0.5585903258
S   S1        1.0  0.79935  0.79935  0.75000  1.0000 1.3757174344
S   S2        1.0  0.20065  0.20065  0.25000  1.0000 1.3757174344
N   N1        1.0  0.83527  0.42673  0.59120  1.0000 -0.218172007
N   N2        1.0  0.42673  0.83527  0.90880  1.0000 -0.218172007
N   N3        1.0  0.16473  0.57327  0.40880  1.0000 -0.218172007
N   N4        1.0  0.57327  0.16473  0.09120  1.0000 -0.218172007
O   O1        1.0  0.46563  0.09259  0.57490  1.0000 -0.5790906816
O   O2        1.0  0.09259  0.46563  0.92510  1.0000 -0.5790906816
O   O3        1.0  0.53437  0.90741  0.42510  1.0000 -0.5790906816
O   O4        1.0  0.90741  0.53437  0.07490  1.0000 -0.5790906816
O   O5        1.0  0.49426  0.25274  0.49130  1.0000 -0.6269671439
O   O6        1.0  0.25274  0.49426  0.00870  1.0000 -0.6269671439
O   O7        1.0  0.50574  0.74726  0.50870  1.0000 -0.6269671439
O   O8        1.0  0.74726  0.50574  0.99130  1.0000 -0.6269671439
O   O9        1.0  0.82195  0.09637  0.59820  1.0000 -0.6065546691
O   O10       1.0  0.09637  0.82195  0.90180  1.0000 -0.6065546691
O   O11       1.0  0.17805  0.90363  0.40180  1.0000 -0.6065546691
O   O12       1.0  0.90363  0.17805  0.09820  1.0000 -0.6065546691
O   O13       1.0  0.97502  0.25548  0.69550  1.0000 -0.6371457248
O   O14       1.0  0.25548  0.97502  0.80450  1.0000 -0.6371457248
O   O15       1.0  0.02498  0.74452  0.30450  1.0000 -0.6371457248
O   O16       1.0  0.74452  0.02498  0.19550  1.0000 -0.6371457248
O   O17       1.0  0.89336  0.97664  0.37420  1.0000 -0.7388255566
O   O18       1.0  0.97664  0.89336  0.12580  1.0000 -0.7388255566
O   O19       1.0  0.10664  0.02336  0.62580  1.0000 -0.7388255566
O   O20       1.0  0.02336  0.10664  0.87420  1.0000 -0.7388255566
O   O21       1.0  0.63733  0.91867  0.80880  1.0000 -0.7469130426
O   O22       1.0  0.91867  0.63733  0.69120  1.0000 -0.7469130426
O   O23       1.0  0.36267  0.08133  0.19120  1.0000 -0.7469130426
O   O24       1.0  0.08133  0.36267  0.30880  1.0000 -0.7469130426
O   O25       1.0  0.65051  0.79089  0.19550  1.0000 -0.7735348611
O   O26       1.0  0.79089  0.65051  0.30450  1.0000 -0.7735348611
O   O27       1.0  0.34949  0.20911  0.80450  1.0000 -0.7735348611
O   O28       1.0  0.20911  0.34949  0.69550  1.0000 -0.7735348611
O   O29       1.0  0.72273  0.75527  0.57720  1.0000 -0.7092916637
O   O30       1.0  0.75527  0.72273  0.92280  1.0000 -0.7092916637
O   O31       1.0  0.27727  0.24473  0.42280  1.0000 -0.7092916637
O   O32       1.0  0.24473  0.27727  0.07720  1.0000 -0.7092916637
O   O33       1.0  0.81617  0.90543  0.79300  1.0000 -0.6654979407
O   O34       1.0  0.90543  0.81617  0.70700  1.0000 -0.6654979407
O   O35       1.0  0.18383  0.09457  0.20700  1.0000 -0.6654979407
O   O36       1.0  0.09457  0.18383  0.29300  1.0000 -0.6654979407
