# DDEC6 charges by PACMAN v1.1 (https://github.com/mtap-research/PACMAN-charge/)
data_2013[Zn][mer]3[FSR]1
_chemical_formula_sum              "Zn16 P16 H64 C112 O80"
_cell_length_a       23.986
_cell_length_b       23.986
_cell_length_c       10.481
_cell_angle_alpha    90
_cell_angle_beta     90
_cell_angle_gamma    90

_symmetry_space_group_name_H-M    "P 1"
_symmetry_Int_Tables_number       1

loop_
  _symmetry_equiv_pos_as_xyz
  'x, y, z'

loop_
  _atom_site_type_symbol
  _atom_site_label
  _atom_site_symmetry_multiplicity
  _atom_site_fract_x
  _atom_site_fract_y
  _atom_site_fract_z
  _atom_site_occupancy
  _atom_site_charge
Zn  Zn1       1.0  0.77035  0.32915  0.36049  1.0000 1.0942441583
Zn  Zn2       1.0  0.22965  0.67085  0.36049  1.0000 1.0942441583
Zn  Zn3       1.0  0.32915  0.22965  0.36049  1.0000 1.0942441583
Zn  Zn4       1.0  0.67085  0.77035  0.36049  1.0000 1.0942441583
Zn  Zn5       1.0  0.77035  0.67085  0.63951  1.0000 1.0942441583
Zn  Zn6       1.0  0.22965  0.32915  0.63951  1.0000 1.0958419204
Zn  Zn7       1.0  0.32915  0.77035  0.63951  1.0000 1.0942441583
Zn  Zn8       1.0  0.67085  0.22965  0.63951  1.0000 1.0958419204
Zn  Zn9       1.0  0.72965  0.17085  0.13951  1.0000 1.0942441583
Zn  Zn10      1.0  0.27035  0.82915  0.13951  1.0000 1.0942441583
Zn  Zn11      1.0  0.17085  0.27035  0.13951  1.0000 1.0942441583
Zn  Zn12      1.0  0.82915  0.72965  0.13951  1.0000 1.0942441583
Zn  Zn13      1.0  0.72965  0.82915  0.86049  1.0000 1.0958419204
Zn  Zn14      1.0  0.27035  0.17085  0.86049  1.0000 1.0958419204
Zn  Zn15      1.0  0.17085  0.72965  0.86049  1.0000 1.0958419204
Zn  Zn16      1.0  0.82915  0.27035  0.86049  1.0000 1.0958419204
P   P1        1.0  0.83499  0.26073  0.16100  1.0000 1.3187824473
P   P2        1.0  0.16501  0.73927  0.16100  1.0000 1.3187824473
P   P3        1.0  0.26073  0.16501  0.16100  1.0000 1.3187824473
P   P4        1.0  0.73927  0.83499  0.16100  1.0000 1.3187824473
P   P5        1.0  0.83499  0.73927  0.83900  1.0000 1.3187824473
P   P6        1.0  0.16501  0.26073  0.83900  1.0000 1.3187824473
P   P7        1.0  0.26073  0.83499  0.83900  1.0000 1.3187824473
P   P8        1.0  0.73927  0.16501  0.83900  1.0000 1.3187824473
P   P9        1.0  0.66501  0.23927  0.33900  1.0000 1.3187824473
P   P10       1.0  0.33499  0.76073  0.33900  1.0000 1.3187824473
P   P11       1.0  0.23927  0.33499  0.33900  1.0000 1.3187824473
P   P12       1.0  0.76073  0.66501  0.33900  1.0000 1.3187824473
P   P13       1.0  0.66501  0.76073  0.66100  1.0000 1.3187824473
P   P14       1.0  0.33499  0.23927  0.66100  1.0000 1.3187824473
P   P15       1.0  0.23927  0.66501  0.66100  1.0000 1.3187824473
P   P16       1.0  0.76073  0.33499  0.66100  1.0000 1.3187824473
H   H1        1.0  0.87290  0.14800  0.15520  1.0000 0.1443749205
H   H2        1.0  0.12710  0.85200  0.15520  1.0000 0.1443749205
H   H3        1.0  0.14800  0.12710  0.15520  1.0000 0.1443749205
H   H4        1.0  0.85200  0.87290  0.15520  1.0000 0.1443749205
H   H5        1.0  0.87290  0.85200  0.84480  1.0000 0.1443749205
H   H6        1.0  0.12710  0.14800  0.84480  1.0000 0.1443749205
H   H7        1.0  0.14800  0.87290  0.84480  1.0000 0.1443749205
H   H8        1.0  0.85200  0.12710  0.84480  1.0000 0.1443749205
H   H9        1.0  0.62710  0.35200  0.34480  1.0000 0.1443749205
H   H10       1.0  0.37290  0.64800  0.34480  1.0000 0.1443749205
H   H11       1.0  0.35200  0.37290  0.34480  1.0000 0.1443749205
H   H12       1.0  0.64800  0.62710  0.34480  1.0000 0.1443749205
H   H13       1.0  0.62710  0.64800  0.65520  1.0000 0.1443749205
H   H14       1.0  0.37290  0.35200  0.65520  1.0000 0.1443749205
H   H15       1.0  0.35200  0.62710  0.65520  1.0000 0.1443749205
H   H16       1.0  0.64800  0.37290  0.65520  1.0000 0.1443749205
H   H17       1.0  0.95800  0.10400  0.15820  1.0000 0.1288295629
H   H18       1.0  0.04200  0.89600  0.15820  1.0000 0.1288295629
H   H19       1.0  0.10400  0.04200  0.15820  1.0000 0.1288295629
H   H20       1.0  0.89600  0.95800  0.15820  1.0000 0.1288295629
H   H21       1.0  0.95800  0.89600  0.84180  1.0000 0.1288295629
H   H22       1.0  0.04200  0.10400  0.84180  1.0000 0.1288295629
H   H23       1.0  0.10400  0.95800  0.84180  1.0000 0.1288295629
H   H24       1.0  0.89600  0.04200  0.84180  1.0000 0.1288295629
H   H25       1.0  0.54200  0.39600  0.34180  1.0000 0.1288295629
H   H26       1.0  0.45800  0.60400  0.34180  1.0000 0.1288295629
H   H27       1.0  0.39600  0.45800  0.34180  1.0000 0.1288295629
H   H28       1.0  0.60400  0.54200  0.34180  1.0000 0.1288295629
H   H29       1.0  0.54200  0.60400  0.65820  1.0000 0.1288295629
H   H30       1.0  0.45800  0.39600  0.65820  1.0000 0.1288295629
H   H31       1.0  0.39600  0.54200  0.65820  1.0000 0.1288295629
H   H32       1.0  0.60400  0.45800  0.65820  1.0000 0.1288295629
H   H33       1.0  0.03860  0.15580  0.17770  1.0000 0.1288295629
H   H34       1.0  0.96140  0.84420  0.17770  1.0000 0.1288295629
H   H35       1.0  0.15580  0.96140  0.17770  1.0000 0.1288295629
H   H36       1.0  0.84420  0.03860  0.17770  1.0000 0.1288295629
H   H37       1.0  0.03860  0.84420  0.82230  1.0000 0.1288295629
H   H38       1.0  0.96140  0.15580  0.82230  1.0000 0.1288295629
H   H39       1.0  0.15580  0.03860  0.82230  1.0000 0.1288295629
H   H40       1.0  0.84420  0.96140  0.82230  1.0000 0.1288295629
H   H41       1.0  0.46140  0.34420  0.32230  1.0000 0.1288295629
H   H42       1.0  0.53860  0.65580  0.32230  1.0000 0.1288295629
H   H43       1.0  0.34420  0.53860  0.32230  1.0000 0.1288295629
H   H44       1.0  0.65580  0.46140  0.32230  1.0000 0.1288295629
H   H45       1.0  0.46140  0.65580  0.67770  1.0000 0.1288295629
H   H46       1.0  0.53860  0.34420  0.67770  1.0000 0.1288295629
H   H47       1.0  0.34420  0.46140  0.67770  1.0000 0.1288295629
H   H48       1.0  0.65580  0.53860  0.67770  1.0000 0.1288295629
H   H49       1.0  0.94830  0.29540  0.16650  1.0000 0.1562223047
H   H50       1.0  0.05170  0.70460  0.16650  1.0000 0.1562223047
H   H51       1.0  0.29540  0.05170  0.16650  1.0000 0.1562223047
H   H52       1.0  0.70460  0.94830  0.16650  1.0000 0.1562223047
H   H53       1.0  0.94830  0.70460  0.83350  1.0000 0.1562223047
H   H54       1.0  0.05170  0.29540  0.83350  1.0000 0.1562223047
H   H55       1.0  0.29540  0.94830  0.83350  1.0000 0.1562223047
H   H56       1.0  0.70460  0.05170  0.83350  1.0000 0.1562223047
H   H57       1.0  0.55170  0.20460  0.33350  1.0000 0.1562223047
H   H58       1.0  0.44830  0.79540  0.33350  1.0000 0.1562223047
H   H59       1.0  0.20460  0.44830  0.33350  1.0000 0.1562223047
H   H60       1.0  0.79540  0.55170  0.33350  1.0000 0.1562223047
H   H61       1.0  0.55170  0.79540  0.66650  1.0000 0.1562223047
H   H62       1.0  0.44830  0.20460  0.66650  1.0000 0.1562223047
H   H63       1.0  0.20460  0.55170  0.66650  1.0000 0.1562223047
H   H64       1.0  0.79540  0.44830  0.66650  1.0000 0.1562223047
C   C1        1.0  0.90200  0.22640  0.16140  1.0000 -0.1409128593
C   C2        1.0  0.09800  0.77360  0.16140  1.0000 -0.1409128593
C   C3        1.0  0.22640  0.09800  0.16140  1.0000 -0.1409128593
C   C4        1.0  0.77360  0.90200  0.16140  1.0000 -0.1409128593
C   C5        1.0  0.90200  0.77360  0.83860  1.0000 -0.1409128593
C   C6        1.0  0.09800  0.22640  0.83860  1.0000 -0.1409128593
C   C7        1.0  0.22640  0.90200  0.83860  1.0000 -0.1409128593
C   C8        1.0  0.77360  0.09800  0.83860  1.0000 -0.1409128593
C   C9        1.0  0.59800  0.27360  0.33860  1.0000 -0.1409128593
C   C10       1.0  0.40200  0.72640  0.33860  1.0000 -0.1409128593
C   C11       1.0  0.27360  0.40200  0.33860  1.0000 -0.1409128593
C   C12       1.0  0.72640  0.59800  0.33860  1.0000 -0.1409128593
C   C13       1.0  0.59800  0.72640  0.66140  1.0000 -0.1409128593
C   C14       1.0  0.40200  0.27360  0.66140  1.0000 -0.1409128593
C   C15       1.0  0.27360  0.59800  0.66140  1.0000 -0.1409128593
C   C16       1.0  0.72640  0.40200  0.66140  1.0000 -0.1409128593
C   C17       1.0  0.90540  0.16910  0.15900  1.0000 -0.0728120781
C   C18       1.0  0.09460  0.83090  0.15900  1.0000 -0.0728120781
C   C19       1.0  0.16910  0.09460  0.15900  1.0000 -0.0728120781
C   C20       1.0  0.83090  0.90540  0.15900  1.0000 -0.0728120781
C   C21       1.0  0.90540  0.83090  0.84100  1.0000 -0.0728120781
C   C22       1.0  0.09460  0.16910  0.84100  1.0000 -0.0728120781
C   C23       1.0  0.16910  0.90540  0.84100  1.0000 -0.0728120781
C   C24       1.0  0.83090  0.09460  0.84100  1.0000 -0.0728120781
C   C25       1.0  0.59460  0.33090  0.34100  1.0000 -0.0728120781
C   C26       1.0  0.40540  0.66910  0.34100  1.0000 -0.0728120781
C   C27       1.0  0.33090  0.40540  0.34100  1.0000 -0.0728120781
C   C28       1.0  0.66910  0.59460  0.34100  1.0000 -0.0728120781
C   C29       1.0  0.59460  0.66910  0.65900  1.0000 -0.0728120781
C   C30       1.0  0.40540  0.33090  0.65900  1.0000 -0.0728120781
C   C31       1.0  0.33090  0.59460  0.65900  1.0000 -0.0728120781
C   C32       1.0  0.66910  0.40540  0.65900  1.0000 -0.0728120781
C   C33       1.0  0.95620  0.14270  0.16210  1.0000 -0.085383795
C   C34       1.0  0.04380  0.85730  0.16210  1.0000 -0.085383795
C   C35       1.0  0.14270  0.04380  0.16210  1.0000 -0.085383795
C   C36       1.0  0.85730  0.95620  0.16210  1.0000 -0.085383795
C   C37       1.0  0.95620  0.85730  0.83790  1.0000 -0.0803879554
C   C38       1.0  0.04380  0.14270  0.83790  1.0000 -0.085383795
C   C39       1.0  0.14270  0.95620  0.83790  1.0000 -0.0803879554
C   C40       1.0  0.85730  0.04380  0.83790  1.0000 -0.0803879554
C   C41       1.0  0.54380  0.35730  0.33790  1.0000 -0.085383795
C   C42       1.0  0.45620  0.64270  0.33790  1.0000 -0.085383795
C   C43       1.0  0.35730  0.45620  0.33790  1.0000 -0.085383795
C   C44       1.0  0.64270  0.54380  0.33790  1.0000 -0.085383795
C   C45       1.0  0.54380  0.64270  0.66210  1.0000 -0.085383795
C   C46       1.0  0.45620  0.35730  0.66210  1.0000 -0.085383795
C   C47       1.0  0.35730  0.54380  0.66210  1.0000 -0.085383795
C   C48       1.0  0.64270  0.45620  0.66210  1.0000 -0.085383795
C   C49       1.0  0.00440  0.17380  0.17110  1.0000 -0.0803879554
C   C50       1.0  0.99560  0.82620  0.17110  1.0000 -0.0803879554
C   C51       1.0  0.17380  0.99560  0.17110  1.0000 -0.0803879554
C   C52       1.0  0.82620  0.00440  0.17110  1.0000 -0.0803879554
C   C53       1.0  0.00440  0.82620  0.82890  1.0000 -0.0803879554
C   C54       1.0  0.99560  0.17380  0.82890  1.0000 -0.0803879554
C   C55       1.0  0.17380  0.00440  0.82890  1.0000 -0.0803879554
C   C56       1.0  0.82620  0.99560  0.82890  1.0000 -0.0803879554
C   C57       1.0  0.49560  0.32620  0.32890  1.0000 -0.0803879554
C   C58       1.0  0.50440  0.67380  0.32890  1.0000 -0.0803879554
C   C59       1.0  0.32620  0.50440  0.32890  1.0000 -0.0803879554
C   C60       1.0  0.67380  0.49560  0.32890  1.0000 -0.0803879554
C   C61       1.0  0.49560  0.67380  0.67110  1.0000 -0.0803879554
C   C62       1.0  0.50440  0.32620  0.67110  1.0000 -0.0803879554
C   C63       1.0  0.32620  0.49560  0.67110  1.0000 -0.0803879554
C   C64       1.0  0.67380  0.50440  0.67110  1.0000 -0.0803879554
C   C65       1.0  0.00260  0.23050  0.17030  1.0000 0.0110533252
C   C66       1.0  0.99740  0.76950  0.17030  1.0000 0.0110533252
C   C67       1.0  0.23050  0.99740  0.17030  1.0000 0.0110533252
C   C68       1.0  0.76950  0.00260  0.17030  1.0000 0.0110533252
C   C69       1.0  0.00260  0.76950  0.82970  1.0000 0.0110533252
C   C70       1.0  0.99740  0.23050  0.82970  1.0000 0.0110533252
C   C71       1.0  0.23050  0.00260  0.82970  1.0000 0.0110533252
C   C72       1.0  0.76950  0.99740  0.82970  1.0000 0.0110533252
C   C73       1.0  0.49740  0.26950  0.32970  1.0000 0.0110533252
C   C74       1.0  0.50260  0.73050  0.32970  1.0000 0.0110533252
C   C75       1.0  0.26950  0.50260  0.32970  1.0000 0.0110533252
C   C76       1.0  0.73050  0.49740  0.32970  1.0000 0.0110533252
C   C77       1.0  0.49740  0.73050  0.67030  1.0000 0.0110533252
C   C78       1.0  0.50260  0.26950  0.67030  1.0000 0.0110533252
C   C79       1.0  0.26950  0.49740  0.67030  1.0000 0.0110533252
C   C80       1.0  0.73050  0.50260  0.67030  1.0000 0.0110533252
C   C81       1.0  0.95020  0.25660  0.16610  1.0000 -0.0599955051
C   C82       1.0  0.04980  0.74340  0.16610  1.0000 -0.0599955051
C   C83       1.0  0.25660  0.04980  0.16610  1.0000 -0.0599955051
C   C84       1.0  0.74340  0.95020  0.16610  1.0000 -0.0599955051
C   C85       1.0  0.95020  0.74340  0.83390  1.0000 -0.0599955051
C   C86       1.0  0.04980  0.25660  0.83390  1.0000 -0.0599955051
C   C87       1.0  0.25660  0.95020  0.83390  1.0000 -0.0599955051
C   C88       1.0  0.74340  0.04980  0.83390  1.0000 -0.0599955051
C   C89       1.0  0.54980  0.24340  0.33390  1.0000 -0.0599955051
C   C90       1.0  0.45020  0.75660  0.33390  1.0000 -0.0599955051
C   C91       1.0  0.24340  0.45020  0.33390  1.0000 -0.0599955051
C   C92       1.0  0.75660  0.54980  0.33390  1.0000 -0.0599955051
C   C93       1.0  0.54980  0.75660  0.66610  1.0000 -0.0599955051
C   C94       1.0  0.45020  0.24340  0.66610  1.0000 -0.0599955051
C   C95       1.0  0.24340  0.54980  0.66610  1.0000 -0.0599955051
C   C96       1.0  0.75660  0.45020  0.66610  1.0000 -0.0599955051
C   C97       1.0  0.05540  0.26420  0.17290  1.0000 0.5675232768
C   C98       1.0  0.94460  0.73580  0.17290  1.0000 0.5675232768
C   C99       1.0  0.26420  0.94460  0.17290  1.0000 0.5675232768
C   C100      1.0  0.73580  0.05540  0.17290  1.0000 0.5675232768
C   C101      1.0  0.05540  0.73580  0.82710  1.0000 0.5675232768
C   C102      1.0  0.94460  0.26420  0.82710  1.0000 0.5675232768
C   C103      1.0  0.26420  0.05540  0.82710  1.0000 0.5675232768
C   C104      1.0  0.73580  0.94460  0.82710  1.0000 0.5675232768
C   C105      1.0  0.44460  0.23580  0.32710  1.0000 0.5675232768
C   C106      1.0  0.55540  0.76420  0.32710  1.0000 0.5675232768
C   C107      1.0  0.23580  0.55540  0.32710  1.0000 0.5675232768
C   C108      1.0  0.76420  0.44460  0.32710  1.0000 0.5675232768
C   C109      1.0  0.44460  0.76420  0.67290  1.0000 0.5675232768
C   C110      1.0  0.55540  0.23580  0.67290  1.0000 0.5675232768
C   C111      1.0  0.23580  0.44460  0.67290  1.0000 0.5675232768
C   C112      1.0  0.76420  0.55540  0.67290  1.0000 0.5675232768
O   O1        1.0  0.83500  0.30200  0.27060  1.0000 -0.6913421951
O   O2        1.0  0.16500  0.69800  0.27060  1.0000 -0.6913421951
O   O3        1.0  0.30200  0.16500  0.27060  1.0000 -0.6913421951
O   O4        1.0  0.69800  0.83500  0.27060  1.0000 -0.6913421951
O   O5        1.0  0.83500  0.69800  0.72940  1.0000 -0.6913421951
O   O6        1.0  0.16500  0.30200  0.72940  1.0000 -0.6913421951
O   O7        1.0  0.30200  0.83500  0.72940  1.0000 -0.6913421951
O   O8        1.0  0.69800  0.16500  0.72940  1.0000 -0.6913421951
O   O9        1.0  0.66500  0.19800  0.22940  1.0000 -0.6913421951
O   O10       1.0  0.33500  0.80200  0.22940  1.0000 -0.6913421951
O   O11       1.0  0.19800  0.33500  0.22940  1.0000 -0.6913421951
O   O12       1.0  0.80200  0.66500  0.22940  1.0000 -0.6913421951
O   O13       1.0  0.66500  0.80200  0.77060  1.0000 -0.6913421951
O   O14       1.0  0.33500  0.19800  0.77060  1.0000 -0.6913421951
O   O15       1.0  0.19800  0.66500  0.77060  1.0000 -0.6913421951
O   O16       1.0  0.80200  0.33500  0.77060  1.0000 -0.6913421951
O   O17       1.0  0.82920  0.29300  0.03750  1.0000 -0.7063927292
O   O18       1.0  0.17080  0.70700  0.03750  1.0000 -0.7063927292
O   O19       1.0  0.29300  0.17080  0.03750  1.0000 -0.7063927292
O   O20       1.0  0.70700  0.82920  0.03750  1.0000 -0.7063927292
O   O21       1.0  0.82920  0.70700  0.96250  1.0000 -0.7063927292
O   O22       1.0  0.17080  0.29300  0.96250  1.0000 -0.7063927292
O   O23       1.0  0.29300  0.82920  0.96250  1.0000 -0.7063927292
O   O24       1.0  0.70700  0.17080  0.96250  1.0000 -0.7063927292
O   O25       1.0  0.67080  0.20700  0.46250  1.0000 -0.7063927292
O   O26       1.0  0.32920  0.79300  0.46250  1.0000 -0.7063927292
O   O27       1.0  0.20700  0.32920  0.46250  1.0000 -0.7063927292
O   O28       1.0  0.79300  0.67080  0.46250  1.0000 -0.7063927292
O   O29       1.0  0.67080  0.79300  0.53750  1.0000 -0.7063927292
O   O30       1.0  0.32920  0.20700  0.53750  1.0000 -0.7063927292
O   O31       1.0  0.20700  0.67080  0.53750  1.0000 -0.7063927292
O   O32       1.0  0.79300  0.32920  0.53750  1.0000 -0.7063927292
O   O33       1.0  0.79280  0.21590  0.17600  1.0000 -0.7453292608
O   O34       1.0  0.20720  0.78410  0.17600  1.0000 -0.7453292608
O   O35       1.0  0.21590  0.20720  0.17600  1.0000 -0.7453292608
O   O36       1.0  0.78410  0.79280  0.17600  1.0000 -0.7453292608
O   O37       1.0  0.79280  0.78410  0.82400  1.0000 -0.7453292608
O   O38       1.0  0.20720  0.21590  0.82400  1.0000 -0.7453292608
O   O39       1.0  0.21590  0.79280  0.82400  1.0000 -0.7453292608
O   O40       1.0  0.78410  0.20720  0.82400  1.0000 -0.7453292608
O   O41       1.0  0.70720  0.28410  0.32400  1.0000 -0.7453292608
O   O42       1.0  0.29280  0.71590  0.32400  1.0000 -0.7453292608
O   O43       1.0  0.28410  0.29280  0.32400  1.0000 -0.7447285891
O   O44       1.0  0.71590  0.70720  0.32400  1.0000 -0.7453292608
O   O45       1.0  0.70720  0.71590  0.67600  1.0000 -0.7453292608
O   O46       1.0  0.29280  0.28410  0.67600  1.0000 -0.7453292608
O   O47       1.0  0.28410  0.70720  0.67600  1.0000 -0.7453292608
O   O48       1.0  0.71590  0.29280  0.67600  1.0000 -0.7453292608
O   O49       1.0  0.05290  0.31520  0.16510  1.0000 -0.4593888238
O   O50       1.0  0.94710  0.68480  0.16510  1.0000 -0.4593888238
O   O51       1.0  0.31520  0.94710  0.16510  1.0000 -0.4593888238
O   O52       1.0  0.68480  0.05290  0.16510  1.0000 -0.4593888238
O   O53       1.0  0.05290  0.68480  0.83490  1.0000 -0.4593888238
O   O54       1.0  0.94710  0.31520  0.83490  1.0000 -0.4593888238
O   O55       1.0  0.31520  0.05290  0.83490  1.0000 -0.4593888238
O   O56       1.0  0.68480  0.94710  0.83490  1.0000 -0.4593888238
O   O57       1.0  0.44710  0.18480  0.33490  1.0000 -0.4593888238
O   O58       1.0  0.55290  0.81520  0.33490  1.0000 -0.4593888238
O   O59       1.0  0.18480  0.55290  0.33490  1.0000 -0.4593888238
O   O60       1.0  0.81520  0.44710  0.33490  1.0000 -0.4593888238
O   O61       1.0  0.44710  0.81520  0.66510  1.0000 -0.4593888238
O   O62       1.0  0.55290  0.18480  0.66510  1.0000 -0.4593888238
O   O63       1.0  0.18480  0.44710  0.66510  1.0000 -0.4593888238
O   O64       1.0  0.81520  0.55290  0.66510  1.0000 -0.4593888238
O   O65       1.0  0.09930  0.23760  0.18600  1.0000 -0.5094877795
O   O66       1.0  0.90070  0.76240  0.18600  1.0000 -0.5094877795
O   O67       1.0  0.23760  0.90070  0.18600  1.0000 -0.5094877795
O   O68       1.0  0.76240  0.09930  0.18600  1.0000 -0.5094877795
O   O69       1.0  0.09930  0.76240  0.81400  1.0000 -0.5094877795
O   O70       1.0  0.90070  0.23760  0.81400  1.0000 -0.5094877795
O   O71       1.0  0.23760  0.09930  0.81400  1.0000 -0.5094877795
O   O72       1.0  0.76240  0.90070  0.81400  1.0000 -0.5094877795
O   O73       1.0  0.40070  0.26240  0.31400  1.0000 -0.5094877795
O   O74       1.0  0.59930  0.73760  0.31400  1.0000 -0.5094877795
O   O75       1.0  0.26240  0.59930  0.31400  1.0000 -0.5094877795
O   O76       1.0  0.73760  0.40070  0.31400  1.0000 -0.5094877795
O   O77       1.0  0.40070  0.73760  0.68600  1.0000 -0.5094877795
O   O78       1.0  0.59930  0.26240  0.68600  1.0000 -0.5094877795
O   O79       1.0  0.26240  0.40070  0.68600  1.0000 -0.5094877795
O   O80       1.0  0.73760  0.59930  0.68600  1.0000 -0.5094877795
