# DDEC6 charges by PACMAN v1.1 (https://github.com/mtap-research/PACMAN-charge/)
data_2013[Ni][nan]3[FSR]1
_chemical_formula_sum              "Ni8 H54 C72 N24 O6"
_cell_length_a       17.9465
_cell_length_b       17.9465
_cell_length_c       17.9465
_cell_angle_alpha    60
_cell_angle_beta     60
_cell_angle_gamma    60

_symmetry_space_group_name_H-M    "P 1"
_symmetry_Int_Tables_number       1

loop_
  _symmetry_equiv_pos_as_xyz
  'x, y, z'

loop_
  _atom_site_type_symbol
  _atom_site_label
  _atom_site_symmetry_multiplicity
  _atom_site_fract_x
  _atom_site_fract_y
  _atom_site_fract_z
  _atom_site_occupancy
  _atom_site_charge
Ni  Ni1       1.0  0.05709  0.05709  0.05709  1.0000 0.6792460288
Ni  Ni2       1.0  0.05709  0.05709  0.82873  1.0000 0.6792460288
Ni  Ni3       1.0  0.94291  0.94291  0.94291  1.0000 0.6792460288
Ni  Ni4       1.0  0.17127  0.94291  0.94291  1.0000 0.6792460288
Ni  Ni5       1.0  0.05709  0.82873  0.05709  1.0000 0.6792460288
Ni  Ni6       1.0  0.82873  0.05709  0.05709  1.0000 0.6792460288
Ni  Ni7       1.0  0.94291  0.17127  0.94291  1.0000 0.6792460288
Ni  Ni8       1.0  0.94291  0.94291  0.17127  1.0000 0.6792460288
H   H1        1.0  0.87564  0.12436  0.12436  1.0000 0.3732096087
H   H2        1.0  0.12436  0.87564  0.87564  1.0000 0.3732096087
H   H3        1.0  0.87564  0.12436  0.87564  1.0000 0.3732096087
H   H4        1.0  0.12436  0.12436  0.87564  1.0000 0.3732096087
H   H5        1.0  0.87564  0.87564  0.12436  1.0000 0.3732096087
H   H6        1.0  0.12436  0.87564  0.12436  1.0000 0.3732096087
H   H7        1.0  0.92015  0.92015  0.64505  1.0000 0.1127843986
H   H8        1.0  0.92015  0.92015  0.51465  1.0000 0.1127843986
H   H9        1.0  0.07985  0.35495  0.07985  1.0000 0.1127843986
H   H10       1.0  0.48535  0.07985  0.35495  1.0000 0.1127843986
H   H11       1.0  0.64505  0.51465  0.92015  1.0000 0.1127843986
H   H12       1.0  0.07985  0.07985  0.35495  1.0000 0.1127843986
H   H13       1.0  0.64505  0.92015  0.51465  1.0000 0.1127843986
H   H14       1.0  0.92015  0.51465  0.92015  1.0000 0.1127843986
H   H15       1.0  0.48535  0.35495  0.07985  1.0000 0.1127843986
H   H16       1.0  0.92015  0.64505  0.51465  1.0000 0.1127843986
H   H17       1.0  0.35495  0.07985  0.07985  1.0000 0.1127843986
H   H18       1.0  0.48535  0.07985  0.07985  1.0000 0.1127843986
H   H19       1.0  0.92015  0.51465  0.64505  1.0000 0.1127843986
H   H20       1.0  0.51465  0.92015  0.92015  1.0000 0.1127843986
H   H21       1.0  0.07985  0.48535  0.35495  1.0000 0.1127843986
H   H22       1.0  0.07985  0.35495  0.48535  1.0000 0.1127843986
H   H23       1.0  0.64505  0.92015  0.92015  1.0000 0.1127843986
H   H24       1.0  0.35495  0.48535  0.07985  1.0000 0.1127843986
H   H25       1.0  0.51465  0.92015  0.64505  1.0000 0.1127843986
H   H26       1.0  0.92015  0.64505  0.92015  1.0000 0.1127843986
H   H27       1.0  0.07985  0.07985  0.48535  1.0000 0.1127843986
H   H28       1.0  0.51465  0.64505  0.92015  1.0000 0.1127843986
H   H29       1.0  0.07985  0.48535  0.07985  1.0000 0.1127843986
H   H30       1.0  0.35495  0.07985  0.48535  1.0000 0.1127843986
H   H31       1.0  0.92105  0.92105  0.76539  1.0000 0.1127843986
H   H32       1.0  0.92105  0.92105  0.39251  1.0000 0.1127843986
H   H33       1.0  0.07895  0.23461  0.07895  1.0000 0.1127843986
H   H34       1.0  0.60749  0.07895  0.23461  1.0000 0.1127843986
H   H35       1.0  0.76539  0.39251  0.92105  1.0000 0.1127843986
H   H36       1.0  0.07895  0.07895  0.23461  1.0000 0.1127843986
H   H37       1.0  0.76539  0.92105  0.39251  1.0000 0.1127843986
H   H38       1.0  0.92105  0.39251  0.92105  1.0000 0.1127843986
H   H39       1.0  0.60749  0.23461  0.07895  1.0000 0.1127843986
H   H40       1.0  0.92105  0.76539  0.39251  1.0000 0.1127843986
H   H41       1.0  0.23461  0.07895  0.07895  1.0000 0.1127843986
H   H42       1.0  0.60749  0.07895  0.07895  1.0000 0.1127843986
H   H43       1.0  0.92105  0.39251  0.76539  1.0000 0.1127843986
H   H44       1.0  0.39251  0.92105  0.92105  1.0000 0.1127843986
H   H45       1.0  0.07895  0.60749  0.23461  1.0000 0.1127843986
H   H46       1.0  0.07895  0.23461  0.60749  1.0000 0.1127843986
H   H47       1.0  0.76539  0.92105  0.92105  1.0000 0.1127843986
H   H48       1.0  0.23461  0.60749  0.07895  1.0000 0.1127843986
H   H49       1.0  0.39251  0.92105  0.76539  1.0000 0.1127843986
H   H50       1.0  0.92105  0.76539  0.92105  1.0000 0.1127843986
H   H51       1.0  0.07895  0.07895  0.60749  1.0000 0.1127843986
H   H52       1.0  0.39251  0.76539  0.92105  1.0000 0.1127843986
H   H53       1.0  0.07895  0.60749  0.07895  1.0000 0.1127843986
H   H54       1.0  0.23461  0.07895  0.60749  1.0000 0.1127843986
C   C1        1.0  0.00000  0.00000  0.57746  1.0000 0.0849151138
C   C2        1.0  0.00000  0.00000  0.42254  1.0000 0.0849151138
C   C3        1.0  0.00000  0.42254  0.00000  1.0000 0.0849151138
C   C4        1.0  0.57746  0.00000  0.42254  1.0000 0.0849151138
C   C5        1.0  0.57746  0.42254  0.00000  1.0000 0.0849151138
C   C6        1.0  0.00000  0.57746  0.42254  1.0000 0.0849151138
C   C7        1.0  0.42254  0.00000  0.00000  1.0000 0.0849151138
C   C8        1.0  0.57746  0.00000  0.00000  1.0000 0.0849151138
C   C9        1.0  0.00000  0.42254  0.57746  1.0000 0.0849151138
C   C10       1.0  0.42254  0.57746  0.00000  1.0000 0.0849151138
C   C11       1.0  0.42254  0.00000  0.57746  1.0000 0.0853901561
C   C12       1.0  0.00000  0.57746  0.00000  1.0000 0.0849151138
C   C13       1.0  0.95257  0.95257  0.58615  1.0000 -0.1463432275
C   C14       1.0  0.95257  0.95257  0.50871  1.0000 -0.1463432275
C   C15       1.0  0.04743  0.41385  0.04743  1.0000 -0.1463432275
C   C16       1.0  0.49129  0.04743  0.41385  1.0000 -0.1463432275
C   C17       1.0  0.58615  0.50871  0.95257  1.0000 -0.1463432275
C   C18       1.0  0.04743  0.04743  0.41385  1.0000 -0.1463432275
C   C19       1.0  0.58615  0.95257  0.50871  1.0000 -0.1463432275
C   C20       1.0  0.95257  0.50871  0.95257  1.0000 -0.1463432275
C   C21       1.0  0.49129  0.41385  0.04743  1.0000 -0.1463432275
C   C22       1.0  0.95257  0.58615  0.50871  1.0000 -0.1463432275
C   C23       1.0  0.41385  0.04743  0.04743  1.0000 -0.1463432275
C   C24       1.0  0.49129  0.04743  0.04743  1.0000 -0.1463432275
C   C25       1.0  0.95257  0.50871  0.58615  1.0000 -0.1463432275
C   C26       1.0  0.50871  0.95257  0.95257  1.0000 -0.1463432275
C   C27       1.0  0.04743  0.49129  0.41385  1.0000 -0.1463432275
C   C28       1.0  0.04743  0.41385  0.49129  1.0000 -0.1463432275
C   C29       1.0  0.58615  0.95257  0.95257  1.0000 -0.1463432275
C   C30       1.0  0.41385  0.49129  0.04743  1.0000 -0.1463432275
C   C31       1.0  0.50871  0.95257  0.58615  1.0000 -0.1463432275
C   C32       1.0  0.95257  0.58615  0.95257  1.0000 -0.1463432275
C   C33       1.0  0.04743  0.04743  0.49129  1.0000 -0.1463432275
C   C34       1.0  0.50871  0.58615  0.95257  1.0000 -0.1463432275
C   C35       1.0  0.04743  0.49129  0.04743  1.0000 -0.1463432275
C   C36       1.0  0.41385  0.04743  0.49129  1.0000 -0.1463432275
C   C37       1.0  0.00000  0.00000  0.65824  1.0000 -0.0286387774
C   C38       1.0  0.00000  0.00000  0.34176  1.0000 -0.0286387774
C   C39       1.0  0.00000  0.34176  0.00000  1.0000 -0.0286387774
C   C40       1.0  0.65824  0.00000  0.34176  1.0000 -0.0286387774
C   C41       1.0  0.65824  0.34176  0.00000  1.0000 -0.0286387774
C   C42       1.0  0.00000  0.65824  0.34176  1.0000 -0.0286387774
C   C43       1.0  0.34176  0.00000  0.00000  1.0000 -0.0286387774
C   C44       1.0  0.65824  0.00000  0.00000  1.0000 -0.0286387774
C   C45       1.0  0.00000  0.34176  0.65824  1.0000 -0.0286387774
C   C46       1.0  0.34176  0.65824  0.00000  1.0000 -0.0286387774
C   C47       1.0  0.34176  0.00000  0.65824  1.0000 -0.0286387774
C   C48       1.0  0.00000  0.65824  0.00000  1.0000 -0.0286387774
C   C49       1.0  0.95665  0.95665  0.74615  1.0000 -0.0716377414
C   C50       1.0  0.95665  0.95665  0.34055  1.0000 -0.0716377414
C   C51       1.0  0.04335  0.25385  0.04335  1.0000 -0.0716377414
C   C52       1.0  0.65945  0.04335  0.25385  1.0000 -0.0716377414
C   C53       1.0  0.74615  0.34055  0.95665  1.0000 -0.0716377414
C   C54       1.0  0.04335  0.04335  0.25385  1.0000 -0.0716377414
C   C55       1.0  0.74615  0.95665  0.34055  1.0000 -0.0716377414
C   C56       1.0  0.95665  0.34055  0.95665  1.0000 -0.0716377414
C   C57       1.0  0.65945  0.25385  0.04335  1.0000 -0.0716377414
C   C58       1.0  0.95665  0.74615  0.34055  1.0000 -0.0716377414
C   C59       1.0  0.25385  0.04335  0.04335  1.0000 -0.0716377414
C   C60       1.0  0.65945  0.04335  0.04335  1.0000 -0.0716377414
C   C61       1.0  0.95665  0.34055  0.74615  1.0000 -0.0716377414
C   C62       1.0  0.34055  0.95665  0.95665  1.0000 -0.0716377414
C   C63       1.0  0.04335  0.65945  0.25385  1.0000 -0.0716377414
C   C64       1.0  0.04335  0.25385  0.65945  1.0000 -0.0716377414
C   C65       1.0  0.74615  0.95665  0.95665  1.0000 -0.0716377414
C   C66       1.0  0.25385  0.65945  0.04335  1.0000 -0.0716377414
C   C67       1.0  0.34055  0.95665  0.74615  1.0000 -0.0716377414
C   C68       1.0  0.95665  0.74615  0.95665  1.0000 -0.0716377414
C   C69       1.0  0.04335  0.04335  0.65945  1.0000 -0.0716377414
C   C70       1.0  0.34055  0.74615  0.95665  1.0000 -0.0716377414
C   C71       1.0  0.04335  0.65945  0.04335  1.0000 -0.0716377414
C   C72       1.0  0.25385  0.04335  0.65945  1.0000 -0.0716377414
N   N1        1.0  0.97321  0.97321  0.80165  1.0000 -0.1689112001
N   N2        1.0  0.97321  0.97321  0.25193  1.0000 -0.1689112001
N   N3        1.0  0.02679  0.19835  0.02679  1.0000 -0.1689112001
N   N4        1.0  0.74807  0.02679  0.19835  1.0000 -0.1689112001
N   N5        1.0  0.80165  0.25193  0.97321  1.0000 -0.1689112001
N   N6        1.0  0.02679  0.02679  0.19835  1.0000 -0.1689112001
N   N7        1.0  0.80165  0.97321  0.25193  1.0000 -0.1689112001
N   N8        1.0  0.97321  0.25193  0.97321  1.0000 -0.1689112001
N   N9        1.0  0.74807  0.19835  0.02679  1.0000 -0.1689112001
N   N10       1.0  0.97321  0.80165  0.25193  1.0000 -0.1689112001
N   N11       1.0  0.19835  0.02679  0.02679  1.0000 -0.1689112001
N   N12       1.0  0.74807  0.02679  0.02679  1.0000 -0.1689112001
N   N13       1.0  0.97321  0.25193  0.80165  1.0000 -0.1689112001
N   N14       1.0  0.25193  0.97321  0.97321  1.0000 -0.1689112001
N   N15       1.0  0.02679  0.74807  0.19835  1.0000 -0.1689112001
N   N16       1.0  0.02679  0.19835  0.74807  1.0000 -0.1689112001
N   N17       1.0  0.80165  0.97321  0.97321  1.0000 -0.1689112001
N   N18       1.0  0.19835  0.74807  0.02679  1.0000 -0.1689112001
N   N19       1.0  0.25193  0.97321  0.80165  1.0000 -0.1689112001
N   N20       1.0  0.97321  0.80165  0.97321  1.0000 -0.1689112001
N   N21       1.0  0.02679  0.02679  0.74807  1.0000 -0.1689112001
N   N22       1.0  0.25193  0.80165  0.97321  1.0000 -0.1689112001
N   N23       1.0  0.02679  0.74807  0.02679  1.0000 -0.1689112001
N   N24       1.0  0.19835  0.02679  0.74807  1.0000 -0.1689112001
O   O1        1.0  0.91307  0.08693  0.08693  1.0000 -0.7462093402
O   O2        1.0  0.08693  0.91307  0.91307  1.0000 -0.7462093402
O   O3        1.0  0.91307  0.08693  0.91307  1.0000 -0.7462093402
O   O4        1.0  0.08693  0.08693  0.91307  1.0000 -0.7462093402
O   O5        1.0  0.91307  0.91307  0.08693  1.0000 -0.7462093402
O   O6        1.0  0.08693  0.91307  0.08693  1.0000 -0.7462093402
