# DDEC6 charges by PACMAN v1.1 (https://github.com/mtap-research/PACMAN-charge/)
data_2013[Zn][nan]3[FSR]31
_chemical_formula_sum              "Zn6 H48 C60 N4 O24"
_cell_length_a       9.775
_cell_length_b       18.958
_cell_length_c       12.06
_cell_angle_alpha    90
_cell_angle_beta     117.661
_cell_angle_gamma    90

_symmetry_space_group_name_H-M    "P 1"
_symmetry_Int_Tables_number       1

loop_
  _symmetry_equiv_pos_as_xyz
  'x, y, z'

loop_
  _atom_site_type_symbol
  _atom_site_label
  _atom_site_symmetry_multiplicity
  _atom_site_fract_x
  _atom_site_fract_y
  _atom_site_fract_z
  _atom_site_occupancy
  _atom_site_charge
Zn  Zn1       1.0  0.50000  0.00000  0.50000  1.0000 1.0170403497
Zn  Zn2       1.0  0.50000  0.50000  0.00000  1.0000 1.0170403497
Zn  Zn3       1.0  0.81845  0.99443  0.45346  1.0000 0.9363527821
Zn  Zn4       1.0  0.18155  0.49443  0.04654  1.0000 0.9363527821
Zn  Zn5       1.0  0.18155  0.00557  0.54654  1.0000 0.9363527821
Zn  Zn6       1.0  0.81845  0.50557  0.95346  1.0000 0.9363527821
H   H1        1.0  0.65930  0.16940  0.17910  1.0000 0.1216554137
H   H2        1.0  0.34070  0.66940  0.32090  1.0000 0.1216554137
H   H3        1.0  0.34070  0.83060  0.82090  1.0000 0.1216554137
H   H4        1.0  0.65930  0.33060  0.67910  1.0000 0.1216554137
H   H5        1.0  0.58280  0.28110  0.09010  1.0000 0.1216554137
H   H6        1.0  0.41720  0.78110  0.40990  1.0000 0.1216554137
H   H7        1.0  0.41720  0.71890  0.90990  1.0000 0.1216554137
H   H8        1.0  0.58280  0.21890  0.59010  1.0000 0.1216554137
H   H9        1.0  0.29070  0.29590  0.24200  1.0000 0.1216554137
H   H10       1.0  0.70930  0.79590  0.25800  1.0000 0.1216554137
H   H11       1.0  0.70930  0.70410  0.75800  1.0000 0.1216554137
H   H12       1.0  0.29070  0.20410  0.74200  1.0000 0.1216554137
H   H13       1.0  0.36540  0.18360  0.32960  1.0000 0.1283766368
H   H14       1.0  0.63460  0.68360  0.17040  1.0000 0.1283766368
H   H15       1.0  0.63460  0.81640  0.67040  1.0000 0.1283766368
H   H16       1.0  0.36540  0.31640  0.82960  1.0000 0.1283766368
H   H17       1.0  0.71180  0.05550  0.77790  1.0000 0.1607987118
H   H18       1.0  0.28820  0.55550  0.72210  1.0000 0.1607987118
H   H19       1.0  0.28820  0.94450  0.22210  1.0000 0.1607987118
H   H20       1.0  0.71180  0.44450  0.27790  1.0000 0.1607987118
H   H21       1.0  0.91550  0.08800  0.96710  1.0000 0.1216554137
H   H22       1.0  0.08450  0.58800  0.53290  1.0000 0.1216554137
H   H23       1.0  0.08450  0.91200  0.03290  1.0000 0.1216554137
H   H24       1.0  0.91550  0.41200  0.46710  1.0000 0.1216554137
H   H25       1.0  0.16150  0.10680  0.09620  1.0000 0.1440959351
H   H26       1.0  0.83850  0.60680  0.40380  1.0000 0.1440959351
H   H27       1.0  0.83850  0.89320  0.90380  1.0000 0.1440959351
H   H28       1.0  0.16150  0.39320  0.59620  1.0000 0.1440959351
H   H29       1.0  0.27950  0.05320  0.08280  1.0000 0.1440959351
H   H30       1.0  0.72050  0.55320  0.41720  1.0000 0.1440959351
H   H31       1.0  0.72050  0.94680  0.91720  1.0000 0.1440959351
H   H32       1.0  0.27950  0.44680  0.58280  1.0000 0.1440959351
H   H33       1.0  0.26130  0.13180  0.02920  1.0000 0.1440959351
H   H34       1.0  0.73870  0.63180  0.47080  1.0000 0.1440959351
H   H35       1.0  0.73870  0.86820  0.97080  1.0000 0.1440959351
H   H36       1.0  0.26130  0.36820  0.52920  1.0000 0.1440959351
H   H37       1.0  0.33870  0.01050  0.93940  1.0000 0.1523822659
H   H38       1.0  0.66130  0.51050  0.56060  1.0000 0.1523822659
H   H39       1.0  0.66130  0.98950  0.06060  1.0000 0.1523822659
H   H40       1.0  0.33870  0.48950  0.43940  1.0000 0.1523822659
H   H41       1.0  0.29410  0.01190  0.79390  1.0000 0.1607987118
H   H42       1.0  0.70590  0.51190  0.70610  1.0000 0.1607987118
H   H43       1.0  0.70590  0.98810  0.20610  1.0000 0.1607987118
H   H44       1.0  0.29410  0.48810  0.29390  1.0000 0.1607987118
H   H45       1.0  0.33290  0.08400  0.87190  1.0000 0.1523822659
H   H46       1.0  0.66710  0.58400  0.62810  1.0000 0.1523822659
H   H47       1.0  0.66710  0.91600  0.12810  1.0000 0.1523822659
H   H48       1.0  0.33290  0.41600  0.37190  1.0000 0.1523822659
C   C1        1.0  0.57444  0.09492  0.32502  1.0000 0.5867809133
C   C2        1.0  0.42556  0.59492  0.17498  1.0000 0.5867809133
C   C3        1.0  0.42556  0.90508  0.67498  1.0000 0.5867809133
C   C4        1.0  0.57444  0.40508  0.82502  1.0000 0.5867809133
C   C5        1.0  0.52215  0.16627  0.26474  1.0000 -0.0211900396
C   C6        1.0  0.47785  0.66627  0.23526  1.0000 -0.0211900396
C   C7        1.0  0.47785  0.83373  0.73526  1.0000 -0.0211900396
C   C8        1.0  0.52215  0.33373  0.76474  1.0000 -0.0211900396
C   C9        1.0  0.58498  0.19526  0.19241  1.0000 -0.1178863885
C   C10       1.0  0.41502  0.69526  0.30759  1.0000 -0.1178863885
C   C11       1.0  0.41502  0.80474  0.80759  1.0000 -0.1178863885
C   C12       1.0  0.58498  0.30474  0.69241  1.0000 -0.1178863885
C   C13       1.0  0.53969  0.26172  0.13960  1.0000 -0.1140259605
C   C14       1.0  0.46031  0.76172  0.36040  1.0000 -0.1140259605
C   C15       1.0  0.46031  0.73828  0.86040  1.0000 -0.1140259605
C   C16       1.0  0.53969  0.23828  0.63960  1.0000 -0.1140259605
C   C17       1.0  0.43099  0.30006  0.15923  1.0000 -0.0211900396
C   C18       1.0  0.56901  0.80006  0.34077  1.0000 -0.0211900396
C   C19       1.0  0.56901  0.69994  0.84077  1.0000 -0.0211900396
C   C20       1.0  0.43099  0.19994  0.65923  1.0000 -0.0211900396
C   C21       1.0  0.36613  0.27034  0.22971  1.0000 -0.1140259605
C   C22       1.0  0.63387  0.77034  0.27029  1.0000 -0.1140259605
C   C23       1.0  0.63387  0.72966  0.77029  1.0000 -0.1140259605
C   C24       1.0  0.36613  0.22966  0.72971  1.0000 -0.1140259605
C   C25       1.0  0.41062  0.20365  0.28214  1.0000 -0.1178863885
C   C26       1.0  0.58938  0.70365  0.21786  1.0000 -0.1178863885
C   C27       1.0  0.58938  0.79635  0.71786  1.0000 -0.1178863885
C   C28       1.0  0.41062  0.29635  0.78214  1.0000 -0.1178863885
C   C29       1.0  0.38818  0.37369  0.10683  1.0000 0.5867809133
C   C30       1.0  0.61182  0.87369  0.39317  1.0000 0.5867809133
C   C31       1.0  0.61182  0.62631  0.89317  1.0000 0.5867809133
C   C32       1.0  0.38818  0.12631  0.60683  1.0000 0.5867809133
C   C33       1.0  0.99958  0.02960  0.71085  1.0000 0.1283766368
C   C34       1.0  0.00042  0.52960  0.78915  1.0000 0.1283766368
C   C35       1.0  0.00042  0.97040  0.28915  1.0000 0.1283766368
C   C36       1.0  0.99958  0.47040  0.21085  1.0000 0.1283766368
C   C37       1.0  0.84237  0.03157  0.69037  1.0000 0.2864398138
C   C38       1.0  0.15763  0.53157  0.80963  1.0000 0.2864398138
C   C39       1.0  0.15763  0.96843  0.30963  1.0000 0.2864398138
C   C40       1.0  0.84237  0.46843  0.19037  1.0000 0.2864398138
C   C41       1.0  0.81459  0.05347  0.78905  1.0000 -0.2887680753
C   C42       1.0  0.18541  0.55347  0.71095  1.0000 -0.2887680753
C   C43       1.0  0.18541  0.94653  0.21095  1.0000 -0.2887680753
C   C44       1.0  0.81459  0.44653  0.28905  1.0000 -0.2887680753
C   C45       1.0  0.93554  0.07199  0.90141  1.0000 -0.0211900396
C   C46       1.0  0.06446  0.57199  0.59859  1.0000 -0.0211900396
C   C47       1.0  0.06446  0.92801  0.09859  1.0000 -0.0211900396
C   C48       1.0  0.93554  0.42801  0.40141  1.0000 -0.0211900396
C   C49       1.0  0.11837  0.04528  0.82842  1.0000 0.1216554137
C   C50       1.0  0.88163  0.54528  0.67158  1.0000 0.1216554137
C   C51       1.0  0.88163  0.95472  0.17158  1.0000 0.1216554137
C   C52       1.0  0.11837  0.45472  0.32842  1.0000 0.1216554137
C   C53       1.0  0.20674  0.09194  0.04244  1.0000 -0.3580956681
C   C54       1.0  0.79326  0.59194  0.45756  1.0000 -0.3580956681
C   C55       1.0  0.79326  0.90806  0.95756  1.0000 -0.3580956681
C   C56       1.0  0.20674  0.40806  0.54244  1.0000 -0.3580956681
C   C57       1.0  0.28545  0.03724  0.86123  1.0000 -0.4781058877
C   C58       1.0  0.71455  0.53724  0.63877  1.0000 -0.4781058877
C   C59       1.0  0.71455  0.96276  0.13877  1.0000 -0.4781058877
C   C60       1.0  0.28545  0.46276  0.36123  1.0000 -0.4781058877
N   N1        1.0  0.08291  0.06785  0.92066  1.0000 0.0565464992
N   N2        1.0  0.91709  0.56785  0.57934  1.0000 0.0565464992
N   N3        1.0  0.91709  0.93215  0.07934  1.0000 0.0565464992
N   N4        1.0  0.08291  0.43215  0.42066  1.0000 0.0565464992
O   O1        1.0  0.71134  0.07760  0.34986  1.0000 -0.5400416775
O   O2        1.0  0.28866  0.57760  0.15014  1.0000 -0.5400416775
O   O3        1.0  0.28866  0.92240  0.65014  1.0000 -0.5400416775
O   O4        1.0  0.71134  0.42240  0.84986  1.0000 -0.5400416775
O   O5        1.0  0.48152  0.05859  0.34483  1.0000 -0.5501778456
O   O6        1.0  0.51848  0.55859  0.15517  1.0000 -0.5501778456
O   O7        1.0  0.51848  0.94141  0.65517  1.0000 -0.5551548226
O   O8        1.0  0.48152  0.44141  0.84483  1.0000 -0.5501778456
O   O9        1.0  0.26659  0.39950  0.10424  1.0000 -0.5501778456
O   O10       1.0  0.73341  0.89950  0.39576  1.0000 -0.5501778456
O   O11       1.0  0.73341  0.60050  0.89576  1.0000 -0.5501778456
O   O12       1.0  0.26659  0.10050  0.60424  1.0000 -0.5501778456
O   O13       1.0  0.47608  0.40315  0.07247  1.0000 -0.5501778456
O   O14       1.0  0.52392  0.90315  0.42753  1.0000 -0.5501778456
O   O15       1.0  0.52392  0.59685  0.92753  1.0000 -0.5501778456
O   O16       1.0  0.47608  0.09685  0.57247  1.0000 -0.5501778456
O   O17       1.0  0.02006  0.00979  0.61365  1.0000 -0.511556737
O   O18       1.0  0.97994  0.50979  0.88635  1.0000 -0.511556737
O   O19       1.0  0.97994  0.99021  0.38635  1.0000 -0.511556737
O   O20       1.0  0.02006  0.49021  0.11365  1.0000 -0.511556737
O   O21       1.0  0.73570  0.01280  0.58058  1.0000 -0.529360555
O   O22       1.0  0.26430  0.51280  0.91942  1.0000 -0.529360555
O   O23       1.0  0.26430  0.98720  0.41942  1.0000 -0.529360555
O   O24       1.0  0.73570  0.48720  0.08058  1.0000 -0.529360555
