# DDEC6 charges by PACMAN v1.1 (https://github.com/mtap-research/PACMAN-charge/)
data_2013[Pr][nan]3[FSR]1
_chemical_formula_sum              "Pr4 H108 C84 N24 O28"
_cell_length_a       8.2402
_cell_length_b       26.692
_cell_length_c       16.5758
_cell_angle_alpha    90
_cell_angle_beta     100.848
_cell_angle_gamma    90

_symmetry_space_group_name_H-M    "P 1"
_symmetry_Int_Tables_number       1

loop_
  _symmetry_equiv_pos_as_xyz
  'x, y, z'

loop_
  _atom_site_type_symbol
  _atom_site_label
  _atom_site_symmetry_multiplicity
  _atom_site_fract_x
  _atom_site_fract_y
  _atom_site_fract_z
  _atom_site_occupancy
  _atom_site_charge
Pr  Pr1       1.0  0.21513  0.74385  0.73198  1.0000 2.1136457166
Pr  Pr2       1.0  0.28487  0.24385  0.26803  1.0000 2.1136457166
Pr  Pr3       1.0  0.78487  0.25615  0.26803  1.0000 2.1136457166
Pr  Pr4       1.0  0.71513  0.75615  0.73198  1.0000 2.1136457166
H   H1        1.0  0.50100  0.78080  0.50501  1.0000 0.1210362638
H   H2        1.0  0.99900  0.28080  0.49500  1.0000 0.1210362638
H   H3        1.0  0.49900  0.21920  0.49500  1.0000 0.1210362638
H   H4        1.0  0.00100  0.71920  0.50501  1.0000 0.1210362638
H   H5        1.0  0.25830  0.74540  0.43161  1.0000 0.1210362638
H   H6        1.0  0.24170  0.24540  0.56839  1.0000 0.1210362638
H   H7        1.0  0.74170  0.25460  0.56839  1.0000 0.1210362638
H   H8        1.0  0.75830  0.75460  0.43161  1.0000 0.1210362638
H   H9        1.0  0.16590  0.79690  0.43180  1.0000 0.1210362638
H   H10       1.0  0.33410  0.29690  0.56820  1.0000 0.1210362638
H   H11       1.0  0.83410  0.20310  0.56820  1.0000 0.1210362638
H   H12       1.0  0.66590  0.70310  0.43180  1.0000 0.1210362638
H   H13       1.0  0.42790  0.77750  0.34791  1.0000 0.1014532591
H   H14       1.0  0.07210  0.27750  0.65209  1.0000 0.1014532591
H   H15       1.0  0.57210  0.22250  0.65209  1.0000 0.1014532591
H   H16       1.0  0.92790  0.72250  0.34791  1.0000 0.1014532591
H   H17       1.0  0.24450  0.78860  0.30571  1.0000 0.1093787953
H   H18       1.0  0.25550  0.28860  0.69430  1.0000 0.1093787953
H   H19       1.0  0.75550  0.21140  0.69430  1.0000 0.1093787953
H   H20       1.0  0.74450  0.71140  0.30571  1.0000 0.1093787953
H   H21       1.0  0.49640  0.90400  0.42051  1.0000 0.1014532591
H   H22       1.0  0.00360  0.40400  0.57949  1.0000 0.1014532591
H   H23       1.0  0.50360  0.09600  0.57949  1.0000 0.1014532591
H   H24       1.0  0.99640  0.59600  0.42051  1.0000 0.1014532591
H   H25       1.0  0.59220  0.85290  0.42430  1.0000 0.1014532591
H   H26       1.0  0.90780  0.35290  0.57570  1.0000 0.1014532591
H   H27       1.0  0.40780  0.14710  0.57570  1.0000 0.1014532591
H   H28       1.0  0.09220  0.64710  0.42430  1.0000 0.1014532591
H   H29       1.0  0.32180  0.87170  0.50411  1.0000 0.1093787953
H   H30       1.0  0.17820  0.37170  0.49589  1.0000 0.1093787953
H   H31       1.0  0.67820  0.12830  0.49589  1.0000 0.1093787953
H   H32       1.0  0.82180  0.62830  0.50411  1.0000 0.1093787953
H   H33       1.0  0.50550  0.86450  0.54961  1.0000 0.1278152195
H   H34       1.0  0.99450  0.36450  0.45039  1.0000 0.1278152195
H   H35       1.0  0.49450  0.13550  0.45039  1.0000 0.1278152195
H   H36       1.0  0.00550  0.63550  0.54961  1.0000 0.1278152195
H   H37       1.0  0.88600  0.81870  0.07810  1.0000 0.1093787953
H   H38       1.0  0.61400  0.31870  0.92190  1.0000 0.1093787953
H   H39       1.0  0.11400  0.18130  0.92190  1.0000 0.1093787953
H   H40       1.0  0.38600  0.68130  0.07810  1.0000 0.1093787953
H   H41       1.0  0.04420  0.80210  0.14070  1.0000 0.1093787953
H   H42       1.0  0.45580  0.30210  0.85930  1.0000 0.1093787953
H   H43       1.0  0.95580  0.19790  0.85930  1.0000 0.1093787953
H   H44       1.0  0.54420  0.69790  0.14070  1.0000 0.1093787953
H   H45       1.0  0.00960  0.75420  0.01781  1.0000 0.1210362638
H   H46       1.0  0.49040  0.25420  0.98220  1.0000 0.1210362638
H   H47       1.0  0.99040  0.24580  0.98220  1.0000 0.1210362638
H   H48       1.0  0.50960  0.74580  0.01781  1.0000 0.1210362638
H   H49       1.0  0.18050  0.78210  0.03451  1.0000 0.1210362638
H   H50       1.0  0.31950  0.28210  0.96549  1.0000 0.1210362638
H   H51       1.0  0.81950  0.21790  0.96549  1.0000 0.1210362638
H   H52       1.0  0.68050  0.71790  0.03451  1.0000 0.1210362638
H   H53       1.0  0.89600  0.81490  0.92300  1.0000 0.1210362638
H   H54       1.0  0.60400  0.31490  0.07699  1.0000 0.1210362638
H   H55       1.0  0.10400  0.18510  0.07699  1.0000 0.1210362638
H   H56       1.0  0.39600  0.68510  0.92300  1.0000 0.1210362638
H   H57       1.0  0.20270  0.86620  0.95400  1.0000 0.1278152195
H   H58       1.0  0.29730  0.36620  0.04600  1.0000 0.1278152195
H   H59       1.0  0.79730  0.13380  0.04600  1.0000 0.1278152195
H   H60       1.0  0.70270  0.63380  0.95400  1.0000 0.1278152195
H   H61       1.0  0.04510  0.88410  0.89231  1.0000 0.1278152195
H   H62       1.0  0.45490  0.38410  0.10769  1.0000 0.1278152195
H   H63       1.0  0.95490  0.11590  0.10769  1.0000 0.1278152195
H   H64       1.0  0.54510  0.61590  0.89231  1.0000 0.1278152195
H   H65       1.0  0.07520  0.92820  0.01781  1.0000 0.1093787953
H   H66       1.0  0.42480  0.42820  0.98220  1.0000 0.1093787953
H   H67       1.0  0.92480  0.07180  0.98220  1.0000 0.1093787953
H   H68       1.0  0.57520  0.57180  0.01781  1.0000 0.1093787953
H   H69       1.0  0.90620  0.89930  0.99921  1.0000 0.1014532591
H   H70       1.0  0.59380  0.39930  0.00080  1.0000 0.1014532591
H   H71       1.0  0.09380  0.10070  0.00080  1.0000 0.1014532591
H   H72       1.0  0.40620  0.60070  0.99921  1.0000 0.1014532591
H   H73       1.0  0.28700  0.01090  0.09370  1.0000 0.1014532591
H   H74       1.0  0.21300  0.51090  0.90629  1.0000 0.1014532591
H   H75       1.0  0.71300  0.98910  0.90629  1.0000 0.1014532591
H   H76       1.0  0.78700  0.48910  0.09370  1.0000 0.1014532591
H   H77       1.0  0.47980  0.01230  0.10161  1.0000 0.1014532591
H   H78       1.0  0.02020  0.51230  0.89840  1.0000 0.1014532591
H   H79       1.0  0.52020  0.98770  0.89840  1.0000 0.1014532591
H   H80       1.0  0.97980  0.48770  0.10161  1.0000 0.1014532591
H   H81       1.0  0.29010  0.08710  0.16120  1.0000 0.1210362638
H   H82       1.0  0.20990  0.58710  0.83879  1.0000 0.1210362638
H   H83       1.0  0.70990  0.91290  0.83879  1.0000 0.1210362638
H   H84       1.0  0.79010  0.41290  0.16120  1.0000 0.1210362638
H   H85       1.0  0.38170  0.09390  0.08700  1.0000 0.1210362638
H   H86       1.0  0.11830  0.59390  0.91300  1.0000 0.1210362638
H   H87       1.0  0.61830  0.90610  0.91300  1.0000 0.1210362638
H   H88       1.0  0.88170  0.40610  0.08700  1.0000 0.1210362638
H   H89       1.0  0.65100  0.07810  0.31821  1.0000 0.1278152195
H   H90       1.0  0.84900  0.57810  0.68180  1.0000 0.1278152195
H   H91       1.0  0.34900  0.92190  0.68180  1.0000 0.1278152195
H   H92       1.0  0.15100  0.42190  0.31821  1.0000 0.1278152195
H   H93       1.0  0.45720  0.07720  0.30490  1.0000 0.1210362638
H   H94       1.0  0.04280  0.57720  0.69510  1.0000 0.1210362638
H   H95       1.0  0.54280  0.92280  0.69510  1.0000 0.1210362638
H   H96       1.0  0.95720  0.42280  0.30490  1.0000 0.1210362638
H   H97       1.0  0.65340  0.00160  0.25011  1.0000 0.1014532591
H   H98       1.0  0.84660  0.50160  0.74989  1.0000 0.1014532591
H   H99       1.0  0.34660  0.99840  0.74989  1.0000 0.1014532591
H   H100      1.0  0.15340  0.49840  0.25011  1.0000 0.1014532591
H   H101      1.0  0.55180  0.99460  0.32050  1.0000 0.1093787953
H   H102      1.0  0.94820  0.49460  0.67949  1.0000 0.1093787953
H   H103      1.0  0.44820  0.00540  0.67949  1.0000 0.1093787953
H   H104      1.0  0.05180  0.50540  0.32050  1.0000 0.1093787953
H   H105      1.0  0.63900  0.08580  0.17500  1.0000 0.1093787953
H   H106      1.0  0.86100  0.58580  0.82500  1.0000 0.1093787953
H   H107      1.0  0.36100  0.91420  0.82500  1.0000 0.1093787953
H   H108      1.0  0.13900  0.41420  0.17500  1.0000 0.1093787953
C   C1        1.0  0.39630  0.79773  0.50621  1.0000 -0.1182581699
C   C2        1.0  0.10370  0.29773  0.49379  1.0000 -0.1182581699
C   C3        1.0  0.60370  0.20227  0.49379  1.0000 -0.1182581699
C   C4        1.0  0.89630  0.70227  0.50621  1.0000 -0.1182581699
C   C5        1.0  0.27220  0.78150  0.43071  1.0000 -0.1942435662
C   C6        1.0  0.22780  0.28150  0.56929  1.0000 -0.1942435662
C   C7        1.0  0.72780  0.21850  0.56929  1.0000 -0.1942435662
C   C8        1.0  0.77220  0.71850  0.43071  1.0000 -0.1942435662
C   C9        1.0  0.32990  0.79654  0.35271  1.0000 -0.0889973504
C   C10       1.0  0.17010  0.29654  0.64729  1.0000 -0.0889973504
C   C11       1.0  0.67010  0.20346  0.64729  1.0000 -0.0889973504
C   C12       1.0  0.82990  0.70346  0.35271  1.0000 -0.0889973504
C   C13       1.0  0.48480  0.86790  0.42371  1.0000 -0.0847135718
C   C14       1.0  0.01520  0.36790  0.57630  1.0000 -0.0847135718
C   C15       1.0  0.51520  0.13210  0.57630  1.0000 -0.0847135718
C   C16       1.0  0.98480  0.63210  0.42371  1.0000 -0.0847135718
C   C17       1.0  0.42430  0.85415  0.50240  1.0000 -0.1974355113
C   C18       1.0  0.07570  0.35415  0.49760  1.0000 -0.1974355113
C   C19       1.0  0.57570  0.14585  0.49760  1.0000 -0.1974355113
C   C20       1.0  0.92430  0.64585  0.50240  1.0000 -0.1974355113
C   C21       1.0  0.32420  0.87800  0.28280  1.0000 0.4656377872
C   C22       1.0  0.17580  0.37800  0.71720  1.0000 0.4656377872
C   C23       1.0  0.67580  0.12200  0.71720  1.0000 0.4578684012
C   C24       1.0  0.82420  0.62200  0.28280  1.0000 0.4578684012
C   C25       1.0  0.17630  0.88725  0.15480  1.0000 0.4578684012
C   C26       1.0  0.32370  0.38725  0.84520  1.0000 0.4578684012
C   C27       1.0  0.82370  0.11275  0.84520  1.0000 0.4578684012
C   C28       1.0  0.67630  0.61275  0.15480  1.0000 0.4578684012
C   C29       1.0  0.34090  0.94923  0.21241  1.0000 0.4578684012
C   C30       1.0  0.15910  0.44923  0.78760  1.0000 0.4578684012
C   C31       1.0  0.65910  0.05077  0.78760  1.0000 0.4578684012
C   C32       1.0  0.84090  0.55077  0.21241  1.0000 0.4544263621
C   C33       1.0  0.33950  0.78356  0.58551  1.0000 0.6110167196
C   C34       1.0  0.16050  0.28356  0.41450  1.0000 0.6110167196
C   C35       1.0  0.66050  0.21644  0.41450  1.0000 0.6110167196
C   C36       1.0  0.83950  0.71644  0.58551  1.0000 0.6110167196
C   C37       1.0  0.00580  0.81781  0.08771  1.0000 -0.0889973504
C   C38       1.0  0.49420  0.31781  0.91229  1.0000 -0.0889973504
C   C39       1.0  0.99420  0.18219  0.91229  1.0000 -0.0889973504
C   C40       1.0  0.50580  0.68219  0.08771  1.0000 -0.0889973504
C   C41       1.0  0.06190  0.78691  0.02090  1.0000 -0.1974355113
C   C42       1.0  0.43810  0.28691  0.97910  1.0000 -0.1974355113
C   C43       1.0  0.93810  0.21309  0.97910  1.0000 -0.1974355113
C   C44       1.0  0.56190  0.71309  0.02090  1.0000 -0.1974355113
C   C45       1.0  0.01650  0.81330  0.93771  1.0000 -0.1182581699
C   C46       1.0  0.48350  0.31330  0.06230  1.0000 -0.1182581699
C   C47       1.0  0.98350  0.18670  0.06230  1.0000 -0.1182581699
C   C48       1.0  0.51650  0.68670  0.93771  1.0000 -0.1182581699
C   C49       1.0  0.08290  0.86689  0.94391  1.0000 -0.1974355113
C   C50       1.0  0.41710  0.36689  0.05609  1.0000 -0.1974355113
C   C51       1.0  0.91710  0.13311  0.05609  1.0000 -0.1974355113
C   C52       1.0  0.58290  0.63311  0.94391  1.0000 -0.1974355113
C   C53       1.0  0.02520  0.89513  0.01251  1.0000 -0.0889973504
C   C54       1.0  0.47480  0.39513  0.98750  1.0000 -0.0889973504
C   C55       1.0  0.97480  0.10487  0.98750  1.0000 -0.0889973504
C   C56       1.0  0.52520  0.60487  0.01251  1.0000 -0.0889973504
C   C57       1.0  0.38930  0.02143  0.12860  1.0000 -0.0889973504
C   C58       1.0  0.11070  0.52143  0.87140  1.0000 -0.0889973504
C   C59       1.0  0.61070  0.97857  0.87140  1.0000 -0.0889973504
C   C60       1.0  0.88930  0.47857  0.12860  1.0000 -0.0889973504
C   C61       1.0  0.38740  0.07759  0.13981  1.0000 -0.1974355113
C   C62       1.0  0.11260  0.57759  0.86020  1.0000 -0.1974355113
C   C63       1.0  0.61260  0.92241  0.86020  1.0000 -0.1974355113
C   C64       1.0  0.88740  0.42241  0.13981  1.0000 -0.1974355113
C   C65       1.0  0.55140  0.06796  0.28081  1.0000 -0.1942435662
C   C66       1.0  0.94860  0.56796  0.71920  1.0000 -0.1942435662
C   C67       1.0  0.44860  0.93204  0.71920  1.0000 -0.1942435662
C   C68       1.0  0.05140  0.43204  0.28081  1.0000 -0.1942435662
C   C69       1.0  0.55310  0.01126  0.26860  1.0000 -0.0889973504
C   C70       1.0  0.94690  0.51126  0.73140  1.0000 -0.0889973504
C   C71       1.0  0.44690  0.98874  0.73140  1.0000 -0.0889973504
C   C72       1.0  0.05310  0.48874  0.26860  1.0000 -0.0889973504
C   C73       1.0  0.54710  0.15147  0.21560  1.0000 0.6353483786
C   C74       1.0  0.95290  0.65147  0.78439  1.0000 0.6353483786
C   C75       1.0  0.45290  0.84853  0.78439  1.0000 0.6353483786
C   C76       1.0  0.04710  0.34853  0.21560  1.0000 0.6353483786
C   C77       1.0  0.07930  0.78562  0.87101  1.0000 0.6202517291
C   C78       1.0  0.42070  0.28562  0.12899  1.0000 0.6202517291
C   C79       1.0  0.92070  0.21438  0.12899  1.0000 0.6202517291
C   C80       1.0  0.57930  0.71438  0.87101  1.0000 0.6202517291
C   C81       1.0  0.54140  0.09500  0.19850  1.0000 -0.1098793606
C   C82       1.0  0.95860  0.59500  0.80150  1.0000 -0.1098793606
C   C83       1.0  0.45860  0.90500  0.80150  1.0000 -0.1098793606
C   C84       1.0  0.04140  0.40500  0.19850  1.0000 -0.1098793606
N   N1        1.0  0.36730  0.85003  0.35201  1.0000 -0.1098793606
N   N2        1.0  0.13270  0.35003  0.64799  1.0000 -0.1098793606
N   N3        1.0  0.63270  0.14997  0.64799  1.0000 -0.1043816368
N   N4        1.0  0.86730  0.64997  0.35201  1.0000 -0.1098793606
N   N5        1.0  0.21830  0.85687  0.22031  1.0000 -0.5465865592
N   N6        1.0  0.28170  0.35687  0.77970  1.0000 -0.5465865592
N   N7        1.0  0.78170  0.14313  0.77970  1.0000 -0.5465865592
N   N8        1.0  0.71830  0.64313  0.22031  1.0000 -0.5465865592
N   N9        1.0  0.39100  0.92338  0.28280  1.0000 -0.5270397822
N   N10       1.0  0.10900  0.42338  0.71720  1.0000 -0.5270397822
N   N11       1.0  0.60900  0.07662  0.71720  1.0000 -0.5270397822
N   N12       1.0  0.89100  0.57662  0.28280  1.0000 -0.5249383608
N   N13       1.0  0.23150  0.93387  0.14750  1.0000 -0.5404105047
N   N14       1.0  0.26850  0.43387  0.85250  1.0000 -0.5404105047
N   N15       1.0  0.76850  0.06613  0.85250  1.0000 -0.5404105047
N   N16       1.0  0.73150  0.56613  0.14750  1.0000 -0.5404105047
N   N17       1.0  0.06930  0.86861  0.08930  1.0000 -0.0889973504
N   N18       1.0  0.43070  0.36861  0.91070  1.0000 -0.0889973504
N   N19       1.0  0.93070  0.13139  0.91070  1.0000 -0.0889973504
N   N20       1.0  0.56930  0.63139  0.08930  1.0000 -0.0889973504
N   N21       1.0  0.40840  0.99564  0.20780  1.0000 -0.1098793606
N   N22       1.0  0.09160  0.49564  0.79219  1.0000 -0.1098793606
N   N23       1.0  0.59160  0.00436  0.79219  1.0000 -0.1098793606
N   N24       1.0  0.90840  0.50436  0.20780  1.0000 -0.1098793606
O   O1        1.0  0.44280  0.76659  0.64560  1.0000 -0.6785315434
O   O2        1.0  0.05720  0.26659  0.35440  1.0000 -0.6785315434
O   O3        1.0  0.55720  0.23341  0.35440  1.0000 -0.6785315434
O   O4        1.0  0.94280  0.73341  0.64560  1.0000 -0.6785315434
O   O5        1.0  0.19080  0.78753  0.59120  1.0000 -0.5703178803
O   O6        1.0  0.30920  0.28753  0.40880  1.0000 -0.5703178803
O   O7        1.0  0.80920  0.21247  0.40880  1.0000 -0.5703178803
O   O8        1.0  0.69080  0.71247  0.59120  1.0000 -0.5703178803
O   O9        1.0  0.98780  0.78472  0.79841  1.0000 -0.7346787314
O   O10       1.0  0.51220  0.28472  0.20159  1.0000 -0.7346787314
O   O11       1.0  0.01220  0.21528  0.20159  1.0000 -0.7346787314
O   O12       1.0  0.48780  0.71528  0.79841  1.0000 -0.7346787314
O   O13       1.0  0.27340  0.66549  0.65480  1.0000 -0.607121856
O   O14       1.0  0.22660  0.16549  0.34519  1.0000 -0.607121856
O   O15       1.0  0.72660  0.33451  0.34519  1.0000 -0.607121856
O   O16       1.0  0.77340  0.83451  0.65480  1.0000 -0.607121856
O   O17       1.0  0.41410  0.17494  0.20830  1.0000 -0.6316904585
O   O18       1.0  0.08590  0.67494  0.79170  1.0000 -0.6316904585
O   O19       1.0  0.58590  0.82506  0.79170  1.0000 -0.6316904585
O   O20       1.0  0.91410  0.32506  0.20830  1.0000 -0.6316904585
O   O21       1.0  0.21830  0.76595  0.88350  1.0000 -0.5856927792
O   O22       1.0  0.28170  0.26595  0.11650  1.0000 -0.5856927792
O   O23       1.0  0.78170  0.23405  0.11650  1.0000 -0.5856927792
O   O24       1.0  0.71830  0.73405  0.88350  1.0000 -0.5856927792
O   O25       1.0  0.69040  0.16997  0.23891  1.0000 -0.6500519822
O   O26       1.0  0.80960  0.66997  0.76109  1.0000 -0.6500519822
O   O27       1.0  0.30960  0.83003  0.76109  1.0000 -0.6500519822
O   O28       1.0  0.19040  0.33003  0.23891  1.0000 -0.6500519822
