# DDEC6 charges by PACMAN v1.1 (https://github.com/mtap-research/PACMAN-charge/)
data_2013[CoNd][nan]3[FSR]1
_chemical_formula_sum              "Nd16 Co8 H272 C384 N64 O176"
_cell_length_a       32.867
_cell_length_b       32.867
_cell_length_c       32.867
_cell_angle_alpha    91.6718
_cell_angle_beta     91.6718
_cell_angle_gamma    160.331

_symmetry_space_group_name_H-M    "P 1"
_symmetry_Int_Tables_number       1

loop_
  _symmetry_equiv_pos_as_xyz
  'x, y, z'

loop_
  _atom_site_type_symbol
  _atom_site_label
  _atom_site_symmetry_multiplicity
  _atom_site_fract_x
  _atom_site_fract_y
  _atom_site_fract_z
  _atom_site_occupancy
  _atom_site_charge
Nd  Nd1       1.0  0.83746  0.91637  0.27927  1.0000 2.0229740894
Nd  Nd2       1.0  0.80819  0.58746  0.42109  1.0000 2.0229740894
Nd  Nd3       1.0  0.63710  0.55819  0.72073  1.0000 2.0229740894
Nd  Nd4       1.0  0.16637  0.38710  0.57891  1.0000 2.0229740894
Nd  Nd5       1.0  0.41254  0.83363  0.22073  1.0000 2.0229740894
Nd  Nd6       1.0  0.44181  0.16254  0.07891  1.0000 2.0229740894
Nd  Nd7       1.0  0.61290  0.19181  0.77927  1.0000 2.0229740894
Nd  Nd8       1.0  0.08363  0.36290  0.92109  1.0000 2.0229740894
Nd  Nd9       1.0  0.33368  0.41050  0.27626  1.0000 2.0465838468
Nd  Nd10      1.0  0.30742  0.08368  0.42318  1.0000 2.0465838468
Nd  Nd11      1.0  0.13424  0.05742  0.72374  1.0000 2.0465838468
Nd  Nd12      1.0  0.66050  0.88424  0.57682  1.0000 2.0465838468
Nd  Nd13      1.0  0.91632  0.33950  0.22374  1.0000 2.0465838468
Nd  Nd14      1.0  0.94258  0.66632  0.07682  1.0000 2.0465838468
Nd  Nd15      1.0  0.11576  0.69258  0.77626  1.0000 2.0465838468
Nd  Nd16      1.0  0.58950  0.86576  0.92318  1.0000 2.0465838468
Co  Co1       1.0  0.91350  0.79267  0.21311  1.0000 0.5415639585
Co  Co2       1.0  0.95039  0.66350  0.62083  1.0000 0.5415639585
Co  Co3       1.0  0.57956  0.70039  0.78689  1.0000 0.5415639585
Co  Co4       1.0  0.04267  0.32956  0.37917  1.0000 0.5415639585
Co  Co5       1.0  0.33650  0.95733  0.28689  1.0000 0.5415639585
Co  Co6       1.0  0.29961  0.08650  0.87917  1.0000 0.5415639585
Co  Co7       1.0  0.67044  0.04961  0.71311  1.0000 0.5415639585
Co  Co8       1.0  0.20733  0.42044  0.12083  1.0000 0.5415639585
H   H1        1.0  0.87980  0.95430  0.19510  1.0000 0.3676628954
H   H2        1.0  0.93470  0.62980  0.42550  1.0000 0.3647664046
H   H3        1.0  0.75920  0.68470  0.80490  1.0000 0.3647664046
H   H4        1.0  0.20430  0.50920  0.57450  1.0000 0.3676628954
H   H5        1.0  0.37020  0.79570  0.30490  1.0000 0.3676628954
H   H6        1.0  0.31530  0.12020  0.07450  1.0000 0.3647664046
H   H7        1.0  0.49080  0.06530  0.69510  1.0000 0.3647664046
H   H8        1.0  0.04570  0.24080  0.92550  1.0000 0.3647664046
H   H9        1.0  0.81720  0.93170  0.19870  1.0000 0.3676628954
H   H10       1.0  0.86850  0.56720  0.38550  1.0000 0.3676628954
H   H11       1.0  0.73300  0.61850  0.80130  1.0000 0.3676628954
H   H12       1.0  0.18170  0.48300  0.61450  1.0000 0.3676628954
H   H13       1.0  0.43280  0.81830  0.30130  1.0000 0.3676628954
H   H14       1.0  0.38150  0.18280  0.11450  1.0000 0.3676628954
H   H15       1.0  0.51700  0.13150  0.69870  1.0000 0.3676628954
H   H16       1.0  0.06830  0.26700  0.88550  1.0000 0.3676628954
H   H17       1.0  0.76630  0.77240  0.23770  1.0000 0.3417134142
H   H18       1.0  0.77860  0.51630  0.49390  1.0000 0.3417134142
H   H19       1.0  0.53470  0.52860  0.76230  1.0000 0.3417134142
H   H20       1.0  0.02240  0.28470  0.50610  1.0000 0.3417134142
H   H21       1.0  0.48370  0.97760  0.26230  1.0000 0.3417134142
H   H22       1.0  0.47140  0.23370  0.00610  1.0000 0.3417134142
H   H23       1.0  0.71530  0.22140  0.73770  1.0000 0.3417134142
H   H24       1.0  0.22760  0.46530  0.99390  1.0000 0.3417134142
H   H25       1.0  0.65940  0.69460  0.23140  1.0000 0.380157886
H   H26       1.0  0.67800  0.40940  0.46480  1.0000 0.380157886
H   H27       1.0  0.46320  0.42800  0.76860  1.0000 0.380157886
H   H28       1.0  0.94460  0.21320  0.53520  1.0000 0.380157886
H   H29       1.0  0.59060  0.05540  0.26860  1.0000 0.380157886
H   H30       1.0  0.57200  0.34060  0.03520  1.0000 0.380157886
H   H31       1.0  0.78680  0.32200  0.73140  1.0000 0.380157886
H   H32       1.0  0.30540  0.53680  0.96480  1.0000 0.380157886
H   H33       1.0  0.29630  0.25610  0.29340  1.0000 0.1394946464
H   H34       1.0  0.25290  0.04630  0.54020  1.0000 0.1394946464
H   H35       1.0  0.96270  0.00290  0.70660  1.0000 0.1394946464
H   H36       1.0  0.50610  0.71270  0.45980  1.0000 0.1394946464
H   H37       1.0  0.95370  0.49390  0.20660  1.0000 0.1394946464
H   H38       1.0  0.99710  0.70370  0.95980  1.0000 0.1394946464
H   H39       1.0  0.28730  0.74710  0.79340  1.0000 0.1394946464
H   H40       1.0  0.74390  0.03730  0.04020  1.0000 0.1394946464
H   H41       1.0  0.90060  0.11230  0.22390  1.0000 0.1294339649
H   H42       1.0  0.92670  0.65060  0.28830  1.0000 0.1294339649
H   H43       1.0  0.88840  0.67670  0.77610  1.0000 0.1294339649
H   H44       1.0  0.36230  0.63840  0.71170  1.0000 0.1294339649
H   H45       1.0  0.34940  0.63770  0.27610  1.0000 0.1294339649
H   H46       1.0  0.32330  0.09940  0.21170  1.0000 0.1294339649
H   H47       1.0  0.36160  0.07330  0.72390  1.0000 0.1294339649
H   H48       1.0  0.88770  0.11160  0.78830  1.0000 0.1294339649
H   H49       1.0  0.34350  0.23170  0.28700  1.0000 0.1294339649
H   H50       1.0  0.30650  0.09350  0.61180  1.0000 0.1294339649
H   H51       1.0  0.94470  0.05650  0.71300  1.0000 0.1294339649
H   H52       1.0  0.48170  0.69470  0.38820  1.0000 0.1294339649
H   H53       1.0  0.90650  0.51830  0.21300  1.0000 0.1294339649
H   H54       1.0  0.94350  0.65650  0.88820  1.0000 0.1294339649
H   H55       1.0  0.30530  0.69350  0.78700  1.0000 0.1294339649
H   H56       1.0  0.76830  0.05530  0.11180  1.0000 0.1294339649
H   H57       1.0  0.39690  0.43470  0.20060  1.0000 0.3676628954
H   H58       1.0  0.44630  0.14690  0.46220  1.0000 0.3676628954
H   H59       1.0  0.23410  0.19630  0.79940  1.0000 0.3676628954
H   H60       1.0  0.68470  0.98410  0.53780  1.0000 0.3676628954
H   H61       1.0  0.85310  0.31530  0.29940  1.0000 0.3676628954
H   H62       1.0  0.80370  0.60310  0.03780  1.0000 0.3676628954
H   H63       1.0  0.01590  0.55370  0.70060  1.0000 0.3676628954
H   H64       1.0  0.56530  0.76590  0.96220  1.0000 0.3676628954
H   H65       1.0  0.28010  0.30750  0.20300  1.0000 0.380157886
H   H66       1.0  0.32710  0.03010  0.47260  1.0000 0.380157886
H   H67       1.0  0.10450  0.07710  0.79700  1.0000 0.380157886
H   H68       1.0  0.55750  0.85450  0.52740  1.0000 0.380157886
H   H69       1.0  0.96990  0.44250  0.29700  1.0000 0.380157886
H   H70       1.0  0.92290  0.71990  0.02740  1.0000 0.380157886
H   H71       1.0  0.14550  0.67290  0.70300  1.0000 0.380157886
H   H72       1.0  0.69250  0.89550  0.97260  1.0000 0.380157886
H   H73       1.0  0.13580  0.22660  0.20560  1.0000 0.380157886
H   H74       1.0  0.18020  0.88580  0.40920  1.0000 0.380157886
H   H75       1.0  0.02100  0.93020  0.79440  1.0000 0.380157886
H   H76       1.0  0.47660  0.77100  0.59080  1.0000 0.380157886
H   H77       1.0  0.11420  0.52340  0.29440  1.0000 0.380157886
H   H78       1.0  0.06980  0.86420  0.09080  1.0000 0.380157886
H   H79       1.0  0.22900  0.81980  0.70560  1.0000 0.380157886
H   H80       1.0  0.77340  0.97900  0.90920  1.0000 0.380157886
H   H81       1.0  0.19000  0.31680  0.20720  1.0000 0.3491063571
H   H82       1.0  0.23280  0.94000  0.37320  1.0000 0.3491063571
H   H83       1.0  0.10960  0.98280  0.79280  1.0000 0.3491063571
H   H84       1.0  0.56680  0.85960  0.62680  1.0000 0.3491063571
H   H85       1.0  0.06000  0.43320  0.29280  1.0000 0.3491063571
H   H86       1.0  0.01720  0.81000  0.12680  1.0000 0.3491063571
H   H87       1.0  0.14040  0.76720  0.70720  1.0000 0.3491063571
H   H88       1.0  0.68320  0.89040  0.87320  1.0000 0.3491063571
H   H89       1.0  0.46830  0.57510  0.35380  1.0000 0.3879838591
H   H90       1.0  0.36450  0.21830  0.39320  1.0000 0.3879838591
H   H91       1.0  0.22130  0.11450  0.64620  1.0000 0.3879838591
H   H92       1.0  0.82510  0.97130  0.60680  1.0000 0.3879838591
H   H93       1.0  0.78170  0.17490  0.14620  1.0000 0.3879838591
H   H94       1.0  0.88550  0.53170  0.10680  1.0000 0.3879838591
H   H95       1.0  0.02870  0.63550  0.85380  1.0000 0.3879838591
H   H96       1.0  0.42490  0.77870  0.89320  1.0000 0.3879838591
H   H97       1.0  0.45730  0.59710  0.32480  1.0000 0.3987252569
H   H98       1.0  0.38250  0.20730  0.36020  1.0000 0.3987252569
H   H99       1.0  0.27230  0.13250  0.67520  1.0000 0.3987252569
H   H100      1.0  0.84710  0.02230  0.63980  1.0000 0.3987252569
H   H101      1.0  0.79270  0.15290  0.17520  1.0000 0.3987252569
H   H102      1.0  0.86750  0.54270  0.13980  1.0000 0.3987252569
H   H103      1.0  0.97770  0.61750  0.82480  1.0000 0.3987252569
H   H104      1.0  0.40290  0.72770  0.86020  1.0000 0.3987252569
H   H105      1.0  0.94360  0.22190  0.22210  1.0000 0.1294339649
H   H106      1.0  0.97150  0.69360  0.22170  1.0000 0.1294339649
H   H107      1.0  0.99980  0.72150  0.77790  1.0000 0.1294339649
H   H108      1.0  0.47190  0.74980  0.77830  1.0000 0.1294339649
H   H109      1.0  0.30640  0.52810  0.27790  1.0000 0.1294339649
H   H110      1.0  0.27850  0.05640  0.27830  1.0000 0.1294339649
H   H111      1.0  0.25020  0.02850  0.72210  1.0000 0.1294339649
H   H112      1.0  0.77810  0.00020  0.72170  1.0000 0.1294339649
H   H113      1.0  0.20040  0.05440  0.24940  1.0000 0.1101495415
H   H114      1.0  0.20100  0.95040  0.64600  1.0000 0.1101495415
H   H115      1.0  0.80500  0.95100  0.75060  1.0000 0.1101495415
H   H116      1.0  0.30440  0.55500  0.35400  1.0000 0.1101495415
H   H117      1.0  0.04960  0.69560  0.25060  1.0000 0.1101495415
H   H118      1.0  0.04900  0.79960  0.85400  1.0000 0.1101495415
H   H119      1.0  0.44500  0.79900  0.74940  1.0000 0.1101495415
H   H120      1.0  0.94560  0.19500  0.14600  1.0000 0.1101495415
H   H121      1.0  0.02190  0.33010  0.28280  1.0000 0.1101495415
H   H122      1.0  0.98910  0.77190  0.19180  1.0000 0.1101495415
H   H123      1.0  0.04730  0.73910  0.71720  1.0000 0.1101495415
H   H124      1.0  0.58010  0.79730  0.80820  1.0000 0.1101495415
H   H125      1.0  0.22810  0.41990  0.21720  1.0000 0.1101495415
H   H126      1.0  0.26090  0.97810  0.30820  1.0000 0.1101495415
H   H127      1.0  0.20270  0.01090  0.78280  1.0000 0.1101495415
H   H128      1.0  0.66990  0.95270  0.69180  1.0000 0.1101495415
H   H129      1.0  0.83520  0.86550  0.12470  1.0000 0.1394946464
H   H130      1.0  0.96050  0.58520  0.46970  1.0000 0.1394946464
H   H131      1.0  0.74080  0.71050  0.87530  1.0000 0.1394946464
H   H132      1.0  0.11550  0.49080  0.53030  1.0000 0.1394946464
H   H133      1.0  0.41480  0.88450  0.37530  1.0000 0.1394946464
H   H134      1.0  0.28950  0.16480  0.03030  1.0000 0.1394946464
H   H135      1.0  0.50920  0.03950  0.62470  1.0000 0.1394946464
H   H136      1.0  0.13450  0.25920  0.96970  1.0000 0.1394946464
H   H137      1.0  0.69390  0.63210  0.16280  1.0000 0.1197471823
H   H138      1.0  0.78110  0.44390  0.56180  1.0000 0.1197471823
H   H139      1.0  0.46930  0.53110  0.83720  1.0000 0.1197471823
H   H140      1.0  0.88210  0.21930  0.43820  1.0000 0.1197471823
H   H141      1.0  0.55610  0.11790  0.33720  1.0000 0.1197471823
H   H142      1.0  0.46890  0.30610  0.93820  1.0000 0.1197471823
H   H143      1.0  0.78070  0.21890  0.66280  1.0000 0.1197471823
H   H144      1.0  0.36790  0.53070  0.06180  1.0000 0.1197471823
H   H145      1.0  0.23410  0.35200  0.40890  1.0000 0.1394946464
H   H146      1.0  0.07520  0.98410  0.38210  1.0000 0.1394946464
H   H147      1.0  0.94310  0.82520  0.59110  1.0000 0.1394946464
H   H148      1.0  0.60200  0.69310  0.61790  1.0000 0.1394946464
H   H149      1.0  0.01590  0.39800  0.09110  1.0000 0.1394946464
H   H150      1.0  0.17480  0.76590  0.11790  1.0000 0.1394946464
H   H151      1.0  0.30690  0.92480  0.90890  1.0000 0.1394946464
H   H152      1.0  0.64800  0.05690  0.88210  1.0000 0.1294339649
H   H153      1.0  0.06970  0.29340  0.45230  1.0000 0.1101495415
H   H154      1.0  0.86740  0.81970  0.27630  1.0000 0.1101495415
H   H155      1.0  0.84110  0.61740  0.54770  1.0000 0.1101495415
H   H156      1.0  0.54340  0.59110  0.72370  1.0000 0.1101495415
H   H157      1.0  0.18030  0.45660  0.04770  1.0000 0.1101495415
H   H158      1.0  0.38260  0.93030  0.22370  1.0000 0.1101495415
H   H159      1.0  0.40890  0.13260  0.95230  1.0000 0.1101495415
H   H160      1.0  0.70660  0.15890  0.77630  1.0000 0.1101495415
H   H161      1.0  0.67320  0.66750  0.12070  1.0000 0.1394946464
H   H162      1.0  0.80250  0.42320  0.50570  1.0000 0.1394946464
H   H163      1.0  0.54680  0.55250  0.87930  1.0000 0.1394946464
H   H164      1.0  0.91750  0.29680  0.49430  1.0000 0.1394946464
H   H165      1.0  0.57680  0.08250  0.37930  1.0000 0.1394946464
H   H166      1.0  0.44750  0.32680  0.99430  1.0000 0.1394946464
H   H167      1.0  0.70320  0.19750  0.62070  1.0000 0.1394946464
H   H168      1.0  0.33250  0.45320  0.00570  1.0000 0.1394946464
H   H169      1.0  0.65560  0.84460  0.23140  1.0000 0.1294339649
H   H170      1.0  0.67420  0.40560  0.31100  1.0000 0.1294339649
H   H171      1.0  0.61320  0.42420  0.76860  1.0000 0.1294339649
H   H172      1.0  0.09460  0.36320  0.68900  1.0000 0.1294339649
H   H173      1.0  0.59440  0.90540  0.26860  1.0000 0.1294339649
H   H174      1.0  0.57580  0.34440  0.18900  1.0000 0.1294339649
H   H175      1.0  0.63680  0.32580  0.73140  1.0000 0.1294339649
H   H176      1.0  0.15540  0.38680  0.81100  1.0000 0.1294339649
H   H177      1.0  0.56670  0.50380  0.29330  1.0000 0.1197471823
H   H178      1.0  0.52340  0.31670  0.56290  1.0000 0.1197471823
H   H179      1.0  0.21050  0.27340  0.70670  1.0000 0.1197471823
H   H180      1.0  0.75380  0.96050  0.43710  1.0000 0.1197471823
H   H181      1.0  0.68330  0.24620  0.20670  1.0000 0.1197471823
H   H182      1.0  0.72660  0.43330  0.93710  1.0000 0.1197471823
H   H183      1.0  0.03950  0.47660  0.79330  1.0000 0.1197471823
H   H184      1.0  0.49620  0.78950  0.06290  1.0000 0.1197471823
H   H185      1.0  0.17540  0.33240  0.46400  1.0000 0.1499445518
H   H186      1.0  0.96140  0.92540  0.34300  1.0000 0.1499445518
H   H187      1.0  0.86840  0.71140  0.53600  1.0000 0.1499445518
H   H188      1.0  0.58240  0.61840  0.65700  1.0000 0.1499445518
H   H189      1.0  0.07460  0.41760  0.03600  1.0000 0.1499445518
H   H190      1.0  0.28860  0.82460  0.15700  1.0000 0.1499445518
H   H191      1.0  0.38160  0.03860  0.96400  1.0000 0.1499445518
H   H192      1.0  0.66760  0.13160  0.84300  1.0000 0.1499445518
H   H193      1.0  0.62530  0.86980  0.18650  1.0000 0.1294339649
H   H194      1.0  0.68880  0.37530  0.25550  1.0000 0.1294339649
H   H195      1.0  0.68330  0.43880  0.81350  1.0000 0.1294339649
H   H196      1.0  0.11980  0.43330  0.74450  1.0000 0.1294339649
H   H197      1.0  0.62470  0.88020  0.31350  1.0000 0.1294339649
H   H198      1.0  0.56120  0.37470  0.24450  1.0000 0.1294339649
H   H199      1.0  0.56670  0.31120  0.68650  1.0000 0.1294339649
H   H200      1.0  0.13020  0.31670  0.75550  1.0000 0.1294339649
H   H201      1.0  0.68990  0.56820  0.32530  1.0000 0.1294339649
H   H202      1.0  0.61460  0.43990  0.62170  1.0000 0.1294339649
H   H203      1.0  0.24290  0.36460  0.67470  1.0000 0.1294339649
H   H204      1.0  0.81820  0.99290  0.37830  1.0000 0.1294339649
H   H205      1.0  0.56010  0.18180  0.17470  1.0000 0.1294339649
H   H206      1.0  0.63540  0.31010  0.87830  1.0000 0.1294339649
H   H207      1.0  0.00710  0.38540  0.82530  1.0000 0.1294339649
H   H208      1.0  0.43180  0.75710  0.12170  1.0000 0.1294339649
H   H209      1.0  0.45350  0.70600  0.13510  1.0000 0.1101495415
H   H210      1.0  0.56840  0.20350  0.24750  1.0000 0.1101495415
H   H211      1.0  0.57090  0.31840  0.86490  1.0000 0.1101495415
H   H212      1.0  0.95600  0.32090  0.75250  1.0000 0.1101495415
H   H213      1.0  0.79650  0.04400  0.36490  1.0000 0.1101495415
H   H214      1.0  0.68160  0.54650  0.25250  1.0000 0.1101495415
H   H215      1.0  0.67910  0.43160  0.63510  1.0000 0.1101495415
H   H216      1.0  0.29400  0.42910  0.74750  1.0000 0.1101495415
H   H217      1.0  0.80330  0.68980  0.38550  1.0000 0.1294339649
H   H218      1.0  0.66780  0.55330  0.61350  1.0000 0.1294339649
H   H219      1.0  0.30430  0.41780  0.61450  1.0000 0.1294339649
H   H220      1.0  0.93980  0.05430  0.38650  1.0000 0.1294339649
H   H221      1.0  0.44670  0.06020  0.11450  1.0000 0.1294339649
H   H222      1.0  0.58220  0.19670  0.88650  1.0000 0.1294339649
H   H223      1.0  0.94570  0.33220  0.88550  1.0000 0.1294339649
H   H224      1.0  0.31020  0.69570  0.11350  1.0000 0.1294339649
H   H225      1.0  0.33400  0.37300  0.12340  1.0000 0.1394946464
H   H226      1.0  0.46060  0.08400  0.46100  1.0000 0.1394946464
H   H227      1.0  0.24960  0.21060  0.87660  1.0000 0.1394946464
H   H228      1.0  0.62300  0.99960  0.53900  1.0000 0.1394946464
H   H229      1.0  0.91600  0.37700  0.37660  1.0000 0.1394946464
H   H230      1.0  0.78940  0.66600  0.03900  1.0000 0.1394946464
H   H231      1.0  0.00040  0.53940  0.62340  1.0000 0.1394946464
H   H232      1.0  0.62700  0.75040  0.96100  1.0000 0.1394946464
H   H233      1.0  0.07290  0.21050  0.11040  1.0000 0.1197471823
H   H234      1.0  0.21250  0.82290  0.36240  1.0000 0.1197471823
H   H235      1.0  0.10010  0.96250  0.88960  1.0000 0.1197471823
H   H236      1.0  0.46050  0.85010  0.63760  1.0000 0.1197471823
H   H237      1.0  0.17710  0.53950  0.38960  1.0000 0.1197471823
H   H238      1.0  0.03750  0.92710  0.13760  1.0000 0.1197471823
H   H239      1.0  0.14990  0.78750  0.61040  1.0000 0.1197471823
H   H240      1.0  0.78950  0.89990  0.86240  1.0000 0.1197471823
H   H241      1.0  0.66070  0.77590  0.40640  1.0000 0.1101495415
H   H242      1.0  0.50430  0.41070  0.38480  1.0000 0.1101495415
H   H243      1.0  0.36950  0.25430  0.59360  1.0000 0.1101495415
H   H244      1.0  0.02590  0.11950  0.61520  1.0000 0.1101495415
H   H245      1.0  0.58930  0.97410  0.09360  1.0000 0.1101495415
H   H246      1.0  0.74570  0.33930  0.11520  1.0000 0.1101495415
H   H247      1.0  0.88050  0.49570  0.90640  1.0000 0.1101495415
H   H248      1.0  0.22410  0.63050  0.88480  1.0000 0.1101495415
H   H249      1.0  0.58930  0.63340  0.49090  1.0000 0.1101495415
H   H250      1.0  0.34840  0.33930  0.45590  1.0000 0.1101495415
H   H251      1.0  0.14250  0.09840  0.50910  1.0000 0.1101495415
H   H252      1.0  0.88340  0.89250  0.54410  1.0000 0.1101495415
H   H253      1.0  0.66070  0.11660  0.00910  1.0000 0.1101495415
H   H254      1.0  0.90160  0.41070  0.04410  1.0000 0.1101495415
H   H255      1.0  0.10750  0.65160  0.99090  1.0000 0.1101495415
H   H256      1.0  0.36660  0.85750  0.95590  1.0000 0.1101495415
H   H257      1.0  0.12960  0.19840  0.10200  1.0000 0.1499445518
H   H258      1.0  0.27760  0.87960  0.43120  1.0000 0.1499445518
H   H259      1.0  0.09640  0.02760  0.89800  1.0000 0.1499445518
H   H260      1.0  0.44840  0.84640  0.56880  1.0000 0.1499445518
H   H261      1.0  0.12040  0.55160  0.39800  1.0000 0.1499445518
H   H262      1.0  0.97240  0.87040  0.06880  1.0000 0.1499445518
H   H263      1.0  0.15360  0.72240  0.60200  1.0000 0.1499445518
H   H264      1.0  0.80160  0.90360  0.93120  1.0000 0.1499445518
H   H265      1.0  0.57990  0.68960  0.46710  1.0000 0.1294339649
H   H266      1.0  0.36280  0.32990  0.39030  1.0000 0.1294339649
H   H267      1.0  0.22250  0.11280  0.53290  1.0000 0.1294339649
H   H268      1.0  0.93960  0.97250  0.60970  1.0000 0.1294339649
H   H269      1.0  0.67010  0.06040  0.03290  1.0000 0.1294339649
H   H270      1.0  0.88720  0.42010  0.10970  1.0000 0.1294339649
H   H271      1.0  0.02750  0.63720  0.96710  1.0000 0.1294339649
H   H272      1.0  0.31040  0.77750  0.89030  1.0000 0.1294339649
C   C1        1.0  0.09989  0.11256  0.26105  1.0000 0.6483631885
C   C2        1.0  0.08884  0.84989  0.48733  1.0000 0.6483631885
C   C3        1.0  0.85151  0.83884  0.73895  1.0000 0.6483631885
C   C4        1.0  0.36256  0.60151  0.51267  1.0000 0.6483631885
C   C5        1.0  0.15011  0.63744  0.23895  1.0000 0.6483631885
C   C6        1.0  0.16116  0.90011  0.01267  1.0000 0.6483631885
C   C7        1.0  0.39849  0.91116  0.76105  1.0000 0.6483631885
C   C8        1.0  0.88744  0.14849  0.98733  1.0000 0.6483631885
C   C9        1.0  0.93256  0.09121  0.28597  1.0000 0.5459377101
C   C10       1.0  0.89659  0.68256  0.34135  1.0000 0.5459377101
C   C11       1.0  0.80524  0.64659  0.71403  1.0000 0.5459377101
C   C12       1.0  0.34121  0.55524  0.65865  1.0000 0.5459377101
C   C13       1.0  0.31744  0.65879  0.21403  1.0000 0.5459377101
C   C14       1.0  0.35341  0.06744  0.15865  1.0000 0.5459377101
C   C15       1.0  0.44476  0.10341  0.78597  1.0000 0.5459377101
C   C16       1.0  0.90879  0.19476  0.84135  1.0000 0.5459377101
C   C17       1.0  0.13790  0.10483  0.25293  1.0000 -0.0805029819
C   C18       1.0  0.13497  0.88790  0.53307  1.0000 -0.0805029819
C   C19       1.0  0.85190  0.88497  0.74707  1.0000 -0.0805029819
C   C20       1.0  0.35483  0.60190  0.46693  1.0000 -0.0805029819
C   C21       1.0  0.11210  0.64517  0.24707  1.0000 -0.0805029819
C   C22       1.0  0.11503  0.86210  0.96693  1.0000 -0.0805029819
C   C23       1.0  0.39810  0.86503  0.75293  1.0000 -0.0805029819
C   C24       1.0  0.89517  0.14810  0.03307  1.0000 -0.0805029819
C   C25       1.0  0.97252  0.17311  0.28423  1.0000 -0.0394243499
C   C26       1.0  0.93829  0.72252  0.29941  1.0000 -0.0394243499
C   C27       1.0  0.88888  0.68829  0.71577  1.0000 -0.0394243499
C   C28       1.0  0.42311  0.63888  0.70059  1.0000 -0.0394243499
C   C29       1.0  0.27748  0.57689  0.21577  1.0000 -0.0394243499
C   C30       1.0  0.31171  0.02748  0.20059  1.0000 -0.0394243499
C   C31       1.0  0.36112  0.06171  0.78423  1.0000 -0.0394243499
C   C32       1.0  0.82689  0.11112  0.79941  1.0000 -0.0394243499
C   C33       1.0  0.24330  0.18880  0.27590  1.0000 -0.0394243499
C   C34       1.0  0.21740  0.99330  0.55450  1.0000 -0.0394243499
C   C35       1.0  0.91290  0.96740  0.72410  1.0000 -0.0394243499
C   C36       1.0  0.43880  0.66290  0.44550  1.0000 -0.0394243499
C   C37       1.0  0.00670  0.56120  0.22410  1.0000 -0.0394243499
C   C38       1.0  0.03260  0.75670  0.94550  1.0000 -0.0394243499
C   C39       1.0  0.33710  0.78260  0.77590  1.0000 -0.0394243499
C   C40       1.0  0.81120  0.08710  0.05450  1.0000 -0.0394243499
C   C41       1.0  0.06442  0.00888  0.22530  1.0000 0.1601612126
C   C42       1.0  0.08912  0.81442  0.55554  1.0000 0.1601612126
C   C43       1.0  0.78358  0.83912  0.77470  1.0000 0.1601612126
C   C44       1.0  0.25888  0.53358  0.44446  1.0000 0.1601612126
C   C45       1.0  0.18558  0.74112  0.27470  1.0000 0.1601612126
C   C46       1.0  0.16088  0.93558  0.94446  1.0000 0.1601612126
C   C47       1.0  0.46642  0.91088  0.72530  1.0000 0.1601612126
C   C48       1.0  0.99112  0.21642  0.05554  1.0000 0.1601612126
C   C49       1.0  0.93862  0.16203  0.24765  1.0000 -0.0805029819
C   C50       1.0  0.94097  0.68862  0.27659  1.0000 -0.0805029819
C   C51       1.0  0.91438  0.69097  0.75235  1.0000 -0.0805029819
C   C52       1.0  0.41203  0.66438  0.72341  1.0000 -0.0805029819
C   C53       1.0  0.31138  0.58797  0.25235  1.0000 -0.0805029819
C   C54       1.0  0.30903  0.06138  0.22341  1.0000 -0.0805029819
C   C55       1.0  0.33562  0.05903  0.74765  1.0000 -0.0805029819
C   C56       1.0  0.83797  0.08562  0.77659  1.0000 -0.0805029819
C   C57       1.0  0.03086  0.25051  0.31877  1.0000 0.1394946464
C   C58       1.0  0.96209  0.78086  0.28035  1.0000 0.1394946464
C   C59       1.0  0.93174  0.71209  0.68123  1.0000 0.1394946464
C   C60       1.0  0.50051  0.68174  0.71965  1.0000 0.1394946464
C   C61       1.0  0.21914  0.49949  0.18123  1.0000 0.1394946464
C   C62       1.0  0.28791  0.96914  0.21965  1.0000 0.1394946464
C   C63       1.0  0.31826  0.03791  0.81877  1.0000 0.1394946464
C   C64       1.0  0.74949  0.06826  0.78035  1.0000 0.1394946464
C   C65       1.0  0.27030  0.17310  0.27300  1.0000 -0.1526024317
C   C66       1.0  0.24730  0.02030  0.59720  1.0000 -0.1526024317
C   C67       1.0  0.90010  0.99730  0.72700  1.0000 -0.1526024317
C   C68       1.0  0.42310  0.65010  0.40280  1.0000 -0.1526024317
C   C69       1.0  0.97970  0.57690  0.22700  1.0000 -0.1526024317
C   C70       1.0  0.00270  0.72970  0.90280  1.0000 -0.1526024317
C   C71       1.0  0.34990  0.75270  0.77300  1.0000 -0.1526024317
C   C72       1.0  0.82690  0.09990  0.09720  1.0000 -0.1526024317
C   C73       1.0  0.95457  0.91669  0.19446  1.0000 0.1499445518
C   C74       1.0  0.01011  0.70457  0.53788  1.0000 0.1499445518
C   C75       1.0  0.72223  0.76011  0.80554  1.0000 0.1499445518
C   C76       1.0  0.16669  0.47223  0.46212  1.0000 0.1499445518
C   C77       1.0  0.29543  0.83331  0.30554  1.0000 0.1499445518
C   C78       1.0  0.23989  0.04543  0.96212  1.0000 0.1499445518
C   C79       1.0  0.52777  0.98989  0.69446  1.0000 0.1499445518
C   C80       1.0  0.08331  0.27777  0.03788  1.0000 0.1499445518
C   C81       1.0  0.96142  0.22484  0.24666  1.0000 -0.1341270501
C   C82       1.0  0.96476  0.71142  0.23658  1.0000 -0.1341270501
C   C83       1.0  0.97818  0.71476  0.75334  1.0000 -0.1341270501
C   C84       1.0  0.47484  0.72818  0.76342  1.0000 -0.1341270501
C   C85       1.0  0.28858  0.52516  0.25334  1.0000 -0.1341270501
C   C86       1.0  0.28524  0.03858  0.26342  1.0000 -0.1341270501
C   C87       1.0  0.27182  0.03524  0.74666  1.0000 -0.1341270501
C   C88       1.0  0.77516  0.02182  0.73658  1.0000 -0.1341270501
C   C89       1.0  0.08029  0.27950  0.35919  1.0000 0.1394946464
C   C90       1.0  0.97110  0.83029  0.30079  1.0000 0.1394946464
C   C91       1.0  0.92031  0.72110  0.64081  1.0000 0.1394946464
C   C92       1.0  0.52950  0.67031  0.69921  1.0000 0.1394946464
C   C93       1.0  0.16971  0.47050  0.14081  1.0000 0.1394946464
C   C94       1.0  0.27890  0.91971  0.19921  1.0000 0.1394946464
C   C95       1.0  0.32969  0.02890  0.85919  1.0000 0.1394946464
C   C96       1.0  0.72050  0.07969  0.80079  1.0000 0.1394946464
C   C97       1.0  0.18690  0.06960  0.24910  1.0000 0.0687625675
C   C98       1.0  0.18780  0.93690  0.61730  1.0000 0.0687625675
C   C99       1.0  0.82050  0.93780  0.75090  1.0000 0.0687625675
C   C100      1.0  0.31960  0.57050  0.38270  1.0000 0.0687625675
C   C101      1.0  0.06310  0.68040  0.25090  1.0000 0.0687625675
C   C102      1.0  0.06220  0.81310  0.88270  1.0000 0.0687625675
C   C103      1.0  0.42950  0.81220  0.74910  1.0000 0.0687625675
C   C104      1.0  0.93040  0.17950  0.11730  1.0000 0.0687625675
C   C105      1.0  0.94829  0.94459  0.16928  1.0000 -0.0805029819
C   C106      1.0  0.02901  0.69829  0.50370  1.0000 -0.0805029819
C   C107      1.0  0.77531  0.77901  0.83072  1.0000 -0.0805029819
C   C108      1.0  0.19459  0.52531  0.49630  1.0000 -0.0805029819
C   C109      1.0  0.30171  0.80541  0.33072  1.0000 -0.0805029819
C   C110      1.0  0.22099  0.05171  0.99630  1.0000 -0.0805029819
C   C111      1.0  0.47469  0.97099  0.66928  1.0000 -0.0805029819
C   C112      1.0  0.05541  0.22469  0.00370  1.0000 -0.0805029819
C   C113      1.0  0.53586  0.66306  0.23232  1.0000 0.6678125715
C   C114      1.0  0.55354  0.28586  0.37280  1.0000 0.6678125715
C   C115      1.0  0.43074  0.30354  0.76768  1.0000 0.6678125715
C   C116      1.0  0.91306  0.18074  0.62720  1.0000 0.6678125715
C   C117      1.0  0.71414  0.08694  0.26768  1.0000 0.6678125715
C   C118      1.0  0.69646  0.46414  0.12720  1.0000 0.6678125715
C   C119      1.0  0.81926  0.44646  0.73232  1.0000 0.6678125715
C   C120      1.0  0.33694  0.56926  0.87280  1.0000 0.6678125715
C   C121      1.0  0.51037  0.52207  0.32124  1.0000 0.5620741165
C   C122      1.0  0.43913  0.26037  0.48830  1.0000 0.5620741165
C   C123      1.0  0.20083  0.18913  0.67876  1.0000 0.5620741165
C   C124      1.0  0.77207  0.95083  0.51170  1.0000 0.5620741165
C   C125      1.0  0.73963  0.22793  0.17876  1.0000 0.5620741165
C   C126      1.0  0.81087  0.48963  0.01170  1.0000 0.5620741165
C   C127      1.0  0.04917  0.56087  0.82124  1.0000 0.5620741165
C   C128      1.0  0.47793  0.79917  0.98830  1.0000 0.5620741165
C   C129      1.0  0.20280  0.33840  0.33020  1.0000 0.5620741165
C   C130      1.0  0.12260  0.95280  0.36440  1.0000 0.5620741165
C   C131      1.0  0.00820  0.87260  0.66980  1.0000 0.5620741165
C   C132      1.0  0.58840  0.75820  0.63560  1.0000 0.5620741165
C   C133      1.0  0.04720  0.41160  0.16980  1.0000 0.5620741165
C   C134      1.0  0.12740  0.79720  0.13560  1.0000 0.5620741165
C   C135      1.0  0.24180  0.87740  0.83020  1.0000 0.5620741165
C   C136      1.0  0.66160  0.99180  0.86440  1.0000 0.5620741165
C   C137      1.0  0.01133  0.29209  0.28302  1.0000 0.0687625675
C   C138      1.0  0.97831  0.76133  0.21924  1.0000 0.0687625675
C   C139      1.0  0.00907  0.72831  0.71698  1.0000 0.0687625675
C   C140      1.0  0.54209  0.75907  0.78076  1.0000 0.0687625675
C   C141      1.0  0.23867  0.45791  0.21698  1.0000 0.0687625675
C   C142      1.0  0.27169  0.98867  0.28076  1.0000 0.0687625675
C   C143      1.0  0.24093  0.02169  0.78302  1.0000 0.0687625675
C   C144      1.0  0.70791  0.99093  0.71924  1.0000 0.0687625675
C   C145      1.0  0.15075  0.31071  0.36426  1.0000 -0.0694457864
C   C146      1.0  0.03649  0.90075  0.34004  1.0000 -0.0694457864
C   C147      1.0  0.94645  0.78649  0.63574  1.0000 -0.0694457864
C   C148      1.0  0.56071  0.69645  0.65996  1.0000 -0.0694457864
C   C149      1.0  0.09925  0.43929  0.13574  1.0000 -0.0694457864
C   C150      1.0  0.21351  0.84925  0.15996  1.0000 -0.0694457864
C   C151      1.0  0.30355  0.96351  0.86426  1.0000 -0.0694457864
C   C152      1.0  0.68929  0.05355  0.84004  1.0000 -0.0694457864
C   C153      1.0  0.84229  0.84998  0.14187  1.0000 -0.054467752
C   C154      1.0  0.95042  0.59229  0.49231  1.0000 -0.054467752
C   C155      1.0  0.70811  0.70042  0.85813  1.0000 -0.054467752
C   C156      1.0  0.09998  0.45811  0.50769  1.0000 -0.054467752
C   C157      1.0  0.40771  0.90002  0.35813  1.0000 -0.054467752
C   C158      1.0  0.29958  0.15771  0.00769  1.0000 -0.054467752
C   C159      1.0  0.54189  0.04958  0.64187  1.0000 -0.054467752
C   C160      1.0  0.15002  0.29189  0.99231  1.0000 -0.054467752
C   C161      1.0  0.05277  0.07354  0.17131  1.0000 0.5662489927
C   C162      1.0  0.13146  0.80277  0.47923  1.0000 0.5662489927
C   C163      1.0  0.90223  0.88146  0.82869  1.0000 0.5662489927
C   C164      1.0  0.32354  0.65223  0.52077  1.0000 0.5662489927
C   C165      1.0  0.19723  0.67646  0.32869  1.0000 0.5662489927
C   C166      1.0  0.11854  0.94723  0.02077  1.0000 0.5662489927
C   C167      1.0  0.34777  0.86854  0.67131  1.0000 0.5662489927
C   C168      1.0  0.92646  0.09777  0.97923  1.0000 0.5662489927
C   C169      1.0  0.75832  0.71119  0.16451  1.0000 0.0621331455
C   C170      1.0  0.84381  0.50832  0.54713  1.0000 0.0621331455
C   C171      1.0  0.54668  0.59381  0.83549  1.0000 0.0621331455
C   C172      1.0  0.96119  0.29668  0.45287  1.0000 0.0621331455
C   C173      1.0  0.49168  0.03881  0.33549  1.0000 0.0621331455
C   C174      1.0  0.40619  0.24168  0.95287  1.0000 0.0621331455
C   C175      1.0  0.70332  0.15619  0.66451  1.0000 0.0621331455
C   C176      1.0  0.28881  0.45332  0.04713  1.0000 0.0621331455
C   C177      1.0  0.52092  0.68185  0.20097  1.0000 -0.0805029819
C   C178      1.0  0.56995  0.27092  0.33907  1.0000 -0.0805029819
C   C179      1.0  0.48088  0.31995  0.79903  1.0000 -0.0805029819
C   C180      1.0  0.93185  0.23088  0.66093  1.0000 -0.0805029819
C   C181      1.0  0.72908  0.06815  0.29903  1.0000 -0.0805029819
C   C182      1.0  0.68005  0.47908  0.16093  1.0000 -0.0805029819
C   C183      1.0  0.76912  0.43005  0.70097  1.0000 -0.0805029819
C   C184      1.0  0.31815  0.51912  0.83907  1.0000 -0.0805029819
C   C185      1.0  0.60217  0.57841  0.34098  1.0000 -0.0694457864
C   C186      1.0  0.51119  0.35217  0.52376  1.0000 -0.0694457864
C   C187      1.0  0.23743  0.26119  0.65902  1.0000 -0.0694457864
C   C188      1.0  0.82841  0.98743  0.47624  1.0000 -0.0694457864
C   C189      1.0  0.64783  0.17159  0.15902  1.0000 -0.0694457864
C   C190      1.0  0.73881  0.39783  0.97624  1.0000 -0.0694457864
C   C191      1.0  0.01257  0.48881  0.84098  1.0000 -0.0694457864
C   C192      1.0  0.42159  0.76257  0.02376  1.0000 -0.0694457864
C   C193      1.0  0.18751  0.33164  0.40455  1.0000 -0.0580794095
C   C194      1.0  0.03296  0.93751  0.35587  1.0000 -0.0580794095
C   C195      1.0  0.92709  0.78296  0.59545  1.0000 -0.0580794095
C   C196      1.0  0.58164  0.67709  0.64413  1.0000 -0.0580794095
C   C197      1.0  0.06249  0.41836  0.09545  1.0000 -0.0580794095
C   C198      1.0  0.21704  0.81249  0.14413  1.0000 -0.0580794095
C   C199      1.0  0.32291  0.96704  0.90455  1.0000 -0.0580794095
C   C200      1.0  0.66836  0.07291  0.85587  1.0000 -0.0580794095
C   C201      1.0  0.08904  0.29630  0.42994  1.0000 0.0904045334
C   C202      1.0  0.90910  0.83904  0.29274  1.0000 0.0904045334
C   C203      1.0  0.86636  0.65910  0.57006  1.0000 0.0904045334
C   C204      1.0  0.54630  0.61636  0.70726  1.0000 0.0904045334
C   C205      1.0  0.16096  0.45370  0.07006  1.0000 0.0904045334
C   C206      1.0  0.34090  0.91096  0.20726  1.0000 0.0904045334
C   C207      1.0  0.38364  0.09090  0.92994  1.0000 0.0904045334
C   C208      1.0  0.70370  0.13364  0.79274  1.0000 0.0904045334
C   C209      1.0  0.74536  0.73163  0.13919  1.0000 -0.1100603038
C   C210      1.0  0.85617  0.49536  0.51373  1.0000 -0.1100603038
C   C211      1.0  0.59244  0.60617  0.86081  1.0000 -0.1100603038
C   C212      1.0  0.98163  0.34244  0.48627  1.0000 -0.1100603038
C   C213      1.0  0.50464  0.01837  0.36081  1.0000 -0.1100603038
C   C214      1.0  0.39383  0.25464  0.98627  1.0000 -0.1100603038
C   C215      1.0  0.65756  0.14383  0.63919  1.0000 -0.1100603038
C   C216      1.0  0.26837  0.40756  0.01373  1.0000 -0.1100603038
C   C217      1.0  0.43023  0.59497  0.16620  1.0000 0.1601612126
C   C218      1.0  0.51403  0.18023  0.33526  1.0000 0.1601612126
C   C219      1.0  0.42877  0.26403  0.83380  1.0000 0.1601612126
C   C220      1.0  0.84497  0.17877  0.66474  1.0000 0.1601612126
C   C221      1.0  0.81977  0.15503  0.33380  1.0000 0.1601612126
C   C222      1.0  0.73597  0.56977  0.16474  1.0000 0.1601612126
C   C223      1.0  0.82123  0.48597  0.66620  1.0000 0.1601612126
C   C224      1.0  0.40503  0.57123  0.83526  1.0000 0.1601612126
C   C225      1.0  0.59310  0.78440  0.20870  1.0000 -0.0580794095
C   C226      1.0  0.63440  0.34310  0.30870  1.0000 -0.0580794095
C   C227      1.0  0.57570  0.38440  0.79130  1.0000 -0.0580794095
C   C228      1.0  0.03440  0.32570  0.69130  1.0000 -0.0580794095
C   C229      1.0  0.65690  0.96560  0.29130  1.0000 -0.0580794095
C   C230      1.0  0.61560  0.40690  0.19130  1.0000 -0.0580794095
C   C231      1.0  0.67430  0.36560  0.70870  1.0000 -0.0580794095
C   C232      1.0  0.21560  0.42430  0.80870  1.0000 -0.0580794095
C   C233      1.0  0.67230  0.65120  0.37990  1.0000 0.1499445518
C   C234      1.0  0.54240  0.42230  0.52110  1.0000 0.1499445518
C   C235      1.0  0.27130  0.29240  0.62010  1.0000 0.1499445518
C   C236      1.0  0.90120  0.02130  0.47890  1.0000 0.1499445518
C   C237      1.0  0.57770  0.09880  0.12010  1.0000 0.1499445518
C   C238      1.0  0.70760  0.32770  0.97890  1.0000 0.1499445518
C   C239      1.0  0.97870  0.45760  0.87990  1.0000 0.1499445518
C   C240      1.0  0.34880  0.72870  0.02110  1.0000 0.1499445518
C   C241      1.0  0.61110  0.54980  0.31970  1.0000 -0.1100603038
C   C242      1.0  0.54140  0.36110  0.56130  1.0000 -0.1100603038
C   C243      1.0  0.23010  0.29140  0.68030  1.0000 -0.1100603038
C   C244      1.0  0.79980  0.98010  0.43870  1.0000 -0.1100603038
C   C245      1.0  0.63890  0.20020  0.18030  1.0000 -0.1100603038
C   C246      1.0  0.70860  0.38890  0.93870  1.0000 -0.1100603038
C   C247      1.0  0.01990  0.45860  0.81970  1.0000 -0.1100603038
C   C248      1.0  0.45020  0.76990  0.06130  1.0000 -0.1100603038
C   C249      1.0  0.15446  0.32203  0.43729  1.0000 -0.1100603038
C   C250      1.0  0.96717  0.90446  0.33243  1.0000 -0.1100603038
C   C251      1.0  0.88474  0.71717  0.56271  1.0000 -0.1100603038
C   C252      1.0  0.57203  0.63474  0.66757  1.0000 -0.1100603038
C   C253      1.0  0.09554  0.42797  0.06271  1.0000 -0.1100603038
C   C254      1.0  0.28283  0.84554  0.16757  1.0000 -0.1100603038
C   C255      1.0  0.36526  0.03283  0.93729  1.0000 -0.1100603038
C   C256      1.0  0.67797  0.11526  0.83243  1.0000 -0.1100603038
C   C257      1.0  0.35123  0.48445  0.14988  1.0000 0.1499445518
C   C258      1.0  0.45135  0.10123  0.36678  1.0000 0.1499445518
C   C259      1.0  0.33457  0.20135  0.85012  1.0000 0.1499445518
C   C260      1.0  0.73445  0.08457  0.63322  1.0000 0.1499445518
C   C261      1.0  0.89877  0.26555  0.35012  1.0000 0.1499445518
C   C262      1.0  0.79865  0.64877  0.13322  1.0000 0.1499445518
C   C263      1.0  0.91543  0.54865  0.64988  1.0000 0.1499445518
C   C264      1.0  0.51555  0.66543  0.86678  1.0000 0.1499445518
C   C265      1.0  0.57330  0.79830  0.18280  1.0000 -0.1418895616
C   C266      1.0  0.64050  0.32330  0.27500  1.0000 -0.1418895616
C   C267      1.0  0.61550  0.39050  0.81720  1.0000 -0.1418895616
C   C268      1.0  0.04830  0.36550  0.72500  1.0000 -0.1418895616
C   C269      1.0  0.67670  0.95170  0.31720  1.0000 -0.1418895616
C   C270      1.0  0.60950  0.42670  0.22500  1.0000 -0.1418895616
C   C271      1.0  0.63450  0.35950  0.68280  1.0000 -0.1418895616
C   C272      1.0  0.20170  0.38450  0.77500  1.0000 -0.1418895616
C   C273      1.0  0.66000  0.67700  0.40480  1.0000 0.1499445518
C   C274      1.0  0.50520  0.41000  0.48300  1.0000 0.1499445518
C   C275      1.0  0.27220  0.25520  0.59520  1.0000 0.1499445518
C   C276      1.0  0.92700  0.02220  0.51700  1.0000 0.1499445518
C   C277      1.0  0.59000  0.07300  0.09520  1.0000 0.1499445518
C   C278      1.0  0.74480  0.34000  0.01700  1.0000 0.1499445518
C   C279      1.0  0.97780  0.49480  0.90480  1.0000 0.1499445518
C   C280      1.0  0.32300  0.72780  0.98300  1.0000 0.1499445518
C   C281      1.0  0.68570  0.58980  0.33790  1.0000 -0.1418895616
C   C282      1.0  0.59780  0.43570  0.59590  1.0000 -0.1418895616
C   C283      1.0  0.25190  0.34780  0.66210  1.0000 -0.1418895616
C   C284      1.0  0.83980  0.00190  0.40410  1.0000 -0.1418895616
C   C285      1.0  0.56430  0.16020  0.16210  1.0000 -0.1418895616
C   C286      1.0  0.65220  0.31430  0.90410  1.0000 -0.1418895616
C   C287      1.0  0.99810  0.40220  0.83790  1.0000 -0.1418895616
C   C288      1.0  0.41020  0.74810  0.09590  1.0000 -0.1418895616
C   C289      1.0  0.39209  0.48376  0.14545  1.0000 -0.086157502
C   C290      1.0  0.49664  0.14209  0.40833  1.0000 -0.086157502
C   C291      1.0  0.33831  0.24664  0.85455  1.0000 -0.086157502
C   C292      1.0  0.73376  0.08831  0.59167  1.0000 -0.086157502
C   C293      1.0  0.85791  0.26624  0.35455  1.0000 -0.086157502
C   C294      1.0  0.75336  0.60791  0.09167  1.0000 -0.086157502
C   C295      1.0  0.91169  0.50336  0.64545  1.0000 -0.086157502
C   C296      1.0  0.51624  0.66169  0.90833  1.0000 -0.086157502
C   C297      1.0  0.47270  0.70150  0.15120  1.0000 0.0820208793
C   C298      1.0  0.57150  0.22270  0.27120  1.0000 0.0820208793
C   C299      1.0  0.55030  0.32150  0.84880  1.0000 0.0820208793
C   C300      1.0  0.95150  0.30030  0.72880  1.0000 0.0820208793
C   C301      1.0  0.77730  0.04850  0.34880  1.0000 0.0820208793
C   C302      1.0  0.67850  0.52730  0.22880  1.0000 0.0820208793
C   C303      1.0  0.69970  0.42850  0.65120  1.0000 0.0820208793
C   C304      1.0  0.29850  0.44970  0.77120  1.0000 0.0820208793
C   C305      1.0  0.73850  0.79710  0.35220  1.0000 0.5620741165
C   C306      1.0  0.63630  0.48850  0.44140  1.0000 0.5620741165
C   C307      1.0  0.44490  0.38630  0.64780  1.0000 0.5620741165
C   C308      1.0  0.04710  0.19490  0.55860  1.0000 0.5620741165
C   C309      1.0  0.51150  0.95290  0.14780  1.0000 0.5620741165
C   C310      1.0  0.61370  0.26150  0.05860  1.0000 0.5620741165
C   C311      1.0  0.80510  0.36370  0.85220  1.0000 0.5620741165
C   C312      1.0  0.20290  0.55510  0.94140  1.0000 0.5620741165
C   C313      1.0  0.68140  0.73510  0.39150  1.0000 -0.0694457864
C   C314      1.0  0.53990  0.43140  0.44630  1.0000 -0.0694457864
C   C315      1.0  0.34360  0.28990  0.60850  1.0000 -0.0694457864
C   C316      1.0  0.98510  0.09360  0.55370  1.0000 -0.0694457864
C   C317      1.0  0.56860  0.01490  0.10850  1.0000 -0.0694457864
C   C318      1.0  0.71010  0.31860  0.05370  1.0000 -0.0694457864
C   C319      1.0  0.90640  0.46010  0.89150  1.0000 -0.0694457864
C   C320      1.0  0.26490  0.65640  0.94630  1.0000 -0.0694457864
C   C321      1.0  0.75050  0.66020  0.37410  1.0000 0.0621331455
C   C322      1.0  0.62640  0.50050  0.59030  1.0000 0.0621331455
C   C323      1.0  0.28610  0.37640  0.62590  1.0000 0.0621331455
C   C324      1.0  0.91020  0.03610  0.40970  1.0000 0.0621331455
C   C325      1.0  0.49950  0.08980  0.12590  1.0000 0.0621331455
C   C326      1.0  0.62360  0.24950  0.90970  1.0000 0.0621331455
C   C327      1.0  0.96390  0.37360  0.87410  1.0000 0.0621331455
C   C328      1.0  0.33980  0.71390  0.09030  1.0000 0.0621331455
C   C329      1.0  0.52519  0.59684  0.15983  1.0000 0.5662489927
C   C330      1.0  0.61536  0.27519  0.42835  1.0000 0.5662489927
C   C331      1.0  0.43701  0.36536  0.84017  1.0000 0.5662489927
C   C332      1.0  0.84684  0.18701  0.57165  1.0000 0.5662489927
C   C333      1.0  0.72481  0.15316  0.34017  1.0000 0.5662489927
C   C334      1.0  0.63464  0.47481  0.07165  1.0000 0.5662489927
C   C335      1.0  0.81299  0.38464  0.65983  1.0000 0.5662489927
C   C336      1.0  0.40316  0.56299  0.92835  1.0000 0.5620741165
C   C337      1.0  0.30855  0.37565  0.12700  1.0000 -0.0694457864
C   C338      1.0  0.43155  0.05855  0.43290  1.0000 -0.0694457864
C   C339      1.0  0.24865  0.18155  0.87300  1.0000 -0.0694457864
C   C340      1.0  0.62565  0.99865  0.56710  1.0000 -0.0694457864
C   C341      1.0  0.94145  0.37435  0.37300  1.0000 -0.0694457864
C   C342      1.0  0.81845  0.69145  0.06710  1.0000 -0.0694457864
C   C343      1.0  0.00135  0.56845  0.62700  1.0000 -0.0694457864
C   C344      1.0  0.62435  0.75135  0.93290  1.0000 -0.0694457864
C   C345      1.0  0.15434  0.28004  0.11918  1.0000 0.0621331455
C   C346      1.0  0.28516  0.90434  0.37430  1.0000 0.0621331455
C   C347      1.0  0.16086  0.03516  0.88082  1.0000 0.0621331455
C   C348      1.0  0.53004  0.91086  0.62570  1.0000 0.0621331455
C   C349      1.0  0.09566  0.46996  0.38082  1.0000 0.0621331455
C   C350      1.0  0.96484  0.84566  0.12570  1.0000 0.0621331455
C   C351      1.0  0.08914  0.71484  0.61918  1.0000 0.0621331455
C   C352      1.0  0.71996  0.83914  0.87430  1.0000 0.0621331455
C   C353      1.0  0.65110  0.74070  0.41540  1.0000 -0.0805029819
C   C354      1.0  0.48570  0.40110  0.41040  1.0000 -0.0805029819
C   C355      1.0  0.32530  0.23570  0.58460  1.0000 -0.0805029819
C   C356      1.0  0.99070  0.07530  0.58960  1.0000 -0.0805029819
C   C357      1.0  0.59890  0.00930  0.08460  1.0000 -0.0805029819
C   C358      1.0  0.76430  0.34890  0.08960  1.0000 -0.0805029819
C   C359      1.0  0.92470  0.51430  0.91540  1.0000 -0.0805029819
C   C360      1.0  0.25930  0.67470  0.91040  1.0000 -0.0805029819
C   C361      1.0  0.60740  0.65470  0.46470  1.0000 0.0820208793
C   C362      1.0  0.39270  0.35740  0.45270  1.0000 0.0820208793
C   C363      1.0  0.19000  0.14270  0.53530  1.0000 0.0820208793
C   C364      1.0  0.90470  0.94000  0.54730  1.0000 0.0820208793
C   C365      1.0  0.64260  0.09530  0.03530  1.0000 0.0820208793
C   C366      1.0  0.85730  0.39260  0.04730  1.0000 0.0820208793
C   C367      1.0  0.06000  0.60730  0.96470  1.0000 0.0820208793
C   C368      1.0  0.34530  0.81000  0.95270  1.0000 0.0820208793
C   C369      1.0  0.18698  0.27178  0.11396  1.0000 -0.1208213562
C   C370      1.0  0.32302  0.93698  0.41520  1.0000 -0.1208213562
C   C371      1.0  0.15782  0.07302  0.88604  1.0000 -0.1208213562
C   C372      1.0  0.52178  0.90782  0.58480  1.0000 -0.1208213562
C   C373      1.0  0.06302  0.47822  0.38604  1.0000 -0.1208213562
C   C374      1.0  0.92698  0.81302  0.08480  1.0000 -0.1208213562
C   C375      1.0  0.09218  0.67698  0.61396  1.0000 -0.1208213562
C   C376      1.0  0.72822  0.84218  0.91520  1.0000 -0.1208213562
C   C377      1.0  0.60740  0.69390  0.45210  1.0000 -0.1418895616
C   C378      1.0  0.40530  0.35740  0.41350  1.0000 -0.1418895616
C   C379      1.0  0.24180  0.15530  0.54790  1.0000 -0.1418895616
C   C380      1.0  0.94390  0.99180  0.58650  1.0000 -0.1418895616
C   C381      1.0  0.64260  0.05610  0.04790  1.0000 -0.1418895616
C   C382      1.0  0.84470  0.39260  0.08650  1.0000 -0.1418895616
C   C383      1.0  0.00820  0.59470  0.95210  1.0000 -0.1418895616
C   C384      1.0  0.30610  0.75820  0.91350  1.0000 -0.1418895616
N   N1        1.0  0.08609  0.98866  0.22515  1.0000 -0.2577697957
N   N2        1.0  0.11094  0.83609  0.59743  1.0000 -0.2577697957
N   N3        1.0  0.76351  0.86094  0.77485  1.0000 -0.2577697957
N   N4        1.0  0.23866  0.51351  0.40257  1.0000 -0.2577697957
N   N5        1.0  0.16391  0.76134  0.27485  1.0000 -0.2577697957
N   N6        1.0  0.13906  0.91391  0.90257  1.0000 -0.2577697957
N   N7        1.0  0.48649  0.88906  0.72515  1.0000 -0.2577697957
N   N8        1.0  0.01134  0.23649  0.09743  1.0000 -0.2577697957
N   N9        1.0  0.04500  0.30467  0.31847  1.0000 -0.2577697957
N   N10       1.0  0.97653  0.79500  0.24033  1.0000 -0.2577697957
N   N11       1.0  0.98620  0.72653  0.68153  1.0000 -0.2577697957
N   N12       1.0  0.55467  0.73620  0.75967  1.0000 -0.2577697957
N   N13       1.0  0.20500  0.44533  0.18153  1.0000 -0.2577697957
N   N14       1.0  0.27347  0.95500  0.25967  1.0000 -0.2577697957
N   N15       1.0  0.26380  0.02347  0.81847  1.0000 -0.2577697957
N   N16       1.0  0.69533  0.01380  0.74033  1.0000 -0.2577697957
N   N17       1.0  0.86128  0.80193  0.19181  1.0000 -0.2577697957
N   N18       1.0  0.91947  0.61128  0.55935  1.0000 -0.2577697957
N   N19       1.0  0.61012  0.66947  0.80819  1.0000 -0.2577697957
N   N20       1.0  0.05193  0.36012  0.44065  1.0000 -0.2577697957
N   N21       1.0  0.38872  0.94807  0.30819  1.0000 -0.2577697957
N   N22       1.0  0.33053  0.13872  0.94065  1.0000 -0.2577697957
N   N23       1.0  0.63988  0.08053  0.69181  1.0000 -0.2577697957
N   N24       1.0  0.19807  0.38988  0.05935  1.0000 -0.2577697957
N   N25       1.0  0.05329  0.27597  0.39206  1.0000 -0.2499566237
N   N26       1.0  0.91123  0.80329  0.27732  1.0000 -0.2577697957
N   N27       1.0  0.88391  0.66123  0.60794  1.0000 -0.2577697957
N   N28       1.0  0.52597  0.63391  0.72268  1.0000 -0.2577697957
N   N29       1.0  0.19671  0.47403  0.10794  1.0000 -0.2577697957
N   N30       1.0  0.33877  0.94671  0.22268  1.0000 -0.2577697957
N   N31       1.0  0.36609  0.08877  0.89206  1.0000 -0.2499566237
N   N32       1.0  0.72403  0.11609  0.77732  1.0000 -0.2499566237
N   N33       1.0  0.01698  0.36671  0.36369  1.0000 -0.2577697957
N   N34       1.0  0.90329  0.76698  0.15027  1.0000 -0.2577697957
N   N35       1.0  0.00302  0.65329  0.63631  1.0000 -0.2577697957
N   N36       1.0  0.61671  0.75302  0.84973  1.0000 -0.2577697957
N   N37       1.0  0.23302  0.38329  0.13631  1.0000 -0.2577697957
N   N38       1.0  0.34671  0.98302  0.34973  1.0000 -0.2577697957
N   N39       1.0  0.24698  0.09671  0.86369  1.0000 -0.2577697957
N   N40       1.0  0.63329  0.99698  0.65027  1.0000 -0.2577697957
N   N41       1.0  0.84784  0.14845  0.35709  1.0000 -0.2577697957
N   N42       1.0  0.74075  0.59784  0.19939  1.0000 -0.2577697957
N   N43       1.0  0.79136  0.49075  0.64291  1.0000 -0.2577697957
N   N44       1.0  0.39845  0.54136  0.80061  1.0000 -0.2577697957
N   N45       1.0  0.40216  0.60155  0.14291  1.0000 -0.2577697957
N   N46       1.0  0.50925  0.15216  0.30061  1.0000 -0.2577697957
N   N47       1.0  0.45864  0.25925  0.85709  1.0000 -0.2577697957
N   N48       1.0  0.85155  0.20864  0.69939  1.0000 -0.2577697957
N   N49       1.0  0.75158  0.69670  0.39748  1.0000 -0.2499566237
N   N50       1.0  0.60410  0.50158  0.55488  1.0000 -0.2499566237
N   N51       1.0  0.29922  0.35410  0.60252  1.0000 -0.2499566237
N   N52       1.0  0.94670  0.04922  0.44512  1.0000 -0.2499566237
N   N53       1.0  0.49842  0.05330  0.10252  1.0000 -0.2499566237
N   N54       1.0  0.64590  0.24842  0.94512  1.0000 -0.2499566237
N   N55       1.0  0.95078  0.39590  0.89748  1.0000 -0.2499566237
N   N56       1.0  0.30330  0.70078  0.05488  1.0000 -0.2499566237
N   N57       1.0  0.63130  0.64450  0.44260  1.0000 -0.2499566237
N   N58       1.0  0.43870  0.38130  0.48680  1.0000 -0.2499566237
N   N59       1.0  0.20190  0.18870  0.55740  1.0000 -0.2499566237
N   N60       1.0  0.89450  0.95190  0.51320  1.0000 -0.2499566237
N   N61       1.0  0.61870  0.10550  0.05740  1.0000 -0.2499566237
N   N62       1.0  0.81130  0.36870  0.01320  1.0000 -0.2499566237
N   N63       1.0  0.04810  0.56130  0.94260  1.0000 -0.2499566237
N   N64       1.0  0.35550  0.79810  0.98680  1.0000 -0.2499566237
O   O1        1.0  0.01315  0.07939  0.33654  1.0000 -0.4311569439
O   O2        1.0  0.92661  0.76315  0.43376  1.0000 -0.4311569439
O   O3        1.0  0.74285  0.67661  0.66346  1.0000 -0.4311569439
O   O4        1.0  0.32939  0.49285  0.56624  1.0000 -0.4311569439
O   O5        1.0  0.23685  0.67061  0.16346  1.0000 -0.4311569439
O   O6        1.0  0.32339  0.98685  0.06624  1.0000 -0.4311569439
O   O7        1.0  0.50715  0.07339  0.83654  1.0000 -0.4311569439
O   O8        1.0  0.92061  0.25715  0.93376  1.0000 -0.4311569439
O   O9        1.0  0.81846  0.90749  0.20355  1.0000 -0.7420610109
O   O10       1.0  0.86491  0.56846  0.41097  1.0000 -0.7420610109
O   O11       1.0  0.70394  0.61491  0.79645  1.0000 -0.7420610109
O   O12       1.0  0.15749  0.45394  0.58903  1.0000 -0.7420610109
O   O13       1.0  0.43154  0.84251  0.29645  1.0000 -0.7420610109
O   O14       1.0  0.38509  0.18154  0.08903  1.0000 -0.7420610109
O   O15       1.0  0.54606  0.13509  0.70355  1.0000 -0.7420610109
O   O16       1.0  0.09251  0.29606  0.91097  1.0000 -0.7420610109
O   O17       1.0  0.71982  0.74428  0.24930  1.0000 -0.7492963778
O   O18       1.0  0.72052  0.46982  0.47554  1.0000 -0.7492963778
O   O19       1.0  0.49498  0.47052  0.75070  1.0000 -0.7492963778
O   O20       1.0  0.99428  0.24498  0.52446  1.0000 -0.7492963778
O   O21       1.0  0.53018  0.00572  0.25070  1.0000 -0.7492963778
O   O22       1.0  0.52948  0.28018  0.02446  1.0000 -0.7492963778
O   O23       1.0  0.75502  0.27948  0.74930  1.0000 -0.7492963778
O   O24       1.0  0.25572  0.50502  0.97554  1.0000 -0.7492963778
O   O25       1.0  0.98644  0.01147  0.25691  1.0000 -0.6512335272
O   O26       1.0  0.97953  0.73644  0.47497  1.0000 -0.6512335272
O   O27       1.0  0.75456  0.72953  0.74309  1.0000 -0.6512335272
O   O28       1.0  0.26147  0.50456  0.52503  1.0000 -0.6512335272
O   O29       1.0  0.26356  0.73853  0.24309  1.0000 -0.6512335272
O   O30       1.0  0.27047  0.01356  0.02503  1.0000 -0.6512335272
O   O31       1.0  0.49544  0.02047  0.75691  1.0000 -0.6512335272
O   O32       1.0  0.98853  0.24544  0.97497  1.0000 -0.6512335272
O   O33       1.0  0.97601  0.10544  0.26425  1.0000 -0.5789534759
O   O34       1.0  0.96176  0.72601  0.37057  1.0000 -0.5716239189
O   O35       1.0  0.84119  0.71176  0.73575  1.0000 -0.5716239189
O   O36       1.0  0.35544  0.59119  0.62943  1.0000 -0.5716239189
O   O37       1.0  0.27399  0.64456  0.23575  1.0000 -0.5716239189
O   O38       1.0  0.28824  0.02399  0.12943  1.0000 -0.5716239189
O   O39       1.0  0.40881  0.03824  0.76425  1.0000 -0.5716239189
O   O40       1.0  0.89456  0.15881  0.87057  1.0000 -0.5716239189
O   O41       1.0  0.85119  0.00712  0.30691  1.0000 -0.5933464611
O   O42       1.0  0.79428  0.60119  0.34407  1.0000 -0.5933464611
O   O43       1.0  0.70021  0.54428  0.69309  1.0000 -0.5933464611
O   O44       1.0  0.25712  0.45021  0.65593  1.0000 -0.5933464611
O   O45       1.0  0.39881  0.74288  0.19309  1.0000 -0.5933464611
O   O46       1.0  0.45572  0.14881  0.15593  1.0000 -0.5933464611
O   O47       1.0  0.54979  0.20572  0.80691  1.0000 -0.5933464611
O   O48       1.0  0.99288  0.29979  0.84407  1.0000 -0.5933464611
O   O49       1.0  0.64048  0.75814  0.25422  1.0000 -0.6512335272
O   O50       1.0  0.63626  0.39048  0.38234  1.0000 -0.6512335272
O   O51       1.0  0.50392  0.38626  0.74578  1.0000 -0.6512335272
O   O52       1.0  0.00814  0.25392  0.61766  1.0000 -0.6512335272
O   O53       1.0  0.60952  0.99186  0.24578  1.0000 -0.6512335272
O   O54       1.0  0.61374  0.35952  0.11766  1.0000 -0.6512335272
O   O55       1.0  0.74608  0.36374  0.75422  1.0000 -0.6512335272
O   O56       1.0  0.24186  0.49608  0.88234  1.0000 -0.6512335272
O   O57       1.0  0.71870  0.81216  0.33766  1.0000 -0.5497751987
O   O58       1.0  0.63104  0.46870  0.40654  1.0000 -0.5497751987
O   O59       1.0  0.47450  0.38104  0.66234  1.0000 -0.5497751987
O   O60       1.0  0.06216  0.22450  0.59346  1.0000 -0.5497751987
O   O61       1.0  0.53130  0.93784  0.16234  1.0000 -0.5497751987
O   O62       1.0  0.61896  0.28130  0.09346  1.0000 -0.5497751987
O   O63       1.0  0.77550  0.36896  0.83766  1.0000 -0.5497751987
O   O64       1.0  0.18784  0.52550  0.90654  1.0000 -0.5497751987
O   O65       1.0  0.80813  0.83704  0.33937  1.0000 -0.5559725979
O   O66       1.0  0.71876  0.55813  0.47109  1.0000 -0.5559725979
O   O67       1.0  0.49767  0.46876  0.66063  1.0000 -0.5559725979
O   O68       1.0  0.08704  0.24767  0.52891  1.0000 -0.5559725979
O   O69       1.0  0.44187  0.91296  0.16063  1.0000 -0.5559725979
O   O70       1.0  0.53124  0.19187  0.02891  1.0000 -0.5559725979
O   O71       1.0  0.75233  0.28124  0.83937  1.0000 -0.5559725979
O   O72       1.0  0.16296  0.50233  0.97109  1.0000 -0.5559725979
O   O73       1.0  0.18294  0.21609  0.27263  1.0000 -0.6120872045
O   O74       1.0  0.16031  0.93294  0.46685  1.0000 -0.6120872045
O   O75       1.0  0.94346  0.91031  0.72737  1.0000 -0.6120872045
O   O76       1.0  0.46609  0.69346  0.53315  1.0000 -0.6120872045
O   O77       1.0  0.06706  0.53391  0.22737  1.0000 -0.6120872045
O   O78       1.0  0.08969  0.81706  0.03315  1.0000 -0.6120872045
O   O79       1.0  0.30654  0.83969  0.77263  1.0000 -0.6120872045
O   O80       1.0  0.78391  0.05654  0.96685  1.0000 -0.6120872045
O   O81       1.0  0.44153  0.55423  0.23576  1.0000 -0.6779852876
O   O82       1.0  0.45577  0.19153  0.38730  1.0000 -0.6779852876
O   O83       1.0  0.31847  0.20577  0.76424  1.0000 -0.6779852876
O   O84       1.0  0.80423  0.06847  0.61270  1.0000 -0.6779852876
O   O85       1.0  0.80847  0.19577  0.26424  1.0000 -0.6779852876
O   O86       1.0  0.79423  0.55847  0.11270  1.0000 -0.6779852876
O   O87       1.0  0.93153  0.54423  0.73576  1.0000 -0.6779852876
O   O88       1.0  0.44577  0.68153  0.88730  1.0000 -0.6779852876
O   O89       1.0  0.53289  0.56128  0.28977  1.0000 -0.5716239189
O   O90       1.0  0.49312  0.28289  0.47161  1.0000 -0.5716239189
O   O91       1.0  0.27151  0.24312  0.71023  1.0000 -0.5716239189
O   O92       1.0  0.81128  0.02151  0.52839  1.0000 -0.5716239189
O   O93       1.0  0.71711  0.18872  0.21023  1.0000 -0.5716239189
O   O94       1.0  0.75688  0.46711  0.02839  1.0000 -0.5716239189
O   O95       1.0  0.97849  0.50688  0.78977  1.0000 -0.5716239189
O   O96       1.0  0.43872  0.72849  0.97161  1.0000 -0.5716239189
O   O97       1.0  0.41519  0.43881  0.33540  1.0000 -0.5789534759
O   O98       1.0  0.32979  0.16519  0.47638  1.0000 -0.5789534759
O   O99       1.0  0.10341  0.07979  0.66460  1.0000 -0.5789534759
O   O100      1.0  0.68881  0.85341  0.52362  1.0000 -0.5789534759
O   O101      1.0  0.83481  0.31119  0.16460  1.0000 -0.5789534759
O   O102      1.0  0.92021  0.58481  0.02362  1.0000 -0.5789534759
O   O103      1.0  0.14659  0.67021  0.83540  1.0000 -0.5789534759
O   O104      1.0  0.56119  0.89659  0.97638  1.0000 -0.5789534759
O   O105      1.0  0.35291  0.38210  0.21741  1.0000 -0.7823211992
O   O106      1.0  0.38550  0.10291  0.47081  1.0000 -0.7823211992
O   O107      1.0  0.16469  0.13550  0.78259  1.0000 -0.7823211992
O   O108      1.0  0.63210  0.91469  0.52919  1.0000 -0.7823211992
O   O109      1.0  0.89709  0.36790  0.28259  1.0000 -0.7823211992
O   O110      1.0  0.86450  0.64709  0.02919  1.0000 -0.7823211992
O   O111      1.0  0.08531  0.61450  0.71741  1.0000 -0.7823211992
O   O112      1.0  0.61790  0.83531  0.97081  1.0000 -0.7823211992
O   O113      1.0  0.16361  0.27333  0.22194  1.0000 -0.7492963778
O   O114      1.0  0.19167  0.91361  0.39028  1.0000 -0.7492963778
O   O115      1.0  0.05139  0.94167  0.77806  1.0000 -0.7492963778
O   O116      1.0  0.52333  0.80139  0.60972  1.0000 -0.7492963778
O   O117      1.0  0.08639  0.47667  0.27806  1.0000 -0.7492963778
O   O118      1.0  0.05833  0.83639  0.10972  1.0000 -0.7492963778
O   O119      1.0  0.19861  0.80833  0.72194  1.0000 -0.7492963778
O   O120      1.0  0.72667  0.94861  0.89028  1.0000 -0.7492963778
O   O121      1.0  0.47524  0.58772  0.32796  1.0000 -0.7632093126
O   O122      1.0  0.39728  0.22524  0.38752  1.0000 -0.7632093126
O   O123      1.0  0.25976  0.14728  0.67204  1.0000 -0.7632093126
O   O124      1.0  0.83772  0.00976  0.61248  1.0000 -0.7632093126
O   O125      1.0  0.77476  0.16228  0.17204  1.0000 -0.7632093126
O   O126      1.0  0.85272  0.52476  0.11248  1.0000 -0.7632093126
O   O127      1.0  0.99024  0.60272  0.82796  1.0000 -0.7632093126
O   O128      1.0  0.41228  0.74024  0.88752  1.0000 -0.7632093126
O   O129      1.0  0.23143  0.38479  0.30122  1.0000 -0.6120872045
O   O130      1.0  0.18021  0.98143  0.34664  1.0000 -0.6120872045
O   O131      1.0  0.08357  0.93021  0.69878  1.0000 -0.6120872045
O   O132      1.0  0.63479  0.83357  0.65336  1.0000 -0.6120872045
O   O133      1.0  0.01857  0.36521  0.19878  1.0000 -0.6120872045
O   O134      1.0  0.06979  0.76857  0.15336  1.0000 -0.6120872045
O   O135      1.0  0.16643  0.81979  0.80122  1.0000 -0.6120872045
O   O136      1.0  0.61521  0.91643  0.84664  1.0000 -0.6120872045
O   O137      1.0  0.22286  0.31917  0.33383  1.0000 -0.5716239189
O   O138      1.0  0.13903  0.97286  0.40369  1.0000 -0.5716239189
O   O139      1.0  0.98534  0.88903  0.66617  1.0000 -0.5716239189
O   O140      1.0  0.56917  0.73534  0.59631  1.0000 -0.5716239189
O   O141      1.0  0.02714  0.43083  0.16617  1.0000 -0.5716239189
O   O142      1.0  0.11097  0.77714  0.09631  1.0000 -0.5716239189
O   O143      1.0  0.26466  0.86097  0.83383  1.0000 -0.5716239189
O   O144      1.0  0.68083  0.01466  0.90369  1.0000 -0.5716239189
O   O145      1.0  0.15942  0.16012  0.17154  1.0000 -0.5559725979
O   O146      1.0  0.23788  0.90942  0.49930  1.0000 -0.5559725979
O   O147      1.0  0.98858  0.98788  0.82846  1.0000 -0.5559725979
O   O148      1.0  0.41012  0.73858  0.50070  1.0000 -0.5559725979
O   O149      1.0  0.09058  0.58988  0.32846  1.0000 -0.5559725979
O   O150      1.0  0.01212  0.84058  0.00070  1.0000 -0.5559725979
O   O151      1.0  0.26142  0.76212  0.67154  1.0000 -0.5559725979
O   O152      1.0  0.83988  0.01142  0.99930  1.0000 -0.5559725979
O   O153      1.0  0.02460  0.08365  0.17285  1.0000 -0.5497751987
O   O154      1.0  0.10175  0.77460  0.44095  1.0000 -0.5497751987
O   O155      1.0  0.91080  0.85175  0.82715  1.0000 -0.5497751987
O   O156      1.0  0.33365  0.66080  0.55905  1.0000 -0.5497751987
O   O157      1.0  0.22540  0.66635  0.32715  1.0000 -0.5497751987
O   O158      1.0  0.14825  0.97540  0.05905  1.0000 -0.5497751987
O   O159      1.0  0.33920  0.89825  0.67285  1.0000 -0.5497751987
O   O160      1.0  0.91635  0.08920  0.94095  1.0000 -0.5497751987
O   O161      1.0  0.54129  0.57984  0.17953  1.0000 -0.5497751987
O   O162      1.0  0.61176  0.29129  0.46145  1.0000 -0.5497751987
O   O163      1.0  0.40031  0.36176  0.82047  1.0000 -0.5497751987
O   O164      1.0  0.82984  0.15031  0.53855  1.0000 -0.5497751987
O   O165      1.0  0.70871  0.17016  0.32047  1.0000 -0.5497751987
O   O166      1.0  0.63824  0.45871  0.03855  1.0000 -0.5497751987
O   O167      1.0  0.84969  0.38824  0.67953  1.0000 -0.5497751987
O   O168      1.0  0.42016  0.59969  0.96145  1.0000 -0.5497751987
O   O169      1.0  0.60765  0.69685  0.15070  1.0000 -0.5497751987
O   O170      1.0  0.70695  0.35765  0.41080  1.0000 -0.5449244821
O   O171      1.0  0.54615  0.45695  0.84930  1.0000 -0.5449244821
O   O172      1.0  0.94685  0.29615  0.58920  1.0000 -0.5449244821
O   O173      1.0  0.64235  0.05315  0.34930  1.0000 -0.5449244821
O   O174      1.0  0.54305  0.39235  0.08920  1.0000 -0.5449244821
O   O175      1.0  0.70385  0.29305  0.65070  1.0000 -0.5449244821
O   O176      1.0  0.30315  0.45385  0.91080  1.0000 -0.5449244821
