# DDEC6 charges by PACMAN v1.1 (https://github.com/mtap-research/PACMAN-charge/)
data_2013[Zn][ins]3[FSR]1
_chemical_formula_sum              "Zn8 H64 C64 N8 O40"
_cell_length_a       7.319
_cell_length_b       14.61
_cell_length_c       20.564
_cell_angle_alpha    90
_cell_angle_beta     90
_cell_angle_gamma    90

_symmetry_space_group_name_H-M    "P 1"
_symmetry_Int_Tables_number       1

loop_
  _symmetry_equiv_pos_as_xyz
  'x, y, z'

loop_
  _atom_site_type_symbol
  _atom_site_label
  _atom_site_symmetry_multiplicity
  _atom_site_fract_x
  _atom_site_fract_y
  _atom_site_fract_z
  _atom_site_occupancy
  _atom_site_charge
Zn  Zn1       1.0  0.75010  0.87484  0.87844  1.0000 0.8790166916
Zn  Zn2       1.0  0.24990  0.12516  0.37844  1.0000 0.8790166916
Zn  Zn3       1.0  0.74990  0.37484  0.87844  1.0000 0.8790166916
Zn  Zn4       1.0  0.25010  0.62516  0.37844  1.0000 0.8790166916
Zn  Zn5       1.0  0.23740  0.62562  0.95463  1.0000 0.8701780529
Zn  Zn6       1.0  0.76260  0.37438  0.45463  1.0000 0.8701780529
Zn  Zn7       1.0  0.26260  0.12562  0.95463  1.0000 0.8701780529
Zn  Zn8       1.0  0.73740  0.87438  0.45463  1.0000 0.8701780529
H   H1        1.0  0.65900  0.00300  0.94300  1.0000 0.3288755694
H   H2        1.0  0.34100  0.99700  0.44300  1.0000 0.3288755694
H   H3        1.0  0.84100  0.50300  0.94300  1.0000 0.3288755694
H   H4        1.0  0.15900  0.49700  0.44300  1.0000 0.3288755694
H   H5        1.0  0.84200  0.00700  0.94700  1.0000 0.3288755694
H   H6        1.0  0.15800  0.99300  0.44700  1.0000 0.3288755694
H   H7        1.0  0.65800  0.50700  0.94700  1.0000 0.3288755694
H   H8        1.0  0.34200  0.49300  0.44700  1.0000 0.3288755694
H   H9        1.0  0.14200  0.75000  0.88400  1.0000 0.3788317495
H   H10       1.0  0.85800  0.25000  0.38400  1.0000 0.3788317495
H   H11       1.0  0.35800  0.25000  0.88400  1.0000 0.3788317495
H   H12       1.0  0.64200  0.75000  0.38400  1.0000 0.3788317495
H   H13       1.0  0.34700  0.74600  0.88400  1.0000 0.3788317495
H   H14       1.0  0.65300  0.25400  0.38400  1.0000 0.3788317495
H   H15       1.0  0.15300  0.24600  0.88400  1.0000 0.3788317495
H   H16       1.0  0.84700  0.75400  0.38400  1.0000 0.3788317495
H   H17       1.0  0.74100  0.72760  0.05680  1.0000 0.1689419679
H   H18       1.0  0.25900  0.27240  0.55680  1.0000 0.1689419679
H   H19       1.0  0.75900  0.22760  0.05680  1.0000 0.1689419679
H   H20       1.0  0.24100  0.77240  0.55680  1.0000 0.1689419679
H   H21       1.0  0.73820  0.83070  0.03560  1.0000 0.1689419679
H   H22       1.0  0.26180  0.16930  0.53560  1.0000 0.1689419679
H   H23       1.0  0.76180  0.33070  0.03560  1.0000 0.1689419679
H   H24       1.0  0.23820  0.66930  0.53560  1.0000 0.1689419679
H   H25       1.0  0.25170  0.47620  0.77750  1.0000 0.1689419679
H   H26       1.0  0.74830  0.52380  0.27750  1.0000 0.1689419679
H   H27       1.0  0.24830  0.97620  0.77750  1.0000 0.1689419679
H   H28       1.0  0.75170  0.02380  0.27750  1.0000 0.1689419679
H   H29       1.0  0.24590  0.57910  0.79920  1.0000 0.1689419679
H   H30       1.0  0.75410  0.42090  0.29920  1.0000 0.1689419679
H   H31       1.0  0.25410  0.07910  0.79920  1.0000 0.1689419679
H   H32       1.0  0.74590  0.92090  0.29920  1.0000 0.1689419679
H   H33       1.0  0.88570  0.86500  0.73630  1.0000 0.1134028923
H   H34       1.0  0.11430  0.13500  0.23630  1.0000 0.1134028923
H   H35       1.0  0.61430  0.36500  0.73630  1.0000 0.1134028923
H   H36       1.0  0.38570  0.63500  0.23630  1.0000 0.1134028923
H   H37       1.0  0.90680  0.76770  0.64910  1.0000 0.1397512373
H   H38       1.0  0.09320  0.23230  0.14910  1.0000 0.1397512373
H   H39       1.0  0.59320  0.26770  0.64910  1.0000 0.1397512373
H   H40       1.0  0.40680  0.73230  0.14910  1.0000 0.1397512373
H   H41       1.0  0.71120  0.56970  0.76470  1.0000 0.1397512373
H   H42       1.0  0.28880  0.43030  0.26470  1.0000 0.1397512373
H   H43       1.0  0.78880  0.06970  0.76470  1.0000 0.1397512373
H   H44       1.0  0.21120  0.93030  0.26470  1.0000 0.1397512373
H   H45       1.0  0.69030  0.67470  0.84590  1.0000 0.1174025906
H   H46       1.0  0.30970  0.32530  0.34590  1.0000 0.1174025906
H   H47       1.0  0.80970  0.17470  0.84590  1.0000 0.1174025906
H   H48       1.0  0.19030  0.82530  0.34590  1.0000 0.1174025906
H   H49       1.0  0.88090  0.47710  0.68790  1.0000 0.1397512373
H   H50       1.0  0.11910  0.52290  0.18790  1.0000 0.1397512373
H   H51       1.0  0.61910  0.97710  0.68790  1.0000 0.1397512373
H   H52       1.0  0.38090  0.02290  0.18790  1.0000 0.1397512373
H   H53       1.0  0.86180  0.38020  0.60140  1.0000 0.1134028923
H   H54       1.0  0.13820  0.61980  0.10140  1.0000 0.1134028923
H   H55       1.0  0.63820  0.88020  0.60140  1.0000 0.1134028923
H   H56       1.0  0.36180  0.11980  0.10140  1.0000 0.1134028923
H   H57       1.0  0.71840  0.58190  0.48610  1.0000 0.1174025906
H   H58       1.0  0.28160  0.41810  0.98610  1.0000 0.1174025906
H   H59       1.0  0.78160  0.08190  0.48610  1.0000 0.1174025906
H   H60       1.0  0.21840  0.91810  0.98610  1.0000 0.1174025906
H   H61       1.0  0.73550  0.68330  0.57080  1.0000 0.1349709572
H   H62       1.0  0.26450  0.31670  0.07080  1.0000 0.1349709572
H   H63       1.0  0.76450  0.18330  0.57080  1.0000 0.1349709572
H   H64       1.0  0.23550  0.81670  0.07080  1.0000 0.1349709572
C   C1        1.0  0.56630  0.75050  0.97900  1.0000 0.6694668473
C   C2        1.0  0.43370  0.24950  0.47900  1.0000 0.6694668473
C   C3        1.0  0.93370  0.25050  0.97900  1.0000 0.6694668473
C   C4        1.0  0.06630  0.74950  0.47900  1.0000 0.6694668473
C   C5        1.0  0.74060  0.76830  0.01950  1.0000 -0.4995836972
C   C6        1.0  0.25940  0.23170  0.51950  1.0000 -0.4995836972
C   C7        1.0  0.75940  0.26830  0.01950  1.0000 -0.4995836972
C   C8        1.0  0.24060  0.73170  0.51950  1.0000 -0.4995836972
C   C9        1.0  0.91730  0.75340  0.98010  1.0000 0.6694668473
C   C10       1.0  0.08270  0.24660  0.48010  1.0000 0.6694668473
C   C11       1.0  0.58270  0.25340  0.98010  1.0000 0.6694668473
C   C12       1.0  0.41730  0.74660  0.48010  1.0000 0.6694668473
C   C13       1.0  0.41560  0.50220  0.85500  1.0000 0.6694668473
C   C14       1.0  0.58440  0.49780  0.35500  1.0000 0.6694668473
C   C15       1.0  0.08440  0.00220  0.85500  1.0000 0.6694668473
C   C16       1.0  0.91560  0.99780  0.35500  1.0000 0.6694668473
C   C17       1.0  0.24780  0.51650  0.81500  1.0000 -0.5293909966
C   C18       1.0  0.75220  0.48350  0.31500  1.0000 -0.5293909966
C   C19       1.0  0.25220  0.01650  0.81500  1.0000 -0.5293909966
C   C20       1.0  0.74780  0.98350  0.31500  1.0000 -0.5293909966
C   C21       1.0  0.07710  0.49850  0.85240  1.0000 0.676469499
C   C22       1.0  0.92290  0.50150  0.35240  1.0000 0.676469499
C   C23       1.0  0.42290  0.99850  0.85240  1.0000 0.676469499
C   C24       1.0  0.57710  0.00150  0.35240  1.0000 0.676469499
C   C25       1.0  0.84690  0.80480  0.74140  1.0000 0.0898235438
C   C26       1.0  0.15310  0.19520  0.24140  1.0000 0.0898235438
C   C27       1.0  0.65310  0.30480  0.74140  1.0000 0.0898235438
C   C28       1.0  0.34690  0.69520  0.24140  1.0000 0.0898235438
C   C29       1.0  0.86130  0.74670  0.68860  1.0000 -0.1944195798
C   C30       1.0  0.13870  0.25330  0.18860  1.0000 -0.1944195798
C   C31       1.0  0.63870  0.24670  0.68860  1.0000 -0.1944195798
C   C32       1.0  0.36130  0.75330  0.18860  1.0000 -0.1944195798
C   C33       1.0  0.80650  0.65610  0.69570  1.0000 0.1134028923
C   C34       1.0  0.19350  0.34390  0.19570  1.0000 0.1134028923
C   C35       1.0  0.69350  0.15610  0.69570  1.0000 0.1134028923
C   C36       1.0  0.30650  0.84390  0.19570  1.0000 0.1134028923
C   C37       1.0  0.74480  0.63010  0.75690  1.0000 -0.1773896574
C   C38       1.0  0.25520  0.36990  0.25690  1.0000 -0.1773896574
C   C39       1.0  0.75520  0.13010  0.75690  1.0000 -0.1773896574
C   C40       1.0  0.24480  0.86990  0.25690  1.0000 -0.1773896574
C   C41       1.0  0.73370  0.69340  0.80550  1.0000 0.0898235438
C   C42       1.0  0.26630  0.30660  0.30550  1.0000 0.0898235438
C   C43       1.0  0.76630  0.19340  0.80550  1.0000 0.0898235438
C   C44       1.0  0.23370  0.80660  0.30550  1.0000 0.0898235438
C   C45       1.0  0.80600  0.59210  0.63980  1.0000 0.0999430416
C   C46       1.0  0.19400  0.40790  0.13980  1.0000 0.0999430416
C   C47       1.0  0.69400  0.09210  0.63980  1.0000 0.0999430416
C   C48       1.0  0.30600  0.90790  0.13980  1.0000 0.0999430416
C   C49       1.0  0.84610  0.49960  0.64750  1.0000 -0.1944195798
C   C50       1.0  0.15390  0.50040  0.14750  1.0000 -0.1944195798
C   C51       1.0  0.65390  0.99960  0.64750  1.0000 -0.1944195798
C   C52       1.0  0.34610  0.00040  0.14750  1.0000 -0.1944195798
C   C53       1.0  0.83420  0.44170  0.59510  1.0000 0.0817549021
C   C54       1.0  0.16580  0.55830  0.09510  1.0000 0.0817549021
C   C55       1.0  0.66580  0.94170  0.59510  1.0000 0.0817549021
C   C56       1.0  0.33420  0.05830  0.09510  1.0000 0.0817549021
C   C57       1.0  0.74990  0.56020  0.52710  1.0000 0.0999430416
C   C58       1.0  0.25010  0.43980  0.02710  1.0000 0.0999430416
C   C59       1.0  0.75010  0.06020  0.52710  1.0000 0.0999430416
C   C60       1.0  0.24990  0.93980  0.02710  1.0000 0.0999430416
C   C61       1.0  0.75990  0.62170  0.57810  1.0000 -0.1773896574
C   C62       1.0  0.24010  0.37830  0.07810  1.0000 -0.1773896574
C   C63       1.0  0.74010  0.12170  0.57810  1.0000 -0.1773896574
C   C64       1.0  0.25990  0.87830  0.07810  1.0000 -0.1773896574
N   N1        1.0  0.78170  0.78010  0.79800  1.0000 -0.2162181942
N   N2        1.0  0.21830  0.21990  0.29800  1.0000 -0.2162181942
N   N3        1.0  0.71830  0.28010  0.79800  1.0000 -0.2162181942
N   N4        1.0  0.28170  0.71990  0.29800  1.0000 -0.2162181942
N   N5        1.0  0.78430  0.46920  0.53440  1.0000 -0.2294857411
N   N6        1.0  0.21570  0.53080  0.03440  1.0000 -0.2294857411
N   N7        1.0  0.71570  0.96920  0.53440  1.0000 -0.2294857411
N   N8        1.0  0.28430  0.03080  0.03440  1.0000 -0.2294857411
O   O1        1.0  0.75110  0.97160  0.95710  1.0000 -0.6610410271
O   O2        1.0  0.24890  0.02840  0.45710  1.0000 -0.6610410271
O   O3        1.0  0.74890  0.47160  0.95710  1.0000 -0.6610410271
O   O4        1.0  0.25110  0.52840  0.45710  1.0000 -0.6610410271
O   O5        1.0  0.24240  0.72160  0.87600  1.0000 -0.6891842543
O   O6        1.0  0.75760  0.27840  0.37600  1.0000 -0.6891842543
O   O7        1.0  0.25760  0.22160  0.87600  1.0000 -0.6891842543
O   O8        1.0  0.74240  0.77840  0.37600  1.0000 -0.6891842543
O   O9        1.0  0.55130  0.79180  0.92540  1.0000 -0.5794301489
O   O10       1.0  0.44870  0.20820  0.42540  1.0000 -0.5794301489
O   O11       1.0  0.94870  0.29180  0.92540  1.0000 -0.5794301489
O   O12       1.0  0.05130  0.70820  0.42540  1.0000 -0.5794301489
O   O13       1.0  0.45350  0.69540  0.00120  1.0000 -0.5603289513
O   O14       1.0  0.54650  0.30460  0.50120  1.0000 -0.5603289513
O   O15       1.0  0.04650  0.19540  0.00120  1.0000 -0.5603289513
O   O16       1.0  0.95350  0.80460  0.50120  1.0000 -0.5603289513
O   O17       1.0  0.94260  0.79890  0.92970  1.0000 -0.5603289513
O   O18       1.0  0.05740  0.20110  0.42970  1.0000 -0.5603289513
O   O19       1.0  0.55740  0.29890  0.92970  1.0000 -0.5603289513
O   O20       1.0  0.44260  0.70110  0.42970  1.0000 -0.5603289513
O   O21       1.0  0.02470  0.69470  0.00110  1.0000 -0.5603289513
O   O22       1.0  0.97530  0.30530  0.50110  1.0000 -0.5603289513
O   O23       1.0  0.47530  0.19470  0.00110  1.0000 -0.5603289513
O   O24       1.0  0.52470  0.80530  0.50110  1.0000 -0.5603289513
O   O25       1.0  0.43500  0.54420  0.90880  1.0000 -0.5676452576
O   O26       1.0  0.56500  0.45580  0.40880  1.0000 -0.5676452576
O   O27       1.0  0.06500  0.04420  0.90880  1.0000 -0.5676452576
O   O28       1.0  0.93500  0.95580  0.40880  1.0000 -0.5676452576
O   O29       1.0  0.53840  0.45000  0.83210  1.0000 -0.5794301489
O   O30       1.0  0.46160  0.55000  0.33210  1.0000 -0.5794301489
O   O31       1.0  0.96160  0.95000  0.83210  1.0000 -0.5794301489
O   O32       1.0  0.03840  0.05000  0.33210  1.0000 -0.5794301489
O   O33       1.0  0.04490  0.54410  0.90330  1.0000 -0.5603289513
O   O34       1.0  0.95510  0.45590  0.40330  1.0000 -0.5603289513
O   O35       1.0  0.45510  0.04410  0.90330  1.0000 -0.5603289513
O   O36       1.0  0.54490  0.95590  0.40330  1.0000 -0.5603289513
O   O37       1.0  0.96650  0.43900  0.82940  1.0000 -0.5794301489
O   O38       1.0  0.03350  0.56100  0.32940  1.0000 -0.5794301489
O   O39       1.0  0.53350  0.93900  0.82940  1.0000 -0.5794301489
O   O40       1.0  0.46650  0.06100  0.32940  1.0000 -0.5794301489
