# DDEC6 charges by PACMAN v1.1 (https://github.com/mtap-research/PACMAN-charge/)
data_2013[Mg][acs]3[FSR]8
_chemical_formula_sum              "Mg2 H6 C6 O12"
_cell_length_a       7.2835
_cell_length_b       7.2835
_cell_length_c       8.2172
_cell_angle_alpha    90
_cell_angle_beta     90
_cell_angle_gamma    120

_symmetry_space_group_name_H-M    "P 1"
_symmetry_Int_Tables_number       1

loop_
  _symmetry_equiv_pos_as_xyz
  'x, y, z'

loop_
  _atom_site_type_symbol
  _atom_site_label
  _atom_site_symmetry_multiplicity
  _atom_site_fract_x
  _atom_site_fract_y
  _atom_site_fract_z
  _atom_site_occupancy
  _atom_site_charge
Mg  Mg1       1.0  0.66667  0.33333  0.75000  1.0000 1.2760721394
Mg  Mg2       1.0  0.33333  0.66667  0.25000  1.0000 1.2760721394
H   H1        1.0  0.00000  0.56670  0.00000  1.0000 0.1079927855
H   H2        1.0  0.43330  0.43330  0.00000  1.0000 0.1079927855
H   H3        1.0  0.56670  0.00000  0.00000  1.0000 0.1079927855
H   H4        1.0  0.00000  0.43330  0.50000  1.0000 0.1079927855
H   H5        1.0  0.56670  0.56670  0.50000  1.0000 0.1079927855
H   H6        1.0  0.43330  0.00000  0.50000  1.0000 0.1079927855
C   C1        1.0  0.00000  0.43900  0.00000  1.0000 0.5158017425
C   C2        1.0  0.56100  0.56100  0.00000  1.0000 0.5158017425
C   C3        1.0  0.43900  0.00000  0.00000  1.0000 0.5158017425
C   C4        1.0  1.00000  0.56100  0.50000  1.0000 0.5158017425
C   C5        1.0  0.43900  0.43900  0.50000  1.0000 0.5158017425
C   C6        1.0  0.56100  0.00000  0.50000  1.0000 0.5158017425
O   O1        1.0  0.89071  0.31048  0.89425  1.0000 -0.5245759539
O   O2        1.0  0.68952  0.58023  0.89425  1.0000 -0.5245759539
O   O3        1.0  0.41977  0.10929  0.89425  1.0000 -0.5245759539
O   O4        1.0  0.10929  0.68952  0.39425  1.0000 -0.5245759539
O   O5        1.0  0.31048  0.41977  0.39425  1.0000 -0.5245759539
O   O6        1.0  0.58023  0.89071  0.39425  1.0000 -0.5245759539
O   O7        1.0  0.31048  0.89071  0.10575  1.0000 -0.5245759539
O   O8        1.0  0.58023  0.68952  0.10575  1.0000 -0.5245759539
O   O9        1.0  0.10929  0.41977  0.10575  1.0000 -0.5245759539
O   O10       1.0  0.68952  0.10929  0.60575  1.0000 -0.5245759539
O   O11       1.0  0.41977  0.31048  0.60575  1.0000 -0.5245759539
O   O12       1.0  0.89071  0.58023  0.60575  1.0000 -0.5245759539
