# DDEC6 charges by PACMAN v1.1 (https://github.com/mtap-research/PACMAN-charge/)
data_2013[Zn][pcu]3[FSR]8
_chemical_formula_sum              "Zn4 H32 C56 N4 O24"
_cell_length_a       10.8947
_cell_length_b       10.9708
_cell_length_c       13.9891
_cell_angle_alpha    81.54
_cell_angle_beta     89.016
_cell_angle_gamma    87.658

_symmetry_space_group_name_H-M    "P 1"
_symmetry_Int_Tables_number       1

loop_
  _symmetry_equiv_pos_as_xyz
  'x, y, z'

loop_
  _atom_site_type_symbol
  _atom_site_label
  _atom_site_symmetry_multiplicity
  _atom_site_fract_x
  _atom_site_fract_y
  _atom_site_fract_z
  _atom_site_occupancy
  _atom_site_charge
Zn  Zn1       1.0  0.72700  0.66383  0.60703  1.0000 0.8287339544
Zn  Zn2       1.0  0.72296  0.62223  0.81924  1.0000 0.8213501907
Zn  Zn3       1.0  0.27300  0.33617  0.39297  1.0000 0.8287339544
Zn  Zn4       1.0  0.27704  0.37777  0.18076  1.0000 0.8213501907
H   H1        1.0  0.54830  0.64810  0.45150  1.0000 0.1176212326
H   H2        1.0  0.54220  0.64080  0.29040  1.0000 0.1314350533
H   H3        1.0  0.54430  0.63530  0.98110  1.0000 0.1176212326
H   H4        1.0  0.90660  0.62630  0.13740  1.0000 0.1371539063
H   H5        1.0  0.90180  0.68410  0.43890  1.0000 0.1176212326
H   H6        1.0  0.78240  0.27730  0.58330  1.0000 0.1176212326
H   H7        1.0  0.53970  0.65060  0.14000  1.0000 0.1314350533
H   H8        1.0  0.12520  0.64460  0.57180  1.0000 0.1176212326
H   H9        1.0  0.90490  0.68100  0.27680  1.0000 0.1371539063
H   H10       1.0  0.78180  0.07270  0.57420  1.0000 0.1314350533
H   H11       1.0  0.89930  0.60880  0.97830  1.0000 0.1176212326
H   H12       1.0  0.33130  0.65150  0.57250  1.0000 0.1176212326
H   H13       1.0  0.20890  0.79070  0.94570  1.0000 0.0903679159
H   H14       1.0  0.21600  0.65740  0.00590  1.0000 0.1176212326
H   H15       1.0  0.63060  0.07300  0.00030  1.0000 0.0975380464
H   H16       1.0  0.51440  0.09780  0.93370  1.0000 0.0903679159
H   H17       1.0  0.45170  0.35190  0.54850  1.0000 0.1176212326
H   H18       1.0  0.45780  0.35920  0.70960  1.0000 0.1314350533
H   H19       1.0  0.45570  0.36470  0.01890  1.0000 0.1176212326
H   H20       1.0  0.09340  0.37370  0.86260  1.0000 0.1371539063
H   H21       1.0  0.09820  0.31590  0.56110  1.0000 0.1176212326
H   H22       1.0  0.21760  0.72270  0.41670  1.0000 0.1176212326
H   H23       1.0  0.46030  0.34940  0.86000  1.0000 0.1314350533
H   H24       1.0  0.87480  0.35540  0.42820  1.0000 0.1176212326
H   H25       1.0  0.09510  0.31900  0.72320  1.0000 0.1371539063
H   H26       1.0  0.21820  0.92730  0.42580  1.0000 0.1314350533
H   H27       1.0  0.10070  0.39120  0.02170  1.0000 0.1176212326
H   H28       1.0  0.66870  0.34850  0.42750  1.0000 0.1176212326
H   H29       1.0  0.79110  0.20930  0.05430  1.0000 0.0903679159
H   H30       1.0  0.78400  0.34260  0.99410  1.0000 0.1176212326
H   H31       1.0  0.36940  0.92700  0.99970  1.0000 0.0975380464
H   H32       1.0  0.48560  0.90220  0.06630  1.0000 0.0903679159
C   C1        1.0  0.72620  0.40690  0.72340  1.0000 0.5877649522
C   C2        1.0  0.72590  0.27150  0.72080  1.0000 -0.1265749225
C   C3        1.0  0.95790  0.64190  0.71290  1.0000 0.5991785562
C   C4        1.0  0.68940  0.06040  0.79170  1.0000 0.1371539063
C   C5        1.0  0.72360  0.64500  0.15910  1.0000 0.1099523118
C   C6        1.0  0.15620  0.66400  0.79680  1.0000 0.1371539063
C   C7        1.0  0.62120  0.65440  0.41590  1.0000 0.0903679159
C   C8        1.0  0.61720  0.64900  0.31910  1.0000 -0.1828943604
C   C9        1.0  0.72410  0.65570  0.26310  1.0000 0.1099523118
C   C10       1.0  0.09410  0.65320  0.71390  1.0000 -0.1223841907
C   C11       1.0  0.61840  0.63410  0.01330  1.0000 0.0806631159
C   C12       1.0  0.83100  0.62950  0.10710  1.0000 -0.1881461679
C   C13       1.0  0.82810  0.67590  0.40830  1.0000 0.0903679159
C   C14       1.0  0.75900  0.22360  0.63760  1.0000 -0.1265749225
C   C15       1.0  0.61490  0.64420  0.10830  1.0000 -0.1828943604
C   C16       1.0  0.69000  0.18630  0.79830  1.0000 0.1314350533
C   C17       1.0  0.28460  0.66850  0.79620  1.0000 0.1371539063
C   C18       1.0  0.16450  0.64980  0.62950  1.0000 -0.1223841907
C   C19       1.0  0.48970  0.65490  0.71360  1.0000 0.5877649522
C   C20       1.0  0.35560  0.66140  0.71490  1.0000 -0.1498486811
C   C21       1.0  0.72520  0.01230  0.70870  1.0000 -0.1014985705
C   C22       1.0  0.83090  0.67230  0.31090  1.0000 -0.1881461679
C   C23       1.0  0.75850  0.09920  0.63230  1.0000 -0.1144879238
C   C24       1.0  0.82580  0.61910  0.01140  1.0000 0.0806631159
C   C25       1.0  0.28820  0.65380  0.63020  1.0000 -0.1144879238
C   C26       1.0  0.72520  0.87790  0.70260  1.0000 0.5991785562
C   C27       1.0  0.21490  0.70330  0.94110  1.0000 0.0806631159
C   C28       1.0  0.60350  0.09230  0.93390  1.0000 0.0531794018
C   C29       1.0  0.27380  0.59310  0.27660  1.0000 0.5877649522
C   C30       1.0  0.27410  0.72850  0.27920  1.0000 -0.1265749225
C   C31       1.0  0.04210  0.35810  0.28710  1.0000 0.5991785562
C   C32       1.0  0.31060  0.93960  0.20830  1.0000 0.1371539063
C   C33       1.0  0.27640  0.35500  0.84090  1.0000 0.1099523118
C   C34       1.0  0.84380  0.33600  0.20320  1.0000 0.1371539063
C   C35       1.0  0.37880  0.34560  0.58410  1.0000 0.0903679159
C   C36       1.0  0.38280  0.35100  0.68090  1.0000 -0.1828943604
C   C37       1.0  0.27590  0.34430  0.73690  1.0000 0.1099523118
C   C38       1.0  0.90590  0.34680  0.28610  1.0000 -0.1223841907
C   C39       1.0  0.38160  0.36590  0.98670  1.0000 0.0806631159
C   C40       1.0  0.16900  0.37050  0.89290  1.0000 -0.1881461679
C   C41       1.0  0.17190  0.32410  0.59170  1.0000 0.0903679159
C   C42       1.0  0.24100  0.77640  0.36240  1.0000 -0.1265749225
C   C43       1.0  0.38510  0.35580  0.89170  1.0000 -0.1828943604
C   C44       1.0  0.31000  0.81370  0.20170  1.0000 0.1314350533
C   C45       1.0  0.71540  0.33150  0.20380  1.0000 0.1371539063
C   C46       1.0  0.83550  0.35020  0.37050  1.0000 -0.1223841907
C   C47       1.0  0.51030  0.34510  0.28640  1.0000 0.5877649522
C   C48       1.0  0.64440  0.33860  0.28510  1.0000 -0.1498486811
C   C49       1.0  0.27480  0.98770  0.29130  1.0000 -0.1014985705
C   C50       1.0  0.16910  0.32770  0.68910  1.0000 -0.1881461679
C   C51       1.0  0.24150  0.90080  0.36770  1.0000 -0.1144879238
C   C52       1.0  0.17420  0.38090  0.98860  1.0000 0.0806631159
C   C53       1.0  0.71180  0.34620  0.36980  1.0000 -0.1144879238
C   C54       1.0  0.27480  0.12210  0.29740  1.0000 0.5991785562
C   C55       1.0  0.78510  0.29670  0.05890  1.0000 0.0806631159
C   C56       1.0  0.39650  0.90770  0.06610  1.0000 0.0531794018
N   N1        1.0  0.72520  0.66830  0.46170  1.0000 -0.2079894417
N   N2        1.0  0.72230  0.62270  0.96280  1.0000 -0.2079894417
N   N3        1.0  0.27480  0.33170  0.53830  1.0000 -0.2079894417
N   N4        1.0  0.27770  0.37730  0.03720  1.0000 -0.2079894417
O   O1        1.0  0.73260  0.47550  0.64420  1.0000 -0.5459350013
O   O2        1.0  0.90810  0.66050  0.63180  1.0000 -0.539729979
O   O3        1.0  0.90400  0.61500  0.79260  1.0000 -0.5306650961
O   O4        1.0  0.54360  0.66480  0.63320  1.0000 -0.539729979
O   O5        1.0  0.54170  0.64020  0.79230  1.0000 -0.5110359156
O   O6        1.0  0.72880  0.80790  0.78000  1.0000 -0.523509469
O   O7        1.0  0.72330  0.84780  0.62100  1.0000 -0.5110359156
O   O8        1.0  0.71740  0.44140  0.80460  1.0000 -0.5306650961
O   O9        1.0  0.11360  0.66880  0.88770  1.0000 -0.1881461679
O   O10       1.0  0.32410  0.67400  0.88800  1.0000 -0.2079894417
O   O11       1.0  0.64850  0.99870  0.87850  1.0000 -0.1828943604
O   O12       1.0  0.65270  0.20680  0.88880  1.0000 -0.204593923
O   O13       1.0  0.26740  0.52450  0.35580  1.0000 -0.5459350013
O   O14       1.0  0.09190  0.33950  0.36820  1.0000 -0.539729979
O   O15       1.0  0.09600  0.38500  0.20740  1.0000 -0.5306650961
O   O16       1.0  0.45640  0.33520  0.36680  1.0000 -0.539729979
O   O17       1.0  0.45830  0.35980  0.20770  1.0000 -0.5110359156
O   O18       1.0  0.27120  0.19210  0.22000  1.0000 -0.523509469
O   O19       1.0  0.27670  0.15220  0.37900  1.0000 -0.5110359156
O   O20       1.0  0.28260  0.55860  0.19540  1.0000 -0.5306650961
O   O21       1.0  0.88640  0.33120  0.11230  1.0000 -0.1881461679
O   O22       1.0  0.67590  0.32600  0.11200  1.0000 -0.204593923
O   O23       1.0  0.35150  0.00130  0.12150  1.0000 -0.1828943604
O   O24       1.0  0.34730  0.79320  0.11120  1.0000 -0.204593923
