# DDEC6 charges by PACMAN v1.1 (https://github.com/mtap-research/PACMAN-charge/)
data_2013[Er][mog]3[FSR]2
_chemical_formula_sum              "Er2 H28 C48 N4 O12"
_cell_length_a       10.0691
_cell_length_b       10.9491
_cell_length_c       13.2211
_cell_angle_alpha    99.755
_cell_angle_beta     110.245
_cell_angle_gamma    107.793

_symmetry_space_group_name_H-M    "P 1"
_symmetry_Int_Tables_number       1

loop_
  _symmetry_equiv_pos_as_xyz
  'x, y, z'

loop_
  _atom_site_type_symbol
  _atom_site_label
  _atom_site_symmetry_multiplicity
  _atom_site_fract_x
  _atom_site_fract_y
  _atom_site_fract_z
  _atom_site_occupancy
  _atom_site_charge
Er  Er1       1.0  0.15494  0.70651  0.19581  1.0000 1.916677701
Er  Er2       1.0  0.84506  0.29349  0.80419  1.0000 1.916677701
H   H1        1.0  0.72430  0.61900  0.16300  1.0000 0.1275798939
H   H2        1.0  0.27570  0.38100  0.83700  1.0000 0.1275798939
H   H3        1.0  0.50390  0.36780  0.84550  1.0000 0.1275798939
H   H4        1.0  0.49610  0.63220  0.15450  1.0000 0.1275798939
H   H5        1.0  0.83710  0.91540  0.31060  1.0000 0.1275798939
H   H6        1.0  0.16290  0.08460  0.68940  1.0000 0.1275798939
H   H7        1.0  0.22510  0.96770  0.56400  1.0000 0.1231644216
H   H8        1.0  0.77490  0.03230  0.43600  1.0000 0.1231644216
H   H9        1.0  0.23360  0.40980  0.42590  1.0000 0.1231644216
H   H10       1.0  0.76640  0.59020  0.57410  1.0000 0.1231644216
H   H11       1.0  0.62660  0.66980  0.44230  1.0000 0.1275798939
H   H12       1.0  0.37340  0.33020  0.55770  1.0000 0.1275798939
H   H13       1.0  0.96350  0.64150  0.91320  1.0000 0.1109200844
H   H14       1.0  0.03650  0.35850  0.08680  1.0000 0.1109200844
H   H15       1.0  0.90200  0.73390  0.76990  1.0000 0.1275798939
H   H16       1.0  0.09800  0.26610  0.23010  1.0000 0.1275798939
H   H17       1.0  0.02320  0.96550  0.80870  1.0000 0.1231644216
H   H18       1.0  0.97680  0.03450  0.19130  1.0000 0.1231644216
H   H19       1.0  0.20350  0.19040  0.95630  1.0000 0.1275798939
H   H20       1.0  0.79650  0.80960  0.04370  1.0000 0.1275798939
H   H21       1.0  0.38910  0.31150  0.13600  1.0000 0.1231644216
H   H22       1.0  0.61090  0.68850  0.86400  1.0000 0.1231644216
H   H23       1.0  0.54140  0.31540  0.33540  1.0000 0.1231644216
H   H24       1.0  0.45860  0.68460  0.66460  1.0000 0.1231644216
H   H25       1.0  0.60050  0.19430  0.45840  1.0000 0.142030141
H   H26       1.0  0.39950  0.80570  0.54160  1.0000 0.142030141
H   H27       1.0  0.46490  0.96520  0.40020  1.0000 0.1109200844
H   H28       1.0  0.53510  0.03480  0.59980  1.0000 0.1109200844
C   C1        1.0  0.78730  0.48560  0.01090  1.0000 0.6544308538
C   C2        1.0  0.21270  0.51440  0.98910  1.0000 0.6544308538
C   C3        1.0  0.63740  0.49200  0.00520  1.0000 -0.0377201897
C   C4        1.0  0.36260  0.50800  0.99480  1.0000 -0.0377201897
C   C5        1.0  0.63400  0.57090  0.09720  1.0000 -0.1088700185
C   C6        1.0  0.36600  0.42910  0.90280  1.0000 -0.1088700185
C   C7        1.0  0.50280  0.42100  0.90770  1.0000 -0.1088700185
C   C8        1.0  0.49720  0.57900  0.09230  1.0000 -0.1088700185
C   C9        1.0  0.07690  0.85130  0.34260  1.0000 0.5621161337
C   C10       1.0  0.92310  0.14870  0.65740  1.0000 0.5621161337
C   C11       1.0  0.03870  0.92980  0.42420  1.0000 -0.0135329885
C   C12       1.0  0.96130  0.07020  0.57580  1.0000 -0.0135329885
C   C13       1.0  0.90380  0.94960  0.38730  1.0000 -0.1088700185
C   C14       1.0  0.09620  0.05040  0.61270  1.0000 -0.1088700185
C   C15       1.0  0.13350  0.98060  0.53730  1.0000 -0.102475894
C   C16       1.0  0.86650  0.01940  0.46270  1.0000 -0.102475894
C   C17       1.0  0.32570  0.60070  0.33630  1.0000 0.5621161337
C   C18       1.0  0.67430  0.39930  0.66370  1.0000 0.5621161337
C   C19       1.0  0.41580  0.54760  0.42080  1.0000 -0.024641204
C   C20       1.0  0.58420  0.45240  0.57920  1.0000 -0.024641204
C   C21       1.0  0.34050  0.44600  0.45570  1.0000 -0.1197608796
C   C22       1.0  0.65950  0.55400  0.54430  1.0000 -0.1197608796
C   C23       1.0  0.57590  0.60160  0.46550  1.0000 -0.1088700185
C   C24       1.0  0.42410  0.39840  0.53450  1.0000 -0.1088700185
C   C25       1.0  0.01090  0.73450  0.93040  1.0000 0.1109200844
C   C26       1.0  0.98910  0.26550  0.06960  1.0000 0.1109200844
C   C27       1.0  0.97340  0.78860  0.84270  1.0000 -0.1358860929
C   C28       1.0  0.02660  0.21140  0.15730  1.0000 -0.1358860929
C   C29       1.0  0.04460  0.92560  0.86580  1.0000 -0.0795074117
C   C30       1.0  0.95540  0.07440  0.13420  1.0000 -0.0795074117
C   C31       1.0  0.15010  0.00390  0.97760  1.0000 0.0413625806
C   C32       1.0  0.84990  0.99610  0.02240  1.0000 0.0413625806
C   C33       1.0  0.22770  0.14580  0.00960  1.0000 -0.1197608796
C   C34       1.0  0.77230  0.85420  0.99040  1.0000 -0.1197608796
C   C35       1.0  0.33780  0.21890  0.11790  1.0000 -0.1506783341
C   C36       1.0  0.66220  0.78110  0.88210  1.0000 -0.1506783341
C   C37       1.0  0.37410  0.15470  0.20250  1.0000 0.0496345299
C   C38       1.0  0.62590  0.84530  0.79750  1.0000 0.0496345299
C   C39       1.0  0.48880  0.22230  0.31220  1.0000 -0.0795074117
C   C40       1.0  0.51120  0.77770  0.68780  1.0000 -0.0795074117
C   C41       1.0  0.52320  0.15090  0.38520  1.0000 -0.1304007297
C   C42       1.0  0.47680  0.84910  0.61480  1.0000 -0.1304007297
C   C43       1.0  0.44110  0.01230  0.34890  1.0000 0.1109200844
C   C44       1.0  0.55890  0.98770  0.65110  1.0000 0.1109200844
C   C45       1.0  0.29570  0.01270  0.17320  1.0000 0.142030141
C   C46       1.0  0.70430  0.98730  0.82680  1.0000 0.142030141
C   C47       1.0  0.17790  0.93770  0.05800  1.0000 0.1231644216
C   C48       1.0  0.82210  0.06230  0.94200  1.0000 0.1231644216
N   N1        1.0  0.10880  0.80400  0.03710  1.0000 -0.3780069922
N   N2        1.0  0.89120  0.19600  0.96290  1.0000 -0.3780069922
N   N3        1.0  0.33140  0.94300  0.24600  1.0000 -0.3646997039
N   N4        1.0  0.66860  0.05700  0.75400  1.0000 -0.3646997039
O   O1        1.0  0.90880  0.55970  0.09590  1.0000 -0.655742747
O   O2        1.0  0.09120  0.44030  0.90410  1.0000 -0.655742747
O   O3        1.0  0.78070  0.40690  0.92640  1.0000 -0.6719535117
O   O4        1.0  0.21930  0.59310  0.07360  1.0000 -0.6719535117
O   O5        1.0  0.01180  0.83410  0.23820  1.0000 -0.626359952
O   O6        1.0  0.98820  0.16590  0.76180  1.0000 -0.626359952
O   O7        1.0  0.17610  0.80110  0.38040  1.0000 -0.6360447531
O   O8        1.0  0.82390  0.19890  0.61960  1.0000 -0.6360447531
O   O9        1.0  0.18100  0.53770  0.28270  1.0000 -0.6203399425
O   O10       1.0  0.81900  0.46230  0.71730  1.0000 -0.6203399425
O   O11       1.0  0.39400  0.70890  0.32060  1.0000 -0.6360447531
O   O12       1.0  0.60600  0.29110  0.67940  1.0000 -0.6360447531
