# DDEC6 charges by PACMAN v1.1 (https://github.com/mtap-research/PACMAN-charge/)
data_2013[Nd][nan]3[FSR]2
_chemical_formula_sum              "Nd8 H64 C152 O72 F48"
_cell_length_a       7.3654
_cell_length_b       29.0284
_cell_length_c       23.4808
_cell_angle_alpha    90
_cell_angle_beta     90.969
_cell_angle_gamma    90

_symmetry_space_group_name_H-M    "P 1"
_symmetry_Int_Tables_number       1

loop_
  _symmetry_equiv_pos_as_xyz
  'x, y, z'

loop_
  _atom_site_type_symbol
  _atom_site_label
  _atom_site_symmetry_multiplicity
  _atom_site_fract_x
  _atom_site_fract_y
  _atom_site_fract_z
  _atom_site_occupancy
  _atom_site_charge
Nd  Nd1       1.0  0.78954  0.29729  0.67208  1.0000 2.0545165392
Nd  Nd2       1.0  0.21046  0.79729  0.82792  1.0000 2.0545165392
Nd  Nd3       1.0  0.21046  0.70271  0.32792  1.0000 2.0545165392
Nd  Nd4       1.0  0.78954  0.20271  0.17208  1.0000 2.0545165392
Nd  Nd5       1.0  0.28631  0.26218  0.74295  1.0000 2.1245061012
Nd  Nd6       1.0  0.71369  0.76218  0.75705  1.0000 2.1245061012
Nd  Nd7       1.0  0.71369  0.73782  0.25705  1.0000 2.1245061012
Nd  Nd8       1.0  0.28631  0.23782  0.24295  1.0000 2.1245061012
H   H1        1.0  0.92890  0.57660  0.62020  1.0000 0.369150758
H   H2        1.0  0.07110  0.07660  0.87980  1.0000 0.369150758
H   H3        1.0  0.07110  0.42340  0.37980  1.0000 0.369150758
H   H4        1.0  0.92890  0.92340  0.12020  1.0000 0.369150758
H   H5        1.0  0.89680  0.29460  0.34360  1.0000 0.3557415159
H   H6        1.0  0.10320  0.79460  0.15640  1.0000 0.3557415159
H   H7        1.0  0.10320  0.70540  0.65640  1.0000 0.3557415159
H   H8        1.0  0.89680  0.20540  0.84360  1.0000 0.3557415159
H   H9        1.0  0.60480  0.20970  0.79200  1.0000 0.369150758
H   H10       1.0  0.39520  0.70970  0.70800  1.0000 0.369150758
H   H11       1.0  0.39520  0.79030  0.20800  1.0000 0.369150758
H   H12       1.0  0.60480  0.29030  0.29200  1.0000 0.369150758
H   H13       1.0  0.48150  0.18190  0.81650  1.0000 0.3891479673
H   H14       1.0  0.51850  0.68190  0.68350  1.0000 0.3891479673
H   H15       1.0  0.51850  0.81810  0.18350  1.0000 0.3891479673
H   H16       1.0  0.48150  0.31810  0.31650  1.0000 0.3891479673
H   H17       1.0  0.58880  0.44830  0.74140  1.0000 0.1197818868
H   H18       1.0  0.41120  0.94830  0.75860  1.0000 0.1197818868
H   H19       1.0  0.41120  0.55170  0.25860  1.0000 0.1197818868
H   H20       1.0  0.58880  0.05170  0.24140  1.0000 0.1197818868
H   H21       1.0  0.97740  0.43170  0.77590  1.0000 0.1314607721
H   H22       1.0  0.02260  0.93170  0.72410  1.0000 0.1314607721
H   H23       1.0  0.02260  0.56830  0.22410  1.0000 0.1314607721
H   H24       1.0  0.97740  0.06830  0.27590  1.0000 0.1314607721
H   H25       1.0  0.12910  0.49800  0.80500  1.0000 0.1197818868
H   H26       1.0  0.87090  0.99800  0.69500  1.0000 0.1197818868
H   H27       1.0  0.87090  0.50200  0.19500  1.0000 0.1197818868
H   H28       1.0  0.12910  0.00200  0.30500  1.0000 0.1197818868
H   H29       1.0  0.23150  0.55020  0.71270  1.0000 0.1197818868
H   H30       1.0  0.76850  0.05020  0.78730  1.0000 0.1197818868
H   H31       1.0  0.76850  0.44980  0.28730  1.0000 0.1197818868
H   H32       1.0  0.23150  0.94980  0.21270  1.0000 0.1197818868
H   H33       1.0  0.24100  0.66600  0.84770  1.0000 0.1314607721
H   H34       1.0  0.75900  0.16600  0.65230  1.0000 0.1314607721
H   H35       1.0  0.75900  0.33400  0.15230  1.0000 0.1314607721
H   H36       1.0  0.24100  0.83400  0.34770  1.0000 0.1314607721
H   H37       1.0  0.41790  0.60070  0.86100  1.0000 0.1197818868
H   H38       1.0  0.58210  0.10070  0.63900  1.0000 0.1197818868
H   H39       1.0  0.58210  0.39930  0.13900  1.0000 0.1197818868
H   H40       1.0  0.41790  0.89930  0.36100  1.0000 0.1197818868
H   H41       1.0  0.96550  0.17780  0.53780  1.0000 0.1197818868
H   H42       1.0  0.03450  0.67780  0.96220  1.0000 0.1197818868
H   H43       1.0  0.03450  0.82220  0.46220  1.0000 0.1197818868
H   H44       1.0  0.96550  0.32220  0.03780  1.0000 0.1197818868
H   H45       1.0  0.58890  0.17260  0.55640  1.0000 0.1314607721
H   H46       1.0  0.41110  0.67260  0.94360  1.0000 0.1314607721
H   H47       1.0  0.41110  0.82740  0.44360  1.0000 0.1314607721
H   H48       1.0  0.58890  0.32740  0.05640  1.0000 0.1314607721
H   H49       1.0  0.44080  0.11790  0.50350  1.0000 0.1197818868
H   H50       1.0  0.55920  0.61790  0.99650  1.0000 0.1197818868
H   H51       1.0  0.55920  0.88210  0.49650  1.0000 0.1197818868
H   H52       1.0  0.44080  0.38210  0.00350  1.0000 0.1197818868
H   H53       1.0  0.11710  0.18300  0.42090  1.0000 0.1387662293
H   H54       1.0  0.88290  0.68300  0.07910  1.0000 0.1387662293
H   H55       1.0  0.88290  0.81700  0.57910  1.0000 0.1387662293
H   H56       1.0  0.11710  0.31700  0.92090  1.0000 0.1387662293
H   H57       1.0  0.56890  0.11860  0.36510  1.0000 0.1314607721
H   H58       1.0  0.43110  0.61860  0.13490  1.0000 0.1314607721
H   H59       1.0  0.43110  0.88140  0.63490  1.0000 0.1314607721
H   H60       1.0  0.56890  0.38140  0.86510  1.0000 0.1314607721
H   H61       1.0  0.74930  0.08170  0.43260  1.0000 0.1197818868
H   H62       1.0  0.25070  0.58170  0.06740  1.0000 0.1197818868
H   H63       1.0  0.25070  0.91830  0.56740  1.0000 0.1197818868
H   H64       1.0  0.74930  0.41830  0.93260  1.0000 0.1197818868
C   C1        1.0  0.46830  0.52620  0.79330  1.0000 -0.2735663502
C   C2        1.0  0.53170  0.02620  0.70670  1.0000 -0.2735663502
C   C3        1.0  0.53170  0.47380  0.20670  1.0000 -0.2735663502
C   C4        1.0  0.46830  0.97380  0.29330  1.0000 -0.2735663502
C   C5        1.0  0.37470  0.48130  0.77290  1.0000 0.0644436331
C   C6        1.0  0.62530  0.98130  0.72710  1.0000 0.0644436331
C   C7        1.0  0.62530  0.51870  0.22710  1.0000 0.0644436331
C   C8        1.0  0.37470  0.01870  0.27290  1.0000 0.0644436331
C   C9        1.0  0.46500  0.44530  0.74770  1.0000 -0.1319669314
C   C10       1.0  0.53500  0.94530  0.75230  1.0000 -0.1392134426
C   C11       1.0  0.53500  0.55470  0.25230  1.0000 -0.1319669314
C   C12       1.0  0.46500  0.05470  0.24770  1.0000 -0.1319669314
C   C13       1.0  0.37960  0.40490  0.73130  1.0000 -0.0546079081
C   C14       1.0  0.62040  0.90490  0.76870  1.0000 -0.0546079081
C   C15       1.0  0.62040  0.59510  0.26870  1.0000 -0.0546079081
C   C16       1.0  0.37960  0.09510  0.23130  1.0000 -0.0546079081
C   C17       1.0  0.19130  0.40020  0.73970  1.0000 0.0057282132
C   C18       1.0  0.80870  0.90020  0.76030  1.0000 0.0057282132
C   C19       1.0  0.80870  0.59980  0.26030  1.0000 0.0057282132
C   C20       1.0  0.19130  0.09980  0.23970  1.0000 0.0057282132
C   C21       1.0  0.10010  0.43510  0.76820  1.0000 -0.1094946636
C   C22       1.0  0.89990  0.93510  0.73180  1.0000 -0.1094946636
C   C23       1.0  0.89990  0.56490  0.23180  1.0000 -0.1094946636
C   C24       1.0  0.10010  0.06490  0.26820  1.0000 -0.1094946636
C   C25       1.0  0.19100  0.47530  0.78530  1.0000 -0.1319669314
C   C26       1.0  0.80900  0.97530  0.71470  1.0000 -0.1319669314
C   C27       1.0  0.80900  0.52470  0.21470  1.0000 -0.1319669314
C   C28       1.0  0.19100  0.02470  0.28530  1.0000 -0.1319669314
C   C29       1.0  0.48580  0.36740  0.70530  1.0000 0.6093465687
C   C30       1.0  0.51420  0.86740  0.79470  1.0000 0.6093465687
C   C31       1.0  0.51420  0.63260  0.29470  1.0000 0.6093465687
C   C32       1.0  0.48580  0.13260  0.20530  1.0000 0.6093465687
C   C33       1.0  0.08160  0.36130  0.71480  1.0000 0.6022637836
C   C34       1.0  0.91840  0.86130  0.78520  1.0000 0.6022637836
C   C35       1.0  0.91840  0.63870  0.28520  1.0000 0.6022637836
C   C36       1.0  0.08160  0.13870  0.21480  1.0000 0.6022637836
C   C37       1.0  0.34570  0.56850  0.78820  1.0000 0.0787491937
C   C38       1.0  0.65430  0.06850  0.71180  1.0000 0.0787491937
C   C39       1.0  0.65430  0.43150  0.21180  1.0000 0.0787491937
C   C40       1.0  0.34570  0.93150  0.28820  1.0000 0.0787491937
C   C41       1.0  0.23430  0.57360  0.73980  1.0000 -0.1488770245
C   C42       1.0  0.76570  0.07360  0.76020  1.0000 -0.1488770245
C   C43       1.0  0.76570  0.42640  0.26020  1.0000 -0.1488770245
C   C44       1.0  0.23430  0.92640  0.23980  1.0000 -0.1488770245
C   C45       1.0  0.12690  0.61270  0.73090  1.0000 -0.0683114118
C   C46       1.0  0.87310  0.11270  0.76910  1.0000 -0.0683114118
C   C47       1.0  0.87310  0.38730  0.26910  1.0000 -0.0683114118
C   C48       1.0  0.12690  0.88730  0.23090  1.0000 -0.0683114118
C   C49       1.0  0.12850  0.64720  0.77230  1.0000 -0.0176797244
C   C50       1.0  0.87150  0.14720  0.72770  1.0000 -0.0176797244
C   C51       1.0  0.87150  0.35280  0.22770  1.0000 -0.0176797244
C   C52       1.0  0.12850  0.85280  0.27230  1.0000 -0.0176797244
C   C53       1.0  0.23850  0.64270  0.82050  1.0000 -0.0840232147
C   C54       1.0  0.76150  0.14270  0.67950  1.0000 -0.0840232147
C   C55       1.0  0.76150  0.35730  0.17950  1.0000 -0.0840232147
C   C56       1.0  0.23850  0.85730  0.32050  1.0000 -0.0840232147
C   C57       1.0  0.34560  0.60340  0.82830  1.0000 -0.1319669314
C   C58       1.0  0.65440  0.10340  0.67170  1.0000 -0.1319669314
C   C59       1.0  0.65440  0.39660  0.17170  1.0000 -0.1319669314
C   C60       1.0  0.34560  0.89660  0.32830  1.0000 -0.1319669314
C   C61       1.0  0.01790  0.61430  0.67750  1.0000 0.5923589768
C   C62       1.0  0.98210  0.11430  0.82250  1.0000 0.5923589768
C   C63       1.0  0.98210  0.38570  0.32250  1.0000 0.5923589768
C   C64       1.0  0.01790  0.88570  0.17750  1.0000 0.5923589768
C   C65       1.0  0.00810  0.68880  0.77000  1.0000 0.6022637836
C   C66       1.0  0.99190  0.18880  0.73000  1.0000 0.6022637836
C   C67       1.0  0.99190  0.31120  0.23000  1.0000 0.6022637836
C   C68       1.0  0.00810  0.81120  0.27000  1.0000 0.6022637836
C   C69       1.0  0.53270  0.51800  0.85590  1.0000 0.6660025234
C   C70       1.0  0.46730  0.01800  0.64410  1.0000 0.6660025234
C   C71       1.0  0.46730  0.48200  0.14410  1.0000 0.6660025234
C   C72       1.0  0.53270  0.98200  0.35590  1.0000 0.6660025234
C   C73       1.0  0.63520  0.53780  0.75670  1.0000 0.6660025234
C   C74       1.0  0.36480  0.03780  0.74330  1.0000 0.6660025234
C   C75       1.0  0.36480  0.46220  0.24330  1.0000 0.6660025234
C   C76       1.0  0.63520  0.96220  0.25670  1.0000 0.6660025234
C   C77       1.0  0.07020  0.10620  0.48070  1.0000 -0.2735663502
C   C78       1.0  0.92980  0.60620  0.01930  1.0000 -0.2735663502
C   C79       1.0  0.92980  0.89380  0.51930  1.0000 -0.2735663502
C   C80       1.0  0.07020  0.39380  0.98070  1.0000 -0.2735663502
C   C81       1.0  0.18590  0.14180  0.51530  1.0000 0.0787491937
C   C82       1.0  0.81410  0.64180  0.98470  1.0000 0.0787491937
C   C83       1.0  0.81410  0.85820  0.48470  1.0000 0.0787491937
C   C84       1.0  0.18590  0.35820  0.01530  1.0000 0.0787491937
C   C85       1.0  0.09090  0.17610  0.54270  1.0000 -0.1392134426
C   C86       1.0  0.90910  0.67610  0.95730  1.0000 -0.1392134426
C   C87       1.0  0.90910  0.82390  0.45730  1.0000 -0.1392134426
C   C88       1.0  0.09090  0.32390  0.04270  1.0000 -0.1392134426
C   C89       1.0  0.17950  0.20830  0.57770  1.0000 -0.044670142
C   C90       1.0  0.82050  0.70830  0.92230  1.0000 -0.044670142
C   C91       1.0  0.82050  0.79170  0.42230  1.0000 -0.044670142
C   C92       1.0  0.17950  0.29170  0.07770  1.0000 -0.044670142
C   C93       1.0  0.37060  0.20790  0.58310  1.0000 -0.0071408287
C   C94       1.0  0.62940  0.70790  0.91690  1.0000 -0.0071408287
C   C95       1.0  0.62940  0.79210  0.41690  1.0000 -0.0071408287
C   C96       1.0  0.37060  0.29210  0.08310  1.0000 -0.0071408287
C   C97       1.0  0.46280  0.17350  0.55390  1.0000 -0.1040600164
C   C98       1.0  0.53720  0.67350  0.94610  1.0000 -0.1040600164
C   C99       1.0  0.53720  0.82650  0.44610  1.0000 -0.1040600164
C   C100      1.0  0.46280  0.32650  0.05390  1.0000 -0.1040600164
C   C101      1.0  0.37450  0.14080  0.52150  1.0000 -0.1319669314
C   C102      1.0  0.62550  0.64080  0.97850  1.0000 -0.1319669314
C   C103      1.0  0.62550  0.85920  0.47850  1.0000 -0.1319669314
C   C104      1.0  0.37450  0.35920  0.02150  1.0000 -0.1319669314
C   C105      1.0  0.06660  0.24230  0.60860  1.0000 0.6022637836
C   C106      1.0  0.93340  0.74230  0.89140  1.0000 0.6022637836
C   C107      1.0  0.93340  0.75770  0.39140  1.0000 0.6022637836
C   C108      1.0  0.06660  0.25770  0.10860  1.0000 0.6022637836
C   C109      1.0  0.47770  0.24170  0.61860  1.0000 0.6093465687
C   C110      1.0  0.52230  0.74170  0.88140  1.0000 0.6093465687
C   C111      1.0  0.52230  0.75830  0.38140  1.0000 0.6093465687
C   C112      1.0  0.47770  0.25830  0.11860  1.0000 0.6093465687
C   C113      1.0  0.94880  0.13010  0.43530  1.0000 0.0787491937
C   C114      1.0  0.05120  0.63010  0.06470  1.0000 0.0787491937
C   C115      1.0  0.05120  0.86990  0.56470  1.0000 0.0787491937
C   C116      1.0  0.94880  0.36990  0.93530  1.0000 0.0787491937
C   C117      1.0  0.00530  0.17040  0.41040  1.0000 -0.1392134426
C   C118      1.0  0.99470  0.67040  0.08960  1.0000 -0.1392134426
C   C119      1.0  0.99470  0.82960  0.58960  1.0000 -0.1392134426
C   C120      1.0  0.00530  0.32960  0.91040  1.0000 -0.1392134426
C   C121      1.0  0.89770  0.19270  0.36980  1.0000 -0.0176797244
C   C122      1.0  0.10230  0.69270  0.13020  1.0000 -0.0176797244
C   C123      1.0  0.10230  0.80730  0.63020  1.0000 -0.0176797244
C   C124      1.0  0.89770  0.30730  0.86980  1.0000 -0.0176797244
C   C125      1.0  0.72910  0.17340  0.35350  1.0000 -0.0301951019
C   C126      1.0  0.27090  0.67340  0.14650  1.0000 -0.0301951019
C   C127      1.0  0.27090  0.82660  0.64650  1.0000 -0.0301951019
C   C128      1.0  0.72910  0.32660  0.85350  1.0000 -0.0301951019
C   C129      1.0  0.67790  0.13200  0.37680  1.0000 -0.0840232147
C   C130      1.0  0.32210  0.63200  0.12320  1.0000 -0.0840232147
C   C131      1.0  0.32210  0.86800  0.62320  1.0000 -0.0840232147
C   C132      1.0  0.67790  0.36800  0.87680  1.0000 -0.0840232147
C   C133      1.0  0.78550  0.10980  0.41740  1.0000 -0.1573802156
C   C134      1.0  0.21450  0.60980  0.08260  1.0000 -0.1573802156
C   C135      1.0  0.21450  0.89020  0.58260  1.0000 -0.1573802156
C   C136      1.0  0.78550  0.39020  0.91740  1.0000 -0.1573802156
C   C137      1.0  0.95830  0.23860  0.34900  1.0000 0.6093465687
C   C138      1.0  0.04170  0.73860  0.15100  1.0000 0.6093465687
C   C139      1.0  0.04170  0.76140  0.65100  1.0000 0.6093465687
C   C140      1.0  0.95830  0.26140  0.84900  1.0000 0.6093465687
C   C141      1.0  0.60310  0.19450  0.31010  1.0000 0.6093465687
C   C142      1.0  0.39690  0.69450  0.18990  1.0000 0.6093465687
C   C143      1.0  0.39690  0.80550  0.68990  1.0000 0.6093465687
C   C144      1.0  0.60310  0.30550  0.81010  1.0000 0.6093465687
C   C145      1.0  0.18910  0.07130  0.44920  1.0000 0.6660025234
C   C146      1.0  0.81090  0.57130  0.05080  1.0000 0.6660025234
C   C147      1.0  0.81090  0.92870  0.55080  1.0000 0.6660025234
C   C148      1.0  0.18910  0.42870  0.94920  1.0000 0.6660025234
C   C149      1.0  0.95620  0.07940  0.52470  1.0000 0.6660025234
C   C150      1.0  0.04380  0.57940  0.97530  1.0000 0.6660025234
C   C151      1.0  0.04380  0.92060  0.47530  1.0000 0.6660025234
C   C152      1.0  0.95620  0.42060  0.02470  1.0000 0.6660025234
O   O1        1.0  0.65110  0.37310  0.69880  1.0000 -0.5584769545
O   O2        1.0  0.34890  0.87310  0.80120  1.0000 -0.5584769545
O   O3        1.0  0.34890  0.62690  0.30120  1.0000 -0.5584769545
O   O4        1.0  0.65110  0.12690  0.19880  1.0000 -0.5584769545
O   O5        1.0  0.40640  0.33017  0.69230  1.0000 -0.6692222802
O   O6        1.0  0.59360  0.83017  0.80770  1.0000 -0.6692222802
O   O7        1.0  0.59360  0.66983  0.30770  1.0000 -0.6692222802
O   O8        1.0  0.40640  0.16983  0.19230  1.0000 -0.6692222802
O   O9        1.0  0.05620  0.32433  0.74480  1.0000 -0.7272207437
O   O10       1.0  0.94380  0.82433  0.75520  1.0000 -0.7272207437
O   O11       1.0  0.94380  0.67567  0.25520  1.0000 -0.7272207437
O   O12       1.0  0.05620  0.17567  0.24480  1.0000 -0.7272207437
O   O13       1.0  0.00680  0.36650  0.66820  1.0000 -0.44165875
O   O14       1.0  0.99320  0.86650  0.83180  1.0000 -0.44165875
O   O15       1.0  0.99320  0.63350  0.33180  1.0000 -0.44165875
O   O16       1.0  0.00680  0.13350  0.16820  1.0000 -0.44165875
O   O17       1.0  0.99360  0.65230  0.65110  1.0000 -0.538328558
O   O18       1.0  0.00640  0.15230  0.84890  1.0000 -0.538328558
O   O19       1.0  0.00640  0.34770  0.34890  1.0000 -0.538328558
O   O20       1.0  0.99360  0.84770  0.15110  1.0000 -0.538328558
O   O21       1.0  0.95930  0.57700  0.65740  1.0000 -0.4488162956
O   O22       1.0  0.04070  0.07700  0.84260  1.0000 -0.4488162956
O   O23       1.0  0.04070  0.42300  0.34260  1.0000 -0.4488162956
O   O24       1.0  0.95930  0.92300  0.15740  1.0000 -0.4488162956
O   O25       1.0  0.07930  0.72819  0.77740  1.0000 -0.697957749
O   O26       1.0  0.92070  0.22819  0.72260  1.0000 -0.697957749
O   O27       1.0  0.92070  0.27181  0.22260  1.0000 -0.697957749
O   O28       1.0  0.07930  0.77181  0.27740  1.0000 -0.697957749
O   O29       1.0  0.84030  0.68440  0.76390  1.0000 -0.5966038851
O   O30       1.0  0.15970  0.18440  0.73610  1.0000 -0.5966038851
O   O31       1.0  0.15970  0.31560  0.23610  1.0000 -0.5966038851
O   O32       1.0  0.84030  0.81560  0.26390  1.0000 -0.5966038851
O   O33       1.0  0.13930  0.26987  0.64410  1.0000 -0.6771180777
O   O34       1.0  0.86070  0.76987  0.85590  1.0000 -0.6771180777
O   O35       1.0  0.86070  0.73013  0.35590  1.0000 -0.6771180777
O   O36       1.0  0.13930  0.23013  0.14410  1.0000 -0.6771180777
O   O37       1.0  0.89510  0.24160  0.60070  1.0000 -0.5894413216
O   O38       1.0  0.10490  0.74160  0.89930  1.0000 -0.5894413216
O   O39       1.0  0.10490  0.75840  0.39930  1.0000 -0.5894413216
O   O40       1.0  0.89510  0.25840  0.10070  1.0000 -0.5894413216
O   O41       1.0  0.50400  0.23488  0.67160  1.0000 -0.697957749
O   O42       1.0  0.49600  0.73488  0.82840  1.0000 -0.697957749
O   O43       1.0  0.49600  0.76512  0.32840  1.0000 -0.697957749
O   O44       1.0  0.50400  0.26512  0.17160  1.0000 -0.697957749
O   O45       1.0  0.55260  0.27470  0.59310  1.0000 -0.4909033922
O   O46       1.0  0.44740  0.77470  0.90690  1.0000 -0.4909033922
O   O47       1.0  0.44740  0.72530  0.40690  1.0000 -0.4909033922
O   O48       1.0  0.55260  0.22530  0.09310  1.0000 -0.4909033922
O   O49       1.0  0.11390  0.24501  0.33270  1.0000 -0.5694289355
O   O50       1.0  0.88610  0.74501  0.16730  1.0000 -0.5694289355
O   O51       1.0  0.88610  0.75499  0.66730  1.0000 -0.5694289355
O   O52       1.0  0.11390  0.25499  0.83270  1.0000 -0.5694289355
O   O53       1.0  0.84040  0.27169  0.35330  1.0000 -0.4488162956
O   O54       1.0  0.15960  0.77169  0.14670  1.0000 -0.4488162956
O   O55       1.0  0.15960  0.72831  0.64670  1.0000 -0.4488162956
O   O56       1.0  0.84040  0.22831  0.85330  1.0000 -0.4488162956
O   O57       1.0  0.66460  0.21240  0.26560  1.0000 -0.697957749
O   O58       1.0  0.33540  0.71240  0.23440  1.0000 -0.697957749
O   O59       1.0  0.33540  0.78760  0.73440  1.0000 -0.697957749
O   O60       1.0  0.66460  0.28760  0.76560  1.0000 -0.697957749
O   O61       1.0  0.43660  0.19310  0.31940  1.0000 -0.5894413216
O   O62       1.0  0.56340  0.69310  0.18060  1.0000 -0.5894413216
O   O63       1.0  0.56340  0.80690  0.68060  1.0000 -0.5894413216
O   O64       1.0  0.43660  0.30690  0.81940  1.0000 -0.5894413216
O   O65       1.0  0.79800  0.34140  0.57990  1.0000 -0.2188758352
O   O66       1.0  0.20200  0.84140  0.92010  1.0000 -0.2188758352
O   O67       1.0  0.20200  0.65860  0.42010  1.0000 -0.2188758352
O   O68       1.0  0.79800  0.15860  0.07990  1.0000 -0.213747978
O   O69       1.0  0.48380  0.20500  0.79250  1.0000 -0.7502755372
O   O70       1.0  0.51620  0.70500  0.70750  1.0000 -0.7502755372
O   O71       1.0  0.51620  0.79500  0.20750  1.0000 -0.7502755372
O   O72       1.0  0.48380  0.29500  0.29250  1.0000 -0.7502755372
F   F1        1.0  0.39500  0.51732  0.89090  1.0000 -0.1904652371
F   F2        1.0  0.60500  0.01732  0.60910  1.0000 -0.1904652371
F   F3        1.0  0.60500  0.48268  0.10910  1.0000 -0.1904652371
F   F4        1.0  0.39500  0.98268  0.39090  1.0000 -0.1904652371
F   F5        1.0  0.65060  0.54957  0.87380  1.0000 -0.1904652371
F   F6        1.0  0.34940  0.04957  0.62620  1.0000 -0.1904652371
F   F7        1.0  0.34940  0.45043  0.12620  1.0000 -0.1904652371
F   F8        1.0  0.65060  0.95043  0.37380  1.0000 -0.1904652371
F   F9        1.0  0.62090  0.47753  0.86060  1.0000 -0.1904652371
F   F10       1.0  0.37910  0.97753  0.63940  1.0000 -0.1904652371
F   F11       1.0  0.37910  0.52247  0.13940  1.0000 -0.1904652371
F   F12       1.0  0.62090  0.02247  0.36060  1.0000 -0.1904652371
F   F13       1.0  0.77820  0.50879  0.76530  1.0000 -0.2002071438
F   F14       1.0  0.22180  0.00879  0.73470  1.0000 -0.2002071438
F   F15       1.0  0.22180  0.49121  0.23470  1.0000 -0.2002071438
F   F16       1.0  0.77820  0.99121  0.26530  1.0000 -0.2002071438
F   F17       1.0  0.59190  0.53427  0.70070  1.0000 -0.2002071438
F   F18       1.0  0.40810  0.03427  0.79930  1.0000 -0.2002071438
F   F19       1.0  0.40810  0.46573  0.29930  1.0000 -0.2002071438
F   F20       1.0  0.59190  0.96573  0.20070  1.0000 -0.2002071438
F   F21       1.0  0.69670  0.57988  0.76580  1.0000 -0.1818514228
F   F22       1.0  0.30330  0.07988  0.73420  1.0000 -0.1818514228
F   F23       1.0  0.30330  0.42012  0.23420  1.0000 -0.1818514228
F   F24       1.0  0.69670  0.92012  0.26580  1.0000 -0.1818514228
F   F25       1.0  0.29240  0.04593  0.48460  1.0000 -0.2002071438
F   F26       1.0  0.70760  0.54593  0.01540  1.0000 -0.1904652371
F   F27       1.0  0.70760  0.95407  0.51540  1.0000 -0.1904652371
F   F28       1.0  0.29240  0.45407  0.98460  1.0000 -0.1904652371
F   F29       1.0  0.30220  0.09270  0.41390  1.0000 -0.1818514228
F   F30       1.0  0.69780  0.59270  0.08610  1.0000 -0.1818514228
F   F31       1.0  0.69780  0.90730  0.58610  1.0000 -0.1818514228
F   F32       1.0  0.30220  0.40730  0.91390  1.0000 -0.1818514228
F   F33       1.0  0.09190  0.04221  0.41730  1.0000 -0.1904652371
F   F34       1.0  0.90810  0.54221  0.08270  1.0000 -0.1904652371
F   F35       1.0  0.90810  0.95779  0.58270  1.0000 -0.1904652371
F   F36       1.0  0.09190  0.45779  0.91730  1.0000 -0.1904652371
F   F37       1.0  0.05210  0.06839  0.57120  1.0000 -0.1818514228
F   F38       1.0  0.94790  0.56839  0.92880  1.0000 -0.1818514228
F   F39       1.0  0.94790  0.93161  0.42880  1.0000 -0.1818514228
F   F40       1.0  0.05210  0.43161  0.07120  1.0000 -0.1818514228
F   F41       1.0  0.88470  0.04002  0.50470  1.0000 -0.1904652371
F   F42       1.0  0.11530  0.54002  0.99530  1.0000 -0.1904652371
F   F43       1.0  0.11530  0.95998  0.49530  1.0000 -0.1904652371
F   F44       1.0  0.88470  0.45998  0.00470  1.0000 -0.1904652371
F   F45       1.0  0.81540  0.10478  0.54220  1.0000 -0.1904652371
F   F46       1.0  0.18460  0.60478  0.95780  1.0000 -0.1904652371
F   F47       1.0  0.18460  0.89522  0.45780  1.0000 -0.1904652371
F   F48       1.0  0.81540  0.39522  0.04220  1.0000 -0.1904652371
