# DDEC6 charges by PACMAN v1.1 (https://github.com/mtap-research/PACMAN-charge/)
data_2013[Ho][dia]3[FSR]1
_chemical_formula_sum              "Ho4 H12 C16 O36"
_cell_length_a       9.6205
_cell_length_b       11.564
_cell_length_c       14.3224
_cell_angle_alpha    90
_cell_angle_beta     122.517
_cell_angle_gamma    90

_symmetry_space_group_name_H-M    "P 1"
_symmetry_Int_Tables_number       1

loop_
  _symmetry_equiv_pos_as_xyz
  'x, y, z'

loop_
  _atom_site_type_symbol
  _atom_site_label
  _atom_site_symmetry_multiplicity
  _atom_site_fract_x
  _atom_site_fract_y
  _atom_site_fract_z
  _atom_site_occupancy
  _atom_site_charge
Ho  Ho1       1.0  0.61783  0.48762  0.83285  1.0000 1.9552088275
Ho  Ho2       1.0  0.38217  0.98762  0.66715  1.0000 1.9552088275
Ho  Ho3       1.0  0.38217  0.51238  0.16715  1.0000 1.9524930015
Ho  Ho4       1.0  0.61783  0.01238  0.33285  1.0000 1.9524930015
H   H1        1.0  0.64750  0.41860  0.65360  1.0000 0.3020675748
H   H2        1.0  0.35250  0.91860  0.84640  1.0000 0.3020675748
H   H3        1.0  0.35250  0.58140  0.34640  1.0000 0.3020675748
H   H4        1.0  0.64750  0.08140  0.15360  1.0000 0.3020675748
H   H5        1.0  0.65450  0.53850  0.65320  1.0000 0.3020675748
H   H6        1.0  0.34550  0.03850  0.84680  1.0000 0.3020675748
H   H7        1.0  0.34550  0.46150  0.34680  1.0000 0.3020675748
H   H8        1.0  0.65450  0.96150  0.15320  1.0000 0.3020675748
H   H9        1.0  0.50310  0.48300  0.60410  1.0000 0.287267436
H   H10       1.0  0.49690  0.98300  0.89590  1.0000 0.287267436
H   H11       1.0  0.49690  0.51700  0.39590  1.0000 0.287267436
H   H12       1.0  0.50310  0.01700  0.10410  1.0000 0.287267436
C   C1        1.0  0.41800  0.25710  0.71700  1.0000 0.5282330557
C   C2        1.0  0.58200  0.75710  0.78300  1.0000 0.5282330557
C   C3        1.0  0.58200  0.74290  0.28300  1.0000 0.5282330557
C   C4        1.0  0.41800  0.24290  0.21700  1.0000 0.5282330557
C   C5        1.0  0.50560  0.56620  0.00140  1.0000 0.5282330557
C   C6        1.0  0.49440  0.06620  0.49860  1.0000 0.5282330557
C   C7        1.0  0.49440  0.43380  0.99860  1.0000 0.5282330557
C   C8        1.0  0.50560  0.93380  0.50140  1.0000 0.5282330557
C   C9        1.0  0.59560  0.21400  0.79230  1.0000 0.5211135491
C   C10       1.0  0.40440  0.71400  0.70770  1.0000 0.5211135491
C   C11       1.0  0.40440  0.78600  0.20770  1.0000 0.5211135491
C   C12       1.0  0.59560  0.28600  0.29230  1.0000 0.5211135491
C   C13       1.0  0.01500  0.50010  0.95230  1.0000 0.5379270955
C   C14       1.0  0.98500  0.00010  0.54770  1.0000 0.5379270955
C   C15       1.0  0.98500  0.49990  0.04770  1.0000 0.5379270955
C   C16       1.0  0.01500  0.99990  0.45230  1.0000 0.5379270955
O   O1        1.0  0.39620  0.36460  0.70750  1.0000 -0.5478325313
O   O2        1.0  0.60380  0.86460  0.79250  1.0000 -0.5478325313
O   O3        1.0  0.60380  0.63540  0.29250  1.0000 -0.5478325313
O   O4        1.0  0.39620  0.13540  0.20750  1.0000 -0.5413172284
O   O5        1.0  0.30630  0.18210  0.67070  1.0000 -0.5659564392
O   O6        1.0  0.69370  0.68210  0.82930  1.0000 -0.5659564392
O   O7        1.0  0.69370  0.81790  0.32930  1.0000 -0.5659564392
O   O8        1.0  0.30630  0.31790  0.17070  1.0000 -0.5659564392
O   O9        1.0  0.54030  0.61220  0.93730  1.0000 -0.5413172284
O   O10       1.0  0.45970  0.11220  0.56270  1.0000 -0.5413172284
O   O11       1.0  0.45970  0.38780  0.06270  1.0000 -0.5413172284
O   O12       1.0  0.54030  0.88780  0.43730  1.0000 -0.5413172284
O   O13       1.0  0.47930  0.61790  0.06710  1.0000 -0.5478325313
O   O14       1.0  0.52070  0.11790  0.43290  1.0000 -0.5478325313
O   O15       1.0  0.52070  0.38210  0.93290  1.0000 -0.5478325313
O   O16       1.0  0.47930  0.88210  0.56710  1.0000 -0.5478325313
O   O17       1.0  0.61680  0.10660  0.79550  1.0000 -0.5478325313
O   O18       1.0  0.38320  0.60660  0.70450  1.0000 -0.5478325313
O   O19       1.0  0.38320  0.89340  0.20450  1.0000 -0.5478325313
O   O20       1.0  0.61680  0.39340  0.29550  1.0000 -0.5478325313
O   O21       1.0  0.70550  0.28920  0.84370  1.0000 -0.5612340302
O   O22       1.0  0.29450  0.78920  0.65630  1.0000 -0.5612340302
O   O23       1.0  0.29450  0.71080  0.15630  1.0000 -0.5612340302
O   O24       1.0  0.70550  0.21080  0.34370  1.0000 -0.5612340302
O   O25       1.0  0.16000  0.51130  0.97790  1.0000 -0.5413172284
O   O26       1.0  0.84000  0.01130  0.52210  1.0000 -0.5413172284
O   O27       1.0  0.84000  0.48870  0.02210  1.0000 -0.5413172284
O   O28       1.0  0.16000  0.98870  0.47790  1.0000 -0.5413172284
O   O29       1.0  0.88910  0.49070  0.85650  1.0000 -0.5478325313
O   O30       1.0  0.11090  0.99070  0.64350  1.0000 -0.5478325313
O   O31       1.0  0.11090  0.50930  0.14350  1.0000 -0.5478325313
O   O32       1.0  0.88910  0.00930  0.35650  1.0000 -0.5478325313
O   O33       1.0  0.60350  0.48070  0.65740  1.0000 -0.5612340302
O   O34       1.0  0.39650  0.98070  0.84260  1.0000 -0.5612340302
O   O35       1.0  0.39650  0.51930  0.34260  1.0000 -0.5612340302
O   O36       1.0  0.60350  0.01930  0.15740  1.0000 -0.5612340302
