# DDEC6 charges by PACMAN v1.1 (https://github.com/mtap-research/PACMAN-charge/)
data_2013[Zn][lon]3[FSR]4
_chemical_formula_sum              "Zn4 H48 C36 N16 O12"
_cell_length_a       10.906
_cell_length_b       8.9687
_cell_length_c       14.585
_cell_angle_alpha    90
_cell_angle_beta     96.567
_cell_angle_gamma    90

_symmetry_space_group_name_H-M    "P 1"
_symmetry_Int_Tables_number       1

loop_
  _symmetry_equiv_pos_as_xyz
  'x, y, z'

loop_
  _atom_site_type_symbol
  _atom_site_label
  _atom_site_symmetry_multiplicity
  _atom_site_fract_x
  _atom_site_fract_y
  _atom_site_fract_z
  _atom_site_occupancy
  _atom_site_charge
Zn  Zn1       1.0  0.06520  0.25328  0.28097  1.0000 0.7180863283
Zn  Zn2       1.0  0.93480  0.75328  0.71903  1.0000 0.7180863283
Zn  Zn3       1.0  0.36913  0.74755  0.18782  1.0000 0.7180863283
Zn  Zn4       1.0  0.63087  0.24755  0.81218  1.0000 0.7180863283
H   H1        1.0  0.42660  0.14350  0.75810  1.0000 0.2969848922
H   H2        1.0  0.57340  0.64350  0.24190  1.0000 0.2969848922
H   H3        1.0  0.49610  0.15600  0.67710  1.0000 0.2812183809
H   H4        1.0  0.50390  0.65600  0.32290  1.0000 0.2812183809
H   H5        1.0  0.20000  0.55040  0.27930  1.0000 0.0992749645
H   H6        1.0  0.80000  0.05040  0.72070  1.0000 0.0992749645
H   H7        1.0  0.18490  0.24820  0.08170  1.0000 0.1231505788
H   H8        1.0  0.81510  0.74820  0.91830  1.0000 0.1231505788
H   H9        1.0  0.51470  0.56160  0.06370  1.0000 0.0992749645
H   H10       1.0  0.48530  0.06160  0.93630  1.0000 0.0992749645
H   H11       1.0  0.33280  0.36360  0.97400  1.0000 0.1231505788
H   H12       1.0  0.66720  0.86360  0.02600  1.0000 0.1231505788
H   H13       1.0  0.32520  0.54150  0.97640  1.0000 0.1231505788
H   H14       1.0  0.67480  0.04150  0.02360  1.0000 0.1231505788
H   H15       1.0  0.60300  0.25740  0.28800  1.0000 0.1460063494
H   H16       1.0  0.39700  0.75740  0.71200  1.0000 0.1460063494
H   H17       1.0  0.64970  0.15610  0.20870  1.0000 0.1402568953
H   H18       1.0  0.35030  0.65610  0.79130  1.0000 0.1402568953
H   H19       1.0  0.87830  0.12340  0.21060  1.0000 0.2915063835
H   H20       1.0  0.12170  0.62340  0.78940  1.0000 0.2915063835
H   H21       1.0  0.87470  0.27720  0.17320  1.0000 0.2915063835
H   H22       1.0  0.12530  0.77720  0.82680  1.0000 0.2915063835
H   H23       1.0  0.79930  0.19640  0.34180  1.0000 0.0992749645
H   H24       1.0  0.20070  0.69640  0.65820  1.0000 0.0930541715
H   H25       1.0  0.80660  0.36630  0.31000  1.0000 0.0992749645
H   H26       1.0  0.19340  0.86630  0.69000  1.0000 0.0992749645
H   H27       1.0  0.73280  0.25850  0.61410  1.0000 0.128313925
H   H28       1.0  0.26720  0.75850  0.38590  1.0000 0.128313925
H   H29       1.0  0.50460  0.25870  0.10220  1.0000 0.2812183809
H   H30       1.0  0.49540  0.75870  0.89780  1.0000 0.2812183809
H   H31       1.0  0.02980  0.60640  0.54410  1.0000 0.0930541715
H   H32       1.0  0.97020  0.10640  0.45590  1.0000 0.0930541715
H   H33       1.0  0.04980  0.32870  0.61460  1.0000 0.2812183809
H   H34       1.0  0.95020  0.82870  0.38540  1.0000 0.2812183809
H   H35       1.0  0.36300  0.38710  0.74460  1.0000 0.0992749645
H   H36       1.0  0.63700  0.88710  0.25540  1.0000 0.0992749645
H   H37       1.0  0.44280  0.40640  0.65980  1.0000 0.0992749645
H   H38       1.0  0.55720  0.90640  0.34020  1.0000 0.0992749645
H   H39       1.0  0.77710  0.55010  0.81830  1.0000 0.0992749645
H   H40       1.0  0.22290  0.05010  0.18170  1.0000 0.0992749645
H   H41       1.0  0.23170  0.21680  0.65960  1.0000 0.1460063494
H   H42       1.0  0.76830  0.71680  0.34040  1.0000 0.1460063494
H   H43       1.0  0.31490  0.22280  0.57620  1.0000 0.1402568953
H   H44       1.0  0.68510  0.72280  0.42380  1.0000 0.1402568953
H   H45       1.0  0.84720  0.38190  0.49500  1.0000 0.1231505788
H   H46       1.0  0.15280  0.88190  0.50500  1.0000 0.1231505788
H   H47       1.0  0.82380  0.55690  0.49840  1.0000 0.1231505788
H   H48       1.0  0.17620  0.05690  0.50160  1.0000 0.1231505788
C   C1        1.0  0.21320  0.50000  0.22400  1.0000 0.155674409
C   C2        1.0  0.78680  0.00000  0.77600  1.0000 0.155674409
C   C3        1.0  0.20510  0.33550  0.11710  1.0000 -0.1393513382
C   C4        1.0  0.79490  0.83550  0.88290  1.0000 -0.1393513382
C   C5        1.0  0.28330  0.44410  0.09440  1.0000 0.1762450001
C   C6        1.0  0.71670  0.94410  0.90560  1.0000 0.1762450001
C   C7        1.0  0.55210  0.43910  0.94760  1.0000 0.5683985463
C   C8        1.0  0.44790  0.93910  0.05240  1.0000 0.5683985463
C   C9        1.0  0.49250  0.46050  0.03800  1.0000 0.0031471914
C   C10       1.0  0.50750  0.96050  0.96200  1.0000 -0.0004065594
C   C11       1.0  0.35270  0.45240  0.01310  1.0000 -0.2973140666
C   C12       1.0  0.64730  0.95240  0.98690  1.0000 -0.2973140666
C   C13       1.0  0.66100  0.25330  0.24060  1.0000 -0.3702885845
C   C14       1.0  0.33900  0.75330  0.75940  1.0000 -0.3702885845
C   C15       1.0  0.79120  0.26320  0.28740  1.0000 -0.0088614762
C   C16       1.0  0.20880  0.76320  0.71260  1.0000 -0.0088614762
C   C17       1.0  0.82840  0.45760  0.62280  1.0000 0.1859361864
C   C18       1.0  0.17160  0.95760  0.37720  1.0000 0.1859361864
C   C19       1.0  0.75840  0.34380  0.65000  1.0000 -0.1393513382
C   C20       1.0  0.24160  0.84380  0.35000  1.0000 -0.1393513382
C   C21       1.0  0.02650  0.48140  0.42290  1.0000 0.5683985463
C   C22       1.0  0.97350  0.98140  0.57710  1.0000 0.5683985463
C   C23       1.0  0.00790  0.50210  0.52430  1.0000 0.0031471914
C   C24       1.0  0.99210  0.00210  0.47570  1.0000 0.0031471914
C   C25       1.0  0.63000  0.37540  0.17220  1.0000 0.5150556675
C   C26       1.0  0.37000  0.87540  0.82780  1.0000 0.5141946188
C   C27       1.0  0.39350  0.33470  0.69190  1.0000 0.0031471914
C   C28       1.0  0.60650  0.83470  0.30810  1.0000 0.0031471914
C   C29       1.0  0.78190  0.50290  0.76050  1.0000 0.1402568953
C   C30       1.0  0.21810  0.00290  0.23950  1.0000 0.1402568953
C   C31       1.0  0.28400  0.28260  0.62580  1.0000 -0.3782015108
C   C32       1.0  0.71600  0.78260  0.37420  1.0000 -0.3782015108
C   C33       1.0  0.87070  0.47380  0.53030  1.0000 -0.2973140666
C   C34       1.0  0.12930  0.97380  0.46970  1.0000 -0.2973140666
C   C35       1.0  0.20730  0.40610  0.58340  1.0000 0.5282872132
C   C36       1.0  0.79270  0.90610  0.41660  1.0000 0.5282872132
N   N1        1.0  0.47420  0.20700  0.72750  1.0000 -0.5304507353
N   N2        1.0  0.52580  0.70700  0.27250  1.0000 -0.5304507353
N   N3        1.0  0.73060  0.37300  0.73820  1.0000 -0.2973140666
N   N4        1.0  0.26940  0.87300  0.26180  1.0000 -0.2973140666
N   N5        1.0  0.15920  0.36990  0.19900  1.0000 -0.3143175432
N   N6        1.0  0.84080  0.86990  0.80100  1.0000 -0.3143175432
N   N7        1.0  0.28770  0.55360  0.16420  1.0000 -0.3782015108
N   N8        1.0  0.71230  0.05360  0.83580  1.0000 -0.3782015108
N   N9        1.0  0.88830  0.22230  0.22660  1.0000 -0.5144048819
N   N10       1.0  0.11170  0.72230  0.77340  1.0000 -0.5150304326
N   N11       1.0  0.84280  0.56330  0.69250  1.0000 -0.3875905612
N   N12       1.0  0.15720  0.06330  0.30750  1.0000 -0.3875905612
N   N13       1.0  0.53850  0.34790  0.10560  1.0000 -0.3702885845
N   N14       1.0  0.46150  0.84790  0.89440  1.0000 -0.3702885845
N   N15       1.0  0.08360  0.39650  0.58190  1.0000 -0.3702885845
N   N16       1.0  0.91640  0.89650  0.41810  1.0000 -0.3702885845
O   O1        1.0  0.60280  0.31230  0.93500  1.0000 -0.5439861157
O   O2        1.0  0.39720  0.81230  0.06500  1.0000 -0.5439861157
O   O3        1.0  0.54420  0.54310  0.89020  1.0000 -0.5735907443
O   O4        1.0  0.45580  0.04310  0.10980  1.0000 -0.5735907443
O   O5        1.0  0.06090  0.35150  0.40000  1.0000 -0.5473178514
O   O6        1.0  0.93910  0.85150  0.60000  1.0000 -0.5473178514
O   O7        1.0  0.68080  0.50010  0.18040  1.0000 -0.5304507353
O   O8        1.0  0.31920  0.00010  0.81960  1.0000 -0.5304507353
O   O9        1.0  0.00020  0.58920  0.36940  1.0000 -0.5735907443
O   O10       1.0  0.99980  0.08920  0.63060  1.0000 -0.5735907443
O   O11       1.0  0.25510  0.51530  0.54730  1.0000 -0.5439861157
O   O12       1.0  0.74490  0.01530  0.45270  1.0000 -0.5439861157
