# DDEC6 charges by PACMAN v1.1 (https://github.com/mtap-research/PACMAN-charge/)
data_2013[Cd][rtl]3[FSR]1
_chemical_formula_sum              "Cd4 H32 C48 N8 O16"
_cell_length_a       9.8383
_cell_length_b       13.1984
_cell_length_c       11.3829
_cell_angle_alpha    90
_cell_angle_beta     101.437
_cell_angle_gamma    90

_symmetry_space_group_name_H-M    "P 1"
_symmetry_Int_Tables_number       1

loop_
  _symmetry_equiv_pos_as_xyz
  'x, y, z'

loop_
  _atom_site_type_symbol
  _atom_site_label
  _atom_site_symmetry_multiplicity
  _atom_site_fract_x
  _atom_site_fract_y
  _atom_site_fract_z
  _atom_site_occupancy
  _atom_site_charge
Cd  Cd1       1.0  0.74191  0.00497  0.50687  1.0000 0.9403255251
Cd  Cd2       1.0  0.25809  0.50497  0.99313  1.0000 0.9403255251
Cd  Cd3       1.0  0.25809  0.99503  0.49313  1.0000 0.9403255251
Cd  Cd4       1.0  0.74191  0.49503  0.00687  1.0000 0.9403255251
H   H1        1.0  0.48750  0.31310  0.39010  1.0000 0.1403172654
H   H2        1.0  0.51250  0.81310  0.10990  1.0000 0.1403172654
H   H3        1.0  0.51250  0.68690  0.60990  1.0000 0.1403172654
H   H4        1.0  0.48750  0.18690  0.89010  1.0000 0.1403172654
H   H5        1.0  0.33333  0.12210  0.11730  1.0000 0.1403172654
H   H6        1.0  0.66667  0.62210  0.38270  1.0000 0.1403172654
H   H7        1.0  0.66667  0.87790  0.88270  1.0000 0.1403172654
H   H8        1.0  0.33333  0.37790  0.61730  1.0000 0.1403172654
H   H9        1.0  0.41250  0.44800  0.26220  1.0000 0.1068290365
H   H10       1.0  0.58750  0.94800  0.23780  1.0000 0.1068290365
H   H11       1.0  0.58750  0.55200  0.73780  1.0000 0.1068290365
H   H12       1.0  0.41250  0.05200  0.76220  1.0000 0.1068290365
H   H13       1.0  0.26980  0.26200  0.99620  1.0000 0.1024970951
H   H14       1.0  0.73020  0.76200  0.50380  1.0000 0.1024970951
H   H15       1.0  0.73020  0.73800  0.00380  1.0000 0.1024970951
H   H16       1.0  0.26980  0.23800  0.49620  1.0000 0.1024970951
H   H17       1.0  0.89210  0.76110  0.76240  1.0000 0.1226078463
H   H18       1.0  0.10790  0.26110  0.73760  1.0000 0.1226078463
H   H19       1.0  0.10790  0.23890  0.23760  1.0000 0.1226078463
H   H20       1.0  0.89210  0.73890  0.26240  1.0000 0.1226078463
H   H21       1.0  0.28760  0.82630  0.73680  1.0000 0.1226078463
H   H22       1.0  0.71240  0.32630  0.76320  1.0000 0.1226078463
H   H23       1.0  0.71240  0.17370  0.26320  1.0000 0.1226078463
H   H24       1.0  0.28760  0.67370  0.23680  1.0000 0.1226078463
H   H25       1.0  0.97640  0.62700  0.88770  1.0000 0.1024970951
H   H26       1.0  0.02360  0.12700  0.61230  1.0000 0.1024970951
H   H27       1.0  0.02360  0.37300  0.11230  1.0000 0.1024970951
H   H28       1.0  0.97640  0.87300  0.38770  1.0000 0.1024970951
H   H29       1.0  0.35950  0.68780  0.85800  1.0000 0.1024970951
H   H30       1.0  0.64050  0.18780  0.64200  1.0000 0.1024970951
H   H31       1.0  0.64050  0.31220  0.14200  1.0000 0.1024970951
H   H32       1.0  0.35950  0.81220  0.35800  1.0000 0.1024970951
C   C1        1.0  0.46300  0.11240  0.35040  1.0000 0.5515697864
C   C2        1.0  0.53700  0.61240  0.14960  1.0000 0.5515697864
C   C3        1.0  0.53700  0.88760  0.64960  1.0000 0.5515697864
C   C4        1.0  0.46300  0.38760  0.85040  1.0000 0.5515697864
C   C5        1.0  0.41790  0.20230  0.26840  1.0000 0.0288675879
C   C6        1.0  0.58210  0.70230  0.23160  1.0000 0.0288675879
C   C7        1.0  0.58210  0.79770  0.73160  1.0000 0.0288675879
C   C8        1.0  0.41790  0.29770  0.76840  1.0000 0.0288675879
C   C9        1.0  0.44160  0.30060  0.30980  1.0000 -0.1790053281
C   C10       1.0  0.55840  0.80060  0.19020  1.0000 -0.1790053281
C   C11       1.0  0.55840  0.69940  0.69020  1.0000 -0.1790053281
C   C12       1.0  0.44160  0.19940  0.80980  1.0000 -0.1790053281
C   C13       1.0  0.35160  0.18840  0.14890  1.0000 -0.1790053281
C   C14       1.0  0.64840  0.68840  0.35110  1.0000 -0.1790053281
C   C15       1.0  0.64840  0.81160  0.85110  1.0000 -0.1790053281
C   C16       1.0  0.35160  0.31160  0.64890  1.0000 -0.1790053281
C   C17       1.0  0.39730  0.38080  0.23260  1.0000 0.0917666206
C   C18       1.0  0.60270  0.88080  0.26740  1.0000 0.0917666206
C   C19       1.0  0.60270  0.61920  0.76740  1.0000 0.0917666206
C   C20       1.0  0.39730  0.11920  0.73260  1.0000 0.0917666206
C   C21       1.0  0.31310  0.27220  0.07760  1.0000 0.0679865447
C   C22       1.0  0.68690  0.77220  0.42240  1.0000 0.0679865447
C   C23       1.0  0.68690  0.72780  0.92240  1.0000 0.0679865447
C   C24       1.0  0.31310  0.22780  0.57760  1.0000 0.0679865447
C   C25       1.0  0.02940  0.89480  0.65030  1.0000 0.5790483621
C   C26       1.0  0.97060  0.39480  0.84970  1.0000 0.5790483621
C   C27       1.0  0.97060  0.10520  0.34970  1.0000 0.5790483621
C   C28       1.0  0.02940  0.60520  0.15030  1.0000 0.5790483621
C   C29       1.0  0.08120  0.80800  0.73430  1.0000 0.0288675879
C   C30       1.0  0.91880  0.30800  0.76570  1.0000 0.0288675879
C   C31       1.0  0.91880  0.19200  0.26570  1.0000 0.0288675879
C   C32       1.0  0.08120  0.69200  0.23430  1.0000 0.0288675879
C   C33       1.0  0.98880  0.74750  0.78100  1.0000 -0.1544783297
C   C34       1.0  0.01120  0.24750  0.71900  1.0000 -0.1544783297
C   C35       1.0  0.01120  0.25250  0.21900  1.0000 -0.1544783297
C   C36       1.0  0.98880  0.75250  0.28100  1.0000 -0.1544783297
C   C37       1.0  0.22140  0.78560  0.76530  1.0000 -0.1578139397
C   C38       1.0  0.77860  0.28560  0.73470  1.0000 -0.1578139397
C   C39       1.0  0.77860  0.21440  0.23470  1.0000 -0.1578139397
C   C40       1.0  0.22140  0.71440  0.26530  1.0000 -0.1578139397
C   C41       1.0  0.03970  0.66730  0.85480  1.0000 0.0816380088
C   C42       1.0  0.96030  0.16730  0.64520  1.0000 0.0816380088
C   C43       1.0  0.96030  0.33270  0.14520  1.0000 0.0816380088
C   C44       1.0  0.03970  0.83270  0.35480  1.0000 0.0816380088
C   C45       1.0  0.26340  0.70330  0.83810  1.0000 0.0816380088
C   C46       1.0  0.73660  0.20330  0.66190  1.0000 0.0816380088
C   C47       1.0  0.73660  0.29670  0.16190  1.0000 0.0816380088
C   C48       1.0  0.26340  0.79670  0.33810  1.0000 0.0816380088
N   N1        1.0  0.33420  0.36760  0.11840  1.0000 -0.2376715722
N   N2        1.0  0.66580  0.86760  0.38160  1.0000 -0.2376715722
N   N3        1.0  0.66580  0.63240  0.88160  1.0000 -0.2376715722
N   N4        1.0  0.33420  0.13240  0.61840  1.0000 -0.2376715722
N   N5        1.0  0.17520  0.64440  0.88190  1.0000 -0.2233610931
N   N6        1.0  0.82480  0.14440  0.61810  1.0000 -0.2233610931
N   N7        1.0  0.82480  0.35560  0.11810  1.0000 -0.2233610931
N   N8        1.0  0.17520  0.85560  0.38190  1.0000 -0.2233610931
O   O1        1.0  0.58180  0.11900  0.41390  1.0000 -0.5602219361
O   O2        1.0  0.41820  0.61900  0.08610  1.0000 -0.5602219361
O   O3        1.0  0.41820  0.88100  0.58610  1.0000 -0.5602219361
O   O4        1.0  0.58180  0.38100  0.91390  1.0000 -0.5602219361
O   O5        1.0  0.37970  0.04010  0.34510  1.0000 -0.5602219361
O   O6        1.0  0.62030  0.54010  0.15490  1.0000 -0.5602219361
O   O7        1.0  0.62030  0.95990  0.65490  1.0000 -0.5602219361
O   O8        1.0  0.37970  0.45990  0.84510  1.0000 -0.5602219361
O   O9        1.0  0.90110  0.89670  0.61050  1.0000 -0.5650949809
O   O10       1.0  0.09890  0.39670  0.88950  1.0000 -0.5650949809
O   O11       1.0  0.09890  0.10330  0.38950  1.0000 -0.5650949809
O   O12       1.0  0.90110  0.60330  0.11050  1.0000 -0.5650949809
O   O13       1.0  0.11810  0.95710  0.62940  1.0000 -0.5750041338
O   O14       1.0  0.88190  0.45710  0.87060  1.0000 -0.5750041338
O   O15       1.0  0.88190  0.04290  0.37060  1.0000 -0.5750041338
O   O16       1.0  0.11810  0.54290  0.12940  1.0000 -0.5750041338
