# DDEC6 charges by PACMAN v1.1 (https://github.com/mtap-research/PACMAN-charge/)
data_2013[Co][nan]3[FSR]1
_chemical_formula_sum              "Co3 H36 C52 N10 O20"
_cell_length_a       10.0406
_cell_length_b       11.2142
_cell_length_c       14.31
_cell_angle_alpha    87.454
_cell_angle_beta     84.296
_cell_angle_gamma    68.867

_symmetry_space_group_name_H-M    "P 1"
_symmetry_Int_Tables_number       1

loop_
  _symmetry_equiv_pos_as_xyz
  'x, y, z'

loop_
  _atom_site_type_symbol
  _atom_site_label
  _atom_site_symmetry_multiplicity
  _atom_site_fract_x
  _atom_site_fract_y
  _atom_site_fract_z
  _atom_site_occupancy
  _atom_site_charge
Co  Co1       1.0  0.17127  0.93609  0.57983  1.0000 0.8777481216
Co  Co2       1.0  0.82873  0.06391  0.42017  1.0000 0.8777481216
Co  Co3       1.0  0.00000  0.50000  0.00000  1.0000 0.8621736365
H   H1        1.0  0.37870  0.04700  0.41050  1.0000 0.129493476
H   H2        1.0  0.62130  0.95300  0.58950  1.0000 0.129493476
H   H3        1.0  0.47280  0.26940  0.20750  1.0000 0.129493476
H   H4        1.0  0.52720  0.73060  0.79250  1.0000 0.129493476
H   H5        1.0  0.08200  0.24190  0.23610  1.0000 0.129493476
H   H6        1.0  0.91800  0.75810  0.76390  1.0000 0.129493476
H   H7        1.0  0.90450  0.78710  0.02210  1.0000 0.1021603989
H   H8        1.0  0.09550  0.21290  0.97790  1.0000 0.1021603989
H   H9        1.0  0.74110  0.95870  0.10370  1.0000 0.1395218196
H   H10       1.0  0.25890  0.04130  0.89630  1.0000 0.1395218196
H   H11       1.0  0.56790  0.92560  0.21110  1.0000 0.1395218196
H   H12       1.0  0.43210  0.07440  0.78890  1.0000 0.1395218196
H   H13       1.0  0.75660  0.55120  0.16290  1.0000 0.129493476
H   H14       1.0  0.24340  0.44880  0.83710  1.0000 0.129493476
H   H15       1.0  0.38570  0.80530  0.41860  1.0000 0.1105788161
H   H16       1.0  0.61430  0.19470  0.58140  1.0000 0.1105788161
H   H17       1.0  0.14660  0.66240  0.58380  1.0000 0.1105788161
H   H18       1.0  0.85340  0.33760  0.41620  1.0000 0.1105788161
H   H19       1.0  0.40820  0.45090  0.37430  1.0000 0.1395218196
H   H20       1.0  0.59180  0.54910  0.62570  1.0000 0.1395218196
H   H21       1.0  0.95140  0.45630  0.72470  1.0000 0.1395218196
H   H22       1.0  0.04860  0.54370  0.27530  1.0000 0.1395218196
H   H23       1.0  0.86200  0.30600  0.79180  1.0000 0.129493476
H   H24       1.0  0.13800  0.69400  0.20820  1.0000 0.129493476
H   H25       1.0  0.94790  0.10160  0.73490  1.0000 0.1105788161
H   H26       1.0  0.05210  0.89840  0.26510  1.0000 0.1105788161
H   H27       1.0  0.21030  0.18960  0.54880  1.0000 0.129493476
H   H28       1.0  0.78970  0.81040  0.45120  1.0000 0.129493476
H   H29       1.0  0.47150  0.78490  0.28410  1.0000 0.2855086225
H   H30       1.0  0.52850  0.21510  0.71590  1.0000 0.2855086225
H   H31       1.0  0.12900  0.49470  0.62220  1.0000 0.2826741236
H   H32       1.0  0.87100  0.50530  0.37780  1.0000 0.2826741236
H   H33       1.0  0.22570  0.55110  0.00320  1.0000 0.3650572496
H   H34       1.0  0.77430  0.44890  0.99680  1.0000 0.3647554713
H   H35       1.0  0.11280  0.66440  0.02600  1.0000 0.3320644545
H   H36       1.0  0.88720  0.33560  0.97400  1.0000 0.3320644545
C   C1        1.0  0.10930  0.08320  0.38140  1.0000 0.5723978477
C   C2        1.0  0.89070  0.91680  0.61860  1.0000 0.5723978477
C   C3        1.0  0.21350  0.13490  0.33100  1.0000 -0.0381977343
C   C4        1.0  0.78650  0.86510  0.66900  1.0000 -0.0381977343
C   C5        1.0  0.35150  0.10270  0.35990  1.0000 -0.1089041707
C   C6        1.0  0.64850  0.89730  0.64010  1.0000 -0.1089041707
C   C7        1.0  0.44770  0.15270  0.31420  1.0000 -0.0104027811
C   C8        1.0  0.55230  0.84730  0.68580  1.0000 -0.0104027811
C   C9        1.0  0.59350  0.11930  0.34890  1.0000 0.5325433212
C   C10       1.0  0.40650  0.88070  0.65110  1.0000 0.5325433212
C   C11       1.0  0.40740  0.23680  0.23880  1.0000 -0.1200854023
C   C12       1.0  0.59260  0.76320  0.76120  1.0000 -0.1200854023
C   C13       1.0  0.27070  0.27240  0.21020  1.0000 -0.0104027811
C   C14       1.0  0.72930  0.72760  0.78980  1.0000 -0.0104027811
C   C15       1.0  0.22300  0.36700  0.13090  1.0000 0.5518145757
C   C16       1.0  0.77700  0.63300  0.86910  1.0000 0.5518145757
C   C17       1.0  0.17330  0.21980  0.25600  1.0000 -0.1089041707
C   C18       1.0  0.82670  0.78020  0.74400  1.0000 -0.1089041707
C   C19       1.0  0.83920  0.77290  0.06790  1.0000 0.0505006472
C   C20       1.0  0.16080  0.22710  0.93210  1.0000 0.0505006472
C   C21       1.0  0.73980  0.87690  0.11540  1.0000 -0.0971337286
C   C22       1.0  0.26020  0.12310  0.88460  1.0000 -0.0971337286
C   C23       1.0  0.63890  0.85710  0.18040  1.0000 -0.1303553086
C   C24       1.0  0.36110  0.14290  0.81960  1.0000 -0.1303553086
C   C25       1.0  0.64540  0.73410  0.19880  1.0000 0.1841715621
C   C26       1.0  0.35460  0.26590  0.80120  1.0000 0.1841715621
C   C27       1.0  0.75150  0.63460  0.14960  1.0000 0.0180753628
C   C28       1.0  0.24850  0.36540  0.85040  1.0000 0.0180753628
C   C29       1.0  0.53120  0.61250  0.30620  1.0000 0.4631034928
C   C30       1.0  0.46880  0.38750  0.69380  1.0000 0.4631034928
C   C31       1.0  0.41400  0.62700  0.38380  1.0000 -0.0640502264
C   C32       1.0  0.58600  0.37300  0.61620  1.0000 -0.0640502264
C   C33       1.0  0.35570  0.73730  0.43570  1.0000 0.0505006472
C   C34       1.0  0.64430  0.26270  0.56430  1.0000 0.0505006472
C   C35       1.0  0.21490  0.65350  0.53310  1.0000 0.0679847627
C   C36       1.0  0.78510  0.34650  0.46690  1.0000 0.0679847627
C   C37       1.0  0.26800  0.53820  0.48500  1.0000 -0.0662960065
C   C38       1.0  0.73200  0.46180  0.51500  1.0000 -0.0662960065
C   C39       1.0  0.37040  0.52640  0.40830  1.0000 -0.0540665098
C   C40       1.0  0.62960  0.47360  0.59170  1.0000 -0.0540665098
C   C41       1.0  0.21710  0.43100  0.51130  1.0000 0.4673255878
C   C42       1.0  0.78290  0.56900  0.48870  1.0000 0.4673255878
C   C43       1.0  0.09100  0.33760  0.62830  1.0000 0.1717648702
C   C44       1.0  0.90900  0.66240  0.37170  1.0000 0.1717648702
C   C45       1.0  0.98580  0.37310  0.70210  1.0000 -0.1303553086
C   C46       1.0  0.01420  0.62690  0.29790  1.0000 -0.1303553086
C   C47       1.0  0.93280  0.28390  0.74190  1.0000 -0.1200854023
C   C48       1.0  0.06720  0.71610  0.25810  1.0000 -0.1200854023
C   C49       1.0  0.98470  0.16140  0.70750  1.0000 0.0679847627
C   C50       1.0  0.01530  0.83860  0.29250  1.0000 0.0679847627
C   C51       1.0  0.13840  0.21410  0.59800  1.0000 0.0011042308
C   C52       1.0  0.86160  0.78590  0.40200  1.0000 0.0011042308
N   N1        1.0  0.84550  0.65390  0.08460  1.0000 -0.2281445292
N   N2        1.0  0.15450  0.34610  0.91540  1.0000 -0.2281445292
N   N3        1.0  0.54050  0.71570  0.26650  1.0000 -0.3303245259
N   N4        1.0  0.45950  0.28430  0.73350  1.0000 -0.3303245259
N   N5        1.0  0.25710  0.75220  0.51020  1.0000 -0.209411065
N   N6        1.0  0.74290  0.24780  0.48980  1.0000 -0.209411065
N   N7        1.0  0.14670  0.42880  0.58790  1.0000 -0.2847536606
N   N8        1.0  0.85330  0.57120  0.41210  1.0000 -0.2847536606
N   N9        1.0  0.08570  0.12580  0.63630  1.0000 -0.2281445292
N   N10       1.0  0.91430  0.87420  0.36370  1.0000 -0.2281445292
O   O1        1.0  0.14730  0.00720  0.44810  1.0000 -0.5604421449
O   O2        1.0  0.85270  0.99280  0.55190  1.0000 -0.5604421449
O   O3        1.0  0.14380  0.60120  0.98870  1.0000 -0.6532611651
O   O4        1.0  0.85620  0.39880  0.01130  1.0000 -0.6532611651
O   O5        1.0  0.98550  0.11830  0.35290  1.0000 -0.5343829197
O   O6        1.0  0.01450  0.88170  0.64710  1.0000 -0.5343829197
O   O7        1.0  0.09290  0.40430  0.11700  1.0000 -0.5694628758
O   O8        1.0  0.90710  0.59570  0.88300  1.0000 -0.5694628758
O   O9        1.0  0.31550  0.40060  0.08350  1.0000 -0.5604421449
O   O10       1.0  0.68450  0.59940  0.91650  1.0000 -0.5604421449
O   O11       1.0  0.61890  0.05990  0.42540  1.0000 -0.5052281422
O   O12       1.0  0.38110  0.94010  0.57460  1.0000 -0.5052281422
O   O13       1.0  0.69000  0.15040  0.30230  1.0000 -0.5227104229
O   O14       1.0  0.31000  0.84960  0.69770  1.0000 -0.5227104229
O   O15       1.0  0.34340  0.30970  0.50740  1.0000 -0.4342944426
O   O16       1.0  0.65660  0.69030  0.49260  1.0000 -0.4342944426
O   O17       1.0  0.63460  0.50780  0.29550  1.0000 -0.4639064324
O   O18       1.0  0.36540  0.49220  0.70450  1.0000 -0.4639064324
O   O19       1.0  0.16970  0.38280  0.44110  1.0000 -0.3980566216
O   O20       1.0  0.83030  0.61720  0.55890  1.0000 -0.3980566216
