# DDEC6 charges by PACMAN v1.1 (https://github.com/mtap-research/PACMAN-charge/)
data_2013[Co][nan]3[FSR]3
_chemical_formula_sum              "Co12 H126 C150 N18 O54"
_cell_length_a       15.9288
_cell_length_b       15.9288
_cell_length_c       21.3663
_cell_angle_alpha    90
_cell_angle_beta     90
_cell_angle_gamma    120

_symmetry_space_group_name_H-M    "P 1"
_symmetry_Int_Tables_number       1

loop_
  _symmetry_equiv_pos_as_xyz
  'x, y, z'

loop_
  _atom_site_type_symbol
  _atom_site_label
  _atom_site_symmetry_multiplicity
  _atom_site_fract_x
  _atom_site_fract_y
  _atom_site_fract_z
  _atom_site_occupancy
  _atom_site_charge
Co  Co1       1.0  0.84656  0.55341  0.00816  1.0000 0.9886476243
Co  Co2       1.0  0.29315  0.84656  0.17483  1.0000 0.9886476243
Co  Co3       1.0  0.44659  0.29315  0.34149  1.0000 0.9886476243
Co  Co4       1.0  0.15344  0.44659  0.50816  1.0000 0.9886476243
Co  Co5       1.0  0.70685  0.15344  0.67483  1.0000 0.9886476243
Co  Co6       1.0  0.55341  0.70685  0.84149  1.0000 0.9886476243
Co  Co7       1.0  0.96929  0.48305  0.11412  1.0000 0.8439816281
Co  Co8       1.0  0.48624  0.96929  0.28079  1.0000 0.8439816281
Co  Co9       1.0  0.51695  0.48624  0.44745  1.0000 0.8439816281
Co  Co10      1.0  0.03071  0.51695  0.61412  1.0000 0.8439816281
Co  Co11      1.0  0.51376  0.03071  0.78079  1.0000 0.8439816281
Co  Co12      1.0  0.48305  0.51376  0.94745  1.0000 0.8439816281
H   H1        1.0  0.80520  0.47040  0.47530  1.0000 0.1289427573
H   H2        1.0  0.33480  0.80520  0.64197  1.0000 0.1289427573
H   H3        1.0  0.52960  0.33480  0.80863  1.0000 0.1289427573
H   H4        1.0  0.19480  0.52960  0.97530  1.0000 0.1289427573
H   H5        1.0  0.66520  0.19480  0.14197  1.0000 0.1289427573
H   H6        1.0  0.47040  0.66520  0.30863  1.0000 0.1289427573
H   H7        1.0  0.98680  0.44630  0.35610  1.0000 0.1207455872
H   H8        1.0  0.54050  0.98680  0.52277  1.0000 0.1207455872
H   H9        1.0  0.55370  0.54050  0.68943  1.0000 0.1207455872
H   H10       1.0  0.01320  0.55370  0.85610  1.0000 0.1207455872
H   H11       1.0  0.45950  0.01320  0.02277  1.0000 0.1207455872
H   H12       1.0  0.44630  0.45950  0.18943  1.0000 0.1207455872
H   H13       1.0  0.73110  0.39880  0.29550  1.0000 0.1289427573
H   H14       1.0  0.33230  0.73110  0.46217  1.0000 0.1289427573
H   H15       1.0  0.60120  0.33230  0.62883  1.0000 0.1289427573
H   H16       1.0  0.26890  0.60120  0.79550  1.0000 0.1289427573
H   H17       1.0  0.66770  0.26890  0.96217  1.0000 0.1289427573
H   H18       1.0  0.39880  0.66770  0.12883  1.0000 0.1289427573
H   H19       1.0  0.93210  0.38470  0.24940  1.0000 0.1103457847
H   H20       1.0  0.54740  0.93210  0.41607  1.0000 0.1103457847
H   H21       1.0  0.61530  0.54740  0.58273  1.0000 0.1103457847
H   H22       1.0  0.06790  0.61530  0.74940  1.0000 0.1103457847
H   H23       1.0  0.45260  0.06790  0.91607  1.0000 0.1103457847
H   H24       1.0  0.38470  0.45260  0.08273  1.0000 0.1103457847
H   H25       1.0  0.83190  0.36900  0.22650  1.0000 0.1207455872
H   H26       1.0  0.46290  0.83190  0.39317  1.0000 0.1207455872
H   H27       1.0  0.63100  0.46290  0.55983  1.0000 0.1207455872
H   H28       1.0  0.16810  0.63100  0.72650  1.0000 0.1207455872
H   H29       1.0  0.53710  0.16810  0.89317  1.0000 0.1207455872
H   H30       1.0  0.36900  0.53710  0.05983  1.0000 0.1207455872
H   H31       1.0  0.89620  0.59490  0.24300  1.0000 0.1395135591
H   H32       1.0  0.30130  0.89620  0.40967  1.0000 0.1395135591
H   H33       1.0  0.40510  0.30130  0.57633  1.0000 0.1395135591
H   H34       1.0  0.10380  0.40510  0.74300  1.0000 0.1395135591
H   H35       1.0  0.69870  0.10380  0.90967  1.0000 0.1395135591
H   H36       1.0  0.59490  0.69870  0.07633  1.0000 0.1395135591
H   H37       1.0  0.81460  0.50300  0.20920  1.0000 0.1395135591
H   H38       1.0  0.31160  0.81460  0.37587  1.0000 0.1395135591
H   H39       1.0  0.49700  0.31160  0.54253  1.0000 0.1395135591
H   H40       1.0  0.18540  0.49700  0.70920  1.0000 0.1395135591
H   H41       1.0  0.68840  0.18540  0.87587  1.0000 0.1395135591
H   H42       1.0  0.50300  0.68840  0.04253  1.0000 0.1395135591
H   H43       1.0  0.06440  0.53570  0.25770  1.0000 0.1289427573
H   H44       1.0  0.52870  0.06440  0.42437  1.0000 0.1289427573
H   H45       1.0  0.46430  0.52870  0.59103  1.0000 0.1289427573
H   H46       1.0  0.93560  0.46430  0.75770  1.0000 0.1289427573
H   H47       1.0  0.47130  0.93560  0.92437  1.0000 0.1289427573
H   H48       1.0  0.53570  0.47130  0.09103  1.0000 0.1289427573
H   H49       1.0  0.02740  0.60760  0.27460  1.0000 0.1395135591
H   H50       1.0  0.41980  0.02740  0.44127  1.0000 0.1395135591
H   H51       1.0  0.39240  0.41980  0.60793  1.0000 0.1395135591
H   H52       1.0  0.97260  0.39240  0.77460  1.0000 0.1395135591
H   H53       1.0  0.58020  0.97260  0.94127  1.0000 0.1395135591
H   H54       1.0  0.60760  0.58020  0.10793  1.0000 0.1395135591
H   H55       1.0  0.05280  0.70630  0.01110  1.0000 0.1103457847
H   H56       1.0  0.34650  0.05280  0.17777  1.0000 0.1103457847
H   H57       1.0  0.29370  0.34650  0.34443  1.0000 0.1103457847
H   H58       1.0  0.94720  0.29370  0.51110  1.0000 0.1103457847
H   H59       1.0  0.65350  0.94720  0.67777  1.0000 0.1103457847
H   H60       1.0  0.70630  0.65350  0.84443  1.0000 0.1103457847
H   H61       1.0  0.15430  0.86990  0.00430  1.0000 0.1289427573
H   H62       1.0  0.28440  0.15430  0.17097  1.0000 0.1289427573
H   H63       1.0  0.13010  0.28440  0.33763  1.0000 0.1289427573
H   H64       1.0  0.84570  0.13010  0.50430  1.0000 0.1289427573
H   H65       1.0  0.71560  0.84570  0.67097  1.0000 0.1289427573
H   H66       1.0  0.86990  0.71560  0.83763  1.0000 0.1289427573
H   H67       1.0  0.92360  0.89800  0.96650  1.0000 0.1395135591
H   H68       1.0  0.02560  0.92360  0.13317  1.0000 0.1395135591
H   H69       1.0  0.10200  0.02560  0.29983  1.0000 0.1395135591
H   H70       1.0  0.07640  0.10200  0.46650  1.0000 0.1395135591
H   H71       1.0  0.97440  0.07640  0.63317  1.0000 0.1395135591
H   H72       1.0  0.89800  0.97440  0.79983  1.0000 0.1395135591
H   H73       1.0  0.82910  0.73660  0.97570  1.0000 0.1207455872
H   H74       1.0  0.09250  0.82910  0.14237  1.0000 0.1207455872
H   H75       1.0  0.26340  0.09250  0.30903  1.0000 0.1207455872
H   H76       1.0  0.17090  0.26340  0.47570  1.0000 0.1207455872
H   H77       1.0  0.90750  0.17090  0.64237  1.0000 0.1207455872
H   H78       1.0  0.73660  0.90750  0.80903  1.0000 0.1207455872
H   H79       1.0  0.08280  0.04560  0.96960  1.0000 0.1207455872
H   H80       1.0  0.03720  0.08280  0.13627  1.0000 0.1207455872
H   H81       1.0  0.95440  0.03720  0.30293  1.0000 0.1207455872
H   H82       1.0  0.91720  0.95440  0.46960  1.0000 0.1207455872
H   H83       1.0  0.96280  0.91720  0.63627  1.0000 0.1207455872
H   H84       1.0  0.04560  0.96280  0.80293  1.0000 0.1207455872
H   H85       1.0  0.23650  0.02380  0.99800  1.0000 0.1289427573
H   H86       1.0  0.21270  0.23650  0.16467  1.0000 0.1289427573
H   H87       1.0  0.97620  0.21270  0.33133  1.0000 0.1289427573
H   H88       1.0  0.76350  0.97620  0.49800  1.0000 0.1289427573
H   H89       1.0  0.78730  0.76350  0.66467  1.0000 0.1289427573
H   H90       1.0  0.02380  0.78730  0.83133  1.0000 0.1289427573
H   H91       1.0  0.39740  0.16980  0.98860  1.0000 0.1395135591
H   H92       1.0  0.22760  0.39740  0.15527  1.0000 0.1395135591
H   H93       1.0  0.83020  0.22760  0.32193  1.0000 0.1395135591
H   H94       1.0  0.60260  0.83020  0.48860  1.0000 0.1395135591
H   H95       1.0  0.77240  0.60260  0.65527  1.0000 0.1395135591
H   H96       1.0  0.16980  0.77240  0.82193  1.0000 0.1395135591
H   H97       1.0  0.49280  0.33170  0.97480  1.0000 0.1103457847
H   H98       1.0  0.16110  0.49280  0.14147  1.0000 0.1103457847
H   H99       1.0  0.66830  0.16110  0.30813  1.0000 0.1103457847
H   H100      1.0  0.50720  0.66830  0.47480  1.0000 0.1103457847
H   H101      1.0  0.83890  0.50720  0.64147  1.0000 0.1103457847
H   H102      1.0  0.33170  0.83890  0.80813  1.0000 0.1103457847
H   H103      1.0  0.26710  0.36560  0.97480  1.0000 0.1103457847
H   H104      1.0  0.90150  0.26710  0.14147  1.0000 0.1103457847
H   H105      1.0  0.63440  0.90150  0.30813  1.0000 0.1103457847
H   H106      1.0  0.73290  0.63440  0.47480  1.0000 0.1103457847
H   H107      1.0  0.09850  0.73290  0.64147  1.0000 0.1103457847
H   H108      1.0  0.36560  0.09850  0.80813  1.0000 0.1103457847
H   H109      1.0  0.16580  0.20530  0.98680  1.0000 0.1289427573
H   H110      1.0  0.96050  0.16580  0.15347  1.0000 0.1289427573
H   H111      1.0  0.79470  0.96050  0.32013  1.0000 0.1289427573
H   H112      1.0  0.83420  0.79470  0.48680  1.0000 0.1289427573
H   H113      1.0  0.03950  0.83420  0.65347  1.0000 0.1289427573
H   H114      1.0  0.20530  0.03950  0.82013  1.0000 0.1289427573
H   H115      1.0  0.71960  0.51020  0.92380  1.0000 0.3603773658
H   H116      1.0  0.20940  0.71960  0.09047  1.0000 0.3603773658
H   H117      1.0  0.48980  0.20940  0.25713  1.0000 0.3603773658
H   H118      1.0  0.28040  0.48980  0.42380  1.0000 0.3603773658
H   H119      1.0  0.79060  0.28040  0.59047  1.0000 0.3603773658
H   H120      1.0  0.51020  0.79060  0.75713  1.0000 0.3603773658
H   H121      1.0  0.78560  0.49760  0.89030  1.0000 0.3295631652
H   H122      1.0  0.28800  0.78560  0.05697  1.0000 0.3295631652
H   H123      1.0  0.50240  0.28800  0.22363  1.0000 0.3295631652
H   H124      1.0  0.21440  0.50240  0.39030  1.0000 0.3295631652
H   H125      1.0  0.71200  0.21440  0.55697  1.0000 0.3295631652
H   H126      1.0  0.49760  0.71200  0.72363  1.0000 0.3295631652
C   C1        1.0  0.75290  0.43270  0.38770  1.0000 -0.0033406008
C   C2        1.0  0.32020  0.75290  0.55437  1.0000 -0.0050219222
C   C3        1.0  0.56730  0.32020  0.72103  1.0000 -0.0033406008
C   C4        1.0  0.24710  0.56730  0.88770  1.0000 -0.0033406008
C   C5        1.0  0.67980  0.24710  0.05437  1.0000 -0.0050219222
C   C6        1.0  0.43270  0.67980  0.22103  1.0000 -0.0033406008
C   C7        1.0  0.81920  0.45670  0.43570  1.0000 -0.1490733893
C   C8        1.0  0.36250  0.81920  0.60237  1.0000 -0.1490733893
C   C9        1.0  0.54330  0.36250  0.76903  1.0000 -0.1490733893
C   C10       1.0  0.18080  0.54330  0.93570  1.0000 -0.1490733893
C   C11       1.0  0.63750  0.18080  0.10237  1.0000 -0.1490733893
C   C12       1.0  0.45670  0.63750  0.26903  1.0000 -0.1490733893
C   C13       1.0  0.90730  0.46040  0.42440  1.0000 -0.0033406008
C   C14       1.0  0.44690  0.90730  0.59107  1.0000 -0.0033406008
C   C15       1.0  0.53960  0.44690  0.75773  1.0000 -0.0033406008
C   C16       1.0  0.09270  0.53960  0.92440  1.0000 -0.0033406008
C   C17       1.0  0.55310  0.09270  0.09107  1.0000 -0.0033406008
C   C18       1.0  0.46040  0.55310  0.25773  1.0000 -0.0033406008
C   C19       1.0  0.92820  0.44390  0.36370  1.0000 -0.1903843073
C   C20       1.0  0.48430  0.92820  0.53037  1.0000 -0.1903843073
C   C21       1.0  0.55610  0.48430  0.69703  1.0000 -0.1903843073
C   C22       1.0  0.07180  0.55610  0.86370  1.0000 -0.1903843073
C   C23       1.0  0.51570  0.07180  0.03037  1.0000 -0.1903843073
C   C24       1.0  0.44390  0.51570  0.19703  1.0000 -0.1903843073
C   C25       1.0  0.86530  0.42440  0.31530  1.0000 0.0926319958
C   C26       1.0  0.44090  0.86530  0.48197  1.0000 0.0926319958
C   C27       1.0  0.57560  0.44090  0.64863  1.0000 0.0926319958
C   C28       1.0  0.13470  0.57560  0.81530  1.0000 0.0926319958
C   C29       1.0  0.55910  0.13470  0.98197  1.0000 0.0926319958
C   C30       1.0  0.42440  0.55910  0.14863  1.0000 0.0926319958
C   C31       1.0  0.77620  0.41590  0.32770  1.0000 -0.1770875732
C   C32       1.0  0.36030  0.77620  0.49437  1.0000 -0.1770875732
C   C33       1.0  0.58410  0.36030  0.66103  1.0000 -0.1770875732
C   C34       1.0  0.22380  0.58410  0.82770  1.0000 -0.1770875732
C   C35       1.0  0.63970  0.22380  0.99437  1.0000 -0.1770875732
C   C36       1.0  0.41590  0.63970  0.16103  1.0000 -0.1770875732
C   C37       1.0  0.89110  0.41360  0.24840  1.0000 -0.1903843073
C   C38       1.0  0.47750  0.89110  0.41507  1.0000 -0.1903843073
C   C39       1.0  0.58640  0.47750  0.58173  1.0000 -0.1903843073
C   C40       1.0  0.10890  0.58640  0.74840  1.0000 -0.1903843073
C   C41       1.0  0.52250  0.10890  0.91507  1.0000 -0.1903843073
C   C42       1.0  0.41360  0.52250  0.08173  1.0000 -0.1903843073
C   C43       1.0  0.88250  0.55270  0.20710  1.0000 -0.2791494385
C   C44       1.0  0.32980  0.88250  0.37377  1.0000 -0.2791494385
C   C45       1.0  0.44730  0.32980  0.54043  1.0000 -0.2791494385
C   C46       1.0  0.11750  0.44730  0.70710  1.0000 -0.2791494385
C   C47       1.0  0.67020  0.11750  0.87377  1.0000 -0.2791494385
C   C48       1.0  0.55270  0.67020  0.04043  1.0000 -0.2791494385
C   C49       1.0  0.89930  0.61180  0.14770  1.0000 0.6109716887
C   C50       1.0  0.28750  0.89930  0.31437  1.0000 0.6109716887
C   C51       1.0  0.38820  0.28750  0.48103  1.0000 0.6109716887
C   C52       1.0  0.10070  0.38820  0.64770  1.0000 0.6109716887
C   C53       1.0  0.71250  0.10070  0.81437  1.0000 0.6109716887
C   C54       1.0  0.61180  0.71250  0.98103  1.0000 0.6109716887
C   C55       1.0  0.03680  0.57290  0.24050  1.0000 -0.2791494385
C   C56       1.0  0.46390  0.03680  0.40717  1.0000 -0.2791494385
C   C57       1.0  0.42710  0.46390  0.57383  1.0000 -0.2791494385
C   C58       1.0  0.96320  0.42710  0.74050  1.0000 -0.2791494385
C   C59       1.0  0.53610  0.96320  0.90717  1.0000 -0.2791494385
C   C60       1.0  0.57290  0.53610  0.07383  1.0000 -0.2791494385
C   C61       1.0  0.10730  0.64590  0.19280  1.0000 0.6109716887
C   C62       1.0  0.46140  0.10730  0.35947  1.0000 0.6109716887
C   C63       1.0  0.35410  0.46140  0.52613  1.0000 0.6109716887
C   C64       1.0  0.89270  0.35410  0.69280  1.0000 0.6109716887
C   C65       1.0  0.53860  0.89270  0.85947  1.0000 0.6109716887
C   C66       1.0  0.64590  0.53860  0.02613  1.0000 0.6109716887
C   C67       1.0  0.65250  0.42090  0.39620  1.0000 0.5882192795
C   C68       1.0  0.23160  0.65250  0.56287  1.0000 0.5882192795
C   C69       1.0  0.57910  0.23160  0.72953  1.0000 0.5882192795
C   C70       1.0  0.34750  0.57910  0.89620  1.0000 0.5882192795
C   C71       1.0  0.76840  0.34750  0.06287  1.0000 0.5882192795
C   C72       1.0  0.42090  0.76840  0.22953  1.0000 0.5882192795
C   C73       1.0  0.97980  0.47900  0.47630  1.0000 0.571932807
C   C74       1.0  0.50080  0.97980  0.64297  1.0000 0.571932807
C   C75       1.0  0.52100  0.50080  0.80963  1.0000 0.571932807
C   C76       1.0  0.02020  0.52100  0.97630  1.0000 0.571932807
C   C77       1.0  0.49920  0.02020  0.14297  1.0000 0.571932807
C   C78       1.0  0.47900  0.49920  0.30963  1.0000 0.571932807
C   C79       1.0  0.02670  0.74580  0.00230  1.0000 0.0926319958
C   C80       1.0  0.28090  0.02670  0.16897  1.0000 0.0926319958
C   C81       1.0  0.25420  0.28090  0.33563  1.0000 0.0926319958
C   C82       1.0  0.97330  0.25420  0.50230  1.0000 0.0952636247
C   C83       1.0  0.71910  0.97330  0.66897  1.0000 0.0926319958
C   C84       1.0  0.74580  0.71910  0.83563  1.0000 0.0952636247
C   C85       1.0  0.08810  0.84370  0.99780  1.0000 -0.2013330639
C   C86       1.0  0.24440  0.08810  0.16447  1.0000 -0.2013330639
C   C87       1.0  0.15630  0.24440  0.33113  1.0000 -0.2013330639
C   C88       1.0  0.91190  0.15630  0.49780  1.0000 -0.2013330639
C   C89       1.0  0.75560  0.91190  0.66447  1.0000 -0.2013330639
C   C90       1.0  0.84370  0.75560  0.83113  1.0000 -0.2013330639
C   C91       1.0  0.05030  0.90460  0.98340  1.0000 0.1395135591
C   C92       1.0  0.14570  0.05030  0.15007  1.0000 0.1395135591
C   C93       1.0  0.09540  0.14570  0.31673  1.0000 0.1395135591
C   C94       1.0  0.94970  0.09540  0.48340  1.0000 0.1395135591
C   C95       1.0  0.85430  0.94970  0.65007  1.0000 0.1395135591
C   C96       1.0  0.90460  0.85430  0.81673  1.0000 0.1395135591
C   C97       1.0  0.95190  0.86060  0.97570  1.0000 -0.1903843073
C   C98       1.0  0.09130  0.95190  0.14237  1.0000 -0.1903843073
C   C99       1.0  0.13940  0.09130  0.30903  1.0000 -0.1903843073
C   C100      1.0  0.04810  0.13940  0.47570  1.0000 -0.1903843073
C   C101      1.0  0.90870  0.04810  0.64237  1.0000 -0.1903843073
C   C102      1.0  0.86060  0.90870  0.80903  1.0000 -0.1903843073
C   C103      1.0  0.89560  0.76380  0.98130  1.0000 0.0926319958
C   C104      1.0  0.13180  0.89560  0.14797  1.0000 0.0926319958
C   C105      1.0  0.23620  0.13180  0.31463  1.0000 0.0926319958
C   C106      1.0  0.10440  0.23620  0.48130  1.0000 0.0926319958
C   C107      1.0  0.86820  0.10440  0.64797  1.0000 0.0926319958
C   C108      1.0  0.76380  0.86820  0.81463  1.0000 0.0926319958
C   C109      1.0  0.11280  0.01010  0.97950  1.0000 -0.1490733893
C   C110      1.0  0.10270  0.11280  0.14617  1.0000 -0.1490733893
C   C111      1.0  0.98990  0.10270  0.31283  1.0000 -0.1490733893
C   C112      1.0  0.88720  0.98990  0.47950  1.0000 -0.1490733893
C   C113      1.0  0.89730  0.88720  0.64617  1.0000 -0.1490733893
C   C114      1.0  0.01010  0.89730  0.81283  1.0000 -0.1490733893
C   C115      1.0  0.20630  0.05920  0.98850  1.0000 -0.1490733893
C   C116      1.0  0.14710  0.20630  0.15517  1.0000 -0.1490733893
C   C117      1.0  0.94080  0.14710  0.32183  1.0000 -0.1490733893
C   C118      1.0  0.79370  0.94080  0.48850  1.0000 -0.1490733893
C   C119      1.0  0.85290  0.79370  0.65517  1.0000 -0.1490733893
C   C120      1.0  0.05920  0.85290  0.82183  1.0000 -0.1490733893
C   C121      1.0  0.26850  0.16530  0.98510  1.0000 0.1594720726
C   C122      1.0  0.10320  0.26850  0.15177  1.0000 0.1594720726
C   C123      1.0  0.83470  0.10320  0.31843  1.0000 0.1594720726
C   C124      1.0  0.73150  0.83470  0.48510  1.0000 0.1594720726
C   C125      1.0  0.89680  0.73150  0.65177  1.0000 0.1594720726
C   C126      1.0  0.16530  0.89680  0.81843  1.0000 0.1594720726
C   C127      1.0  0.36890  0.20820  0.98410  1.0000 -0.2084638531
C   C128      1.0  0.16070  0.36890  0.15077  1.0000 -0.2084638531
C   C129      1.0  0.79180  0.16070  0.31743  1.0000 -0.2084638531
C   C130      1.0  0.63110  0.79180  0.48410  1.0000 -0.2084638531
C   C131      1.0  0.83930  0.63110  0.65077  1.0000 -0.2084638531
C   C132      1.0  0.20820  0.83930  0.81743  1.0000 -0.2084638531
C   C133      1.0  0.42600  0.30580  0.97670  1.0000 0.0952636247
C   C134      1.0  0.12020  0.42600  0.14337  1.0000 0.0952636247
C   C135      1.0  0.69420  0.12020  0.31003  1.0000 0.0952636247
C   C136      1.0  0.57400  0.69420  0.47670  1.0000 0.0952636247
C   C137      1.0  0.87980  0.57400  0.64337  1.0000 0.0952636247
C   C138      1.0  0.30580  0.87980  0.81003  1.0000 0.0952636247
C   C139      1.0  0.29330  0.32500  0.97650  1.0000 0.0674982761
C   C140      1.0  0.96830  0.29330  0.14317  1.0000 0.0674982761
C   C141      1.0  0.67500  0.96830  0.30983  1.0000 0.0674982761
C   C142      1.0  0.70670  0.67500  0.47650  1.0000 0.0674982761
C   C143      1.0  0.03170  0.70670  0.64317  1.0000 0.0674982761
C   C144      1.0  0.32500  0.03170  0.80983  1.0000 0.0674982761
C   C145      1.0  0.23210  0.22910  0.98330  1.0000 -0.2013330639
C   C146      1.0  0.00300  0.23210  0.14997  1.0000 -0.2013330639
C   C147      1.0  0.77090  0.00300  0.31663  1.0000 -0.2013330639
C   C148      1.0  0.76790  0.77090  0.48330  1.0000 -0.2013330639
C   C149      1.0  0.99700  0.76790  0.64997  1.0000 -0.2013330639
C   C150      1.0  0.22910  0.99700  0.81663  1.0000 -0.2013330639
N   N1        1.0  0.94180  0.50590  0.21157  1.0000 -0.0464822779
N   N2        1.0  0.43590  0.94180  0.37824  1.0000 -0.0464822779
N   N3        1.0  0.49410  0.43590  0.54490  1.0000 -0.0464822779
N   N4        1.0  0.05820  0.49410  0.71157  1.0000 -0.0464822779
N   N5        1.0  0.56410  0.05820  0.87824  1.0000 -0.0464822779
N   N6        1.0  0.50590  0.56410  0.04490  1.0000 -0.0464822779
N   N7        1.0  0.93050  0.70430  0.99450  1.0000 -0.2564248796
N   N8        1.0  0.22620  0.93050  0.16117  1.0000 -0.2564248796
N   N9        1.0  0.29570  0.22620  0.32783  1.0000 -0.2564248796
N   N10       1.0  0.06950  0.29570  0.49450  1.0000 -0.2564248796
N   N11       1.0  0.77380  0.06950  0.66117  1.0000 -0.2564248796
N   N12       1.0  0.70430  0.77380  0.82783  1.0000 -0.2564248796
N   N13       1.0  0.39110  0.36580  0.97207  1.0000 -0.2466858929
N   N14       1.0  0.02530  0.39110  0.13874  1.0000 -0.2466858929
N   N15       1.0  0.63420  0.02530  0.30540  1.0000 -0.2466858929
N   N16       1.0  0.60890  0.63420  0.47207  1.0000 -0.2466858929
N   N17       1.0  0.97470  0.60890  0.63874  1.0000 -0.2466858929
N   N18       1.0  0.36580  0.97470  0.80540  1.0000 -0.2466858929
O   O1        1.0  0.91230  0.57390  0.09744  1.0000 -0.6164095457
O   O2        1.0  0.33840  0.91230  0.26411  1.0000 -0.6164095457
O   O3        1.0  0.42610  0.33840  0.43077  1.0000 -0.6164095457
O   O4        1.0  0.08770  0.42610  0.59744  1.0000 -0.6164095457
O   O5        1.0  0.66160  0.08770  0.76411  1.0000 -0.6164095457
O   O6        1.0  0.57390  0.66160  0.93077  1.0000 -0.6164095457
O   O7        1.0  0.89530  0.68540  0.14930  1.0000 -0.4926076139
O   O8        1.0  0.20990  0.89530  0.31597  1.0000 -0.4926076139
O   O9        1.0  0.31460  0.20990  0.48263  1.0000 -0.4926076139
O   O10       1.0  0.10470  0.31460  0.64930  1.0000 -0.4926076139
O   O11       1.0  0.79010  0.10470  0.81597  1.0000 -0.4926076139
O   O12       1.0  0.68540  0.79010  0.98263  1.0000 -0.4926076139
O   O13       1.0  0.10120  0.61680  0.13741  1.0000 -0.5596644685
O   O14       1.0  0.48440  0.10120  0.30408  1.0000 -0.5596644685
O   O15       1.0  0.38320  0.48440  0.47074  1.0000 -0.5596644685
O   O16       1.0  0.89880  0.38320  0.63741  1.0000 -0.5596644685
O   O17       1.0  0.51560  0.89880  0.80408  1.0000 -0.5596644685
O   O18       1.0  0.61680  0.51560  0.97074  1.0000 -0.5596644685
O   O19       1.0  0.16550  0.72710  0.21294  1.0000 -0.5334494666
O   O20       1.0  0.43840  0.16550  0.37961  1.0000 -0.5334494666
O   O21       1.0  0.27290  0.43840  0.54627  1.0000 -0.5334494666
O   O22       1.0  0.83450  0.27290  0.71294  1.0000 -0.5334494666
O   O23       1.0  0.56160  0.83450  0.87961  1.0000 -0.5334494666
O   O24       1.0  0.72710  0.56160  0.04627  1.0000 -0.5334494666
O   O25       1.0  0.58990  0.36070  0.35930  1.0000 -0.5596644685
O   O26       1.0  0.22920  0.58990  0.52597  1.0000 -0.5596644685
O   O27       1.0  0.63930  0.22920  0.69263  1.0000 -0.5596644685
O   O28       1.0  0.41010  0.63930  0.85930  1.0000 -0.5596644685
O   O29       1.0  0.77080  0.41010  0.02597  1.0000 -0.5596644685
O   O30       1.0  0.36070  0.77080  0.19263  1.0000 -0.5596644685
O   O31       1.0  0.63960  0.47010  0.43671  1.0000 -0.5703361686
O   O32       1.0  0.16950  0.63960  0.60338  1.0000 -0.5703361686
O   O33       1.0  0.52990  0.16950  0.77004  1.0000 -0.5703361686
O   O34       1.0  0.36040  0.52990  0.93671  1.0000 -0.5703361686
O   O35       1.0  0.83050  0.36040  0.10338  1.0000 -0.5703361686
O   O36       1.0  0.47010  0.83050  0.27004  1.0000 -0.5703361686
O   O37       1.0  0.96960  0.51160  0.52725  1.0000 -0.5438646729
O   O38       1.0  0.45800  0.96960  0.69392  1.0000 -0.5438646729
O   O39       1.0  0.48840  0.45800  0.86058  1.0000 -0.5438646729
O   O40       1.0  0.03040  0.48840  0.02725  1.0000 -0.5438646729
O   O41       1.0  0.54200  0.03040  0.19392  1.0000 -0.5438646729
O   O42       1.0  0.51160  0.54200  0.36058  1.0000 -0.5438646729
O   O43       1.0  0.04460  0.46030  0.46331  1.0000 -0.5703361686
O   O44       1.0  0.58430  0.04460  0.62998  1.0000 -0.5703361686
O   O45       1.0  0.53970  0.58430  0.79664  1.0000 -0.5703361686
O   O46       1.0  0.95540  0.53970  0.96331  1.0000 -0.5703361686
O   O47       1.0  0.41570  0.95540  0.12998  1.0000 -0.5703361686
O   O48       1.0  0.46030  0.41570  0.29664  1.0000 -0.5703361686
O   O49       1.0  0.77990  0.53210  0.91849  1.0000 -0.6727190172
O   O50       1.0  0.24780  0.77990  0.08516  1.0000 -0.6727190172
O   O51       1.0  0.46790  0.24780  0.25182  1.0000 -0.6727190172
O   O52       1.0  0.22010  0.46790  0.41849  1.0000 -0.6727190172
O   O53       1.0  0.75220  0.22010  0.58516  1.0000 -0.6727190172
O   O54       1.0  0.53210  0.75220  0.75182  1.0000 -0.6727190172
