# DDEC6 charges by PACMAN v1.1 (https://github.com/mtap-research/PACMAN-charge/)
data_2013[Cd][pcu]3[FSR]5
_chemical_formula_sum              "Cd6 H64 C112 O40"
_cell_length_a       13.4158
_cell_length_b       21.8551
_cell_length_c       19.3407
_cell_angle_alpha    90
_cell_angle_beta     131.585
_cell_angle_gamma    90

_symmetry_space_group_name_H-M    "P 1"
_symmetry_Int_Tables_number       1

loop_
  _symmetry_equiv_pos_as_xyz
  'x, y, z'

loop_
  _atom_site_type_symbol
  _atom_site_label
  _atom_site_symmetry_multiplicity
  _atom_site_fract_x
  _atom_site_fract_y
  _atom_site_fract_z
  _atom_site_occupancy
  _atom_site_charge
Cd  Cd1       1.0  0.84886  0.01922  0.17385  1.0000 0.9686971641
Cd  Cd2       1.0  0.15114  0.51922  0.32615  1.0000 0.9686971641
Cd  Cd3       1.0  0.15114  0.98078  0.82615  1.0000 0.9686971641
Cd  Cd4       1.0  0.84886  0.48078  0.67385  1.0000 0.9686971641
Cd  Cd5       1.0  0.50000  0.00000  0.00000  1.0000 1.1067283041
Cd  Cd6       1.0  0.50000  0.50000  0.50000  1.0000 1.1047234422
H   H1        1.0  0.82440  0.98860  0.80030  1.0000 0.1568373478
H   H2        1.0  0.17560  0.48860  0.69970  1.0000 0.1568373478
H   H3        1.0  0.17560  0.01140  0.19970  1.0000 0.1568373478
H   H4        1.0  0.82440  0.51140  0.30030  1.0000 0.1568373478
H   H5        1.0  0.53350  0.95960  0.84860  1.0000 0.1207267995
H   H6        1.0  0.46650  0.45960  0.65140  1.0000 0.1207267995
H   H7        1.0  0.46650  0.04040  0.15140  1.0000 0.1207267995
H   H8        1.0  0.53350  0.54040  0.34860  1.0000 0.1207267995
H   H9        1.0  0.26210  0.88990  0.37780  1.0000 0.1207267995
H   H10       1.0  0.73790  0.38990  0.12220  1.0000 0.1207267995
H   H11       1.0  0.73790  0.11010  0.62220  1.0000 0.1207267995
H   H12       1.0  0.26210  0.61010  0.87780  1.0000 0.1207267995
H   H13       1.0  0.27250  0.05760  0.46520  1.0000 0.1207267995
H   H14       1.0  0.72750  0.55760  0.03480  1.0000 0.1207267995
H   H15       1.0  0.72750  0.94240  0.53480  1.0000 0.1207267995
H   H16       1.0  0.27250  0.44240  0.96520  1.0000 0.1207267995
H   H17       1.0  0.47120  0.93160  0.70970  1.0000 0.1414565927
H   H18       1.0  0.52880  0.43160  0.79030  1.0000 0.1414565927
H   H19       1.0  0.52880  0.06840  0.29030  1.0000 0.1414565927
H   H20       1.0  0.47120  0.56840  0.20970  1.0000 0.1414565927
H   H21       1.0  0.76360  0.23080  0.18900  1.0000 0.1314549855
H   H22       1.0  0.23640  0.73080  0.31100  1.0000 0.1314549855
H   H23       1.0  0.23640  0.76920  0.81100  1.0000 0.1314549855
H   H24       1.0  0.76360  0.26920  0.68900  1.0000 0.1314549855
H   H25       1.0  0.32360  0.22710  0.05280  1.0000 0.1414565927
H   H26       1.0  0.67640  0.72710  0.44720  1.0000 0.1414565927
H   H27       1.0  0.67640  0.77290  0.94720  1.0000 0.1414565927
H   H28       1.0  0.32360  0.27290  0.55280  1.0000 0.1414565927
H   H29       1.0  0.46700  0.86790  0.52200  1.0000 0.1414565927
H   H30       1.0  0.53300  0.36790  0.97800  1.0000 0.1414565927
H   H31       1.0  0.53300  0.13210  0.47800  1.0000 0.1414565927
H   H32       1.0  0.46700  0.63210  0.02200  1.0000 0.1414565927
H   H33       1.0  0.47740  0.03600  0.60860  1.0000 0.1314549855
H   H34       1.0  0.52260  0.53600  0.89140  1.0000 0.1314549855
H   H35       1.0  0.52260  0.96400  0.39140  1.0000 0.1314549855
H   H36       1.0  0.47740  0.46400  0.10860  1.0000 0.1314549855
H   H37       1.0  0.58730  0.35970  0.25960  1.0000 0.1414565927
H   H38       1.0  0.41270  0.85970  0.24040  1.0000 0.1414565927
H   H39       1.0  0.41270  0.64030  0.74040  1.0000 0.1414565927
H   H40       1.0  0.58730  0.14030  0.75960  1.0000 0.1414565927
H   H41       1.0  0.65770  0.32010  0.16830  1.0000 0.1414565927
H   H42       1.0  0.34230  0.82010  0.33170  1.0000 0.1414565927
H   H43       1.0  0.34230  0.67990  0.83170  1.0000 0.1414565927
H   H44       1.0  0.65770  0.17990  0.66830  1.0000 0.1414565927
H   H45       1.0  0.54580  0.39890  0.34900  1.0000 0.1207267995
H   H46       1.0  0.45420  0.89890  0.15100  1.0000 0.1207267995
H   H47       1.0  0.45420  0.60110  0.65100  1.0000 0.1207267995
H   H48       1.0  0.54580  0.10110  0.84900  1.0000 0.1207267995
H   H49       1.0  0.88320  0.01990  0.93740  1.0000 0.1314549855
H   H50       1.0  0.11680  0.51990  0.56260  1.0000 0.1314549855
H   H51       1.0  0.11680  0.98010  0.06260  1.0000 0.1314549855
H   H52       1.0  0.88320  0.48010  0.43740  1.0000 0.1314549855
H   H53       1.0  0.19690  0.35940  0.04050  1.0000 0.1414565927
H   H54       1.0  0.80310  0.85940  0.45950  1.0000 0.1414565927
H   H55       1.0  0.80310  0.64060  0.95950  1.0000 0.1414565927
H   H56       1.0  0.19690  0.14060  0.54050  1.0000 0.1414565927
H   H57       1.0  0.42720  0.13780  0.06980  1.0000 0.1314549855
H   H58       1.0  0.57280  0.63780  0.43020  1.0000 0.1314549855
H   H59       1.0  0.57280  0.86220  0.93020  1.0000 0.1314549855
H   H60       1.0  0.42720  0.36220  0.56980  1.0000 0.1314549855
H   H61       1.0  0.15670  0.39900  0.13030  1.0000 0.1314549855
H   H62       1.0  0.84330  0.89900  0.36970  1.0000 0.1314549855
H   H63       1.0  0.84330  0.60100  0.86970  1.0000 0.1314549855
H   H64       1.0  0.15670  0.10100  0.63030  1.0000 0.1314549855
C   C1        1.0  0.75980  0.00878  0.00020  1.0000 0.5749995596
C   C2        1.0  0.24020  0.50878  0.49980  1.0000 0.5782461309
C   C3        1.0  0.24020  0.99122  0.99980  1.0000 0.5782461309
C   C4        1.0  0.75980  0.49122  0.50020  1.0000 0.5782461309
C   C5        1.0  0.67350  0.11528  0.13820  1.0000 0.5782461309
C   C6        1.0  0.32650  0.61528  0.36180  1.0000 0.5782461309
C   C7        1.0  0.32650  0.88472  0.86180  1.0000 0.5782461309
C   C8        1.0  0.67350  0.38472  0.63820  1.0000 0.5782461309
C   C9        1.0  0.24500  0.97537  0.40710  1.0000 -0.0163412194
C   C10       1.0  0.75500  0.47537  0.09290  1.0000 -0.0163412194
C   C11       1.0  0.75500  0.02463  0.59290  1.0000 -0.0163412194
C   C12       1.0  0.24500  0.52463  0.90710  1.0000 -0.0163412194
C   C13       1.0  0.60730  0.17474  0.13110  1.0000 -0.0163412194
C   C14       1.0  0.39270  0.67474  0.36890  1.0000 -0.0163412194
C   C15       1.0  0.39270  0.82526  0.86890  1.0000 -0.0163412194
C   C16       1.0  0.60730  0.32526  0.63110  1.0000 -0.0163412194
C   C17       1.0  0.71480  0.99261  0.90770  1.0000 -0.029907751
C   C18       1.0  0.28520  0.49261  0.59230  1.0000 -0.029907751
C   C19       1.0  0.28520  0.00739  0.09230  1.0000 -0.029907751
C   C20       1.0  0.71480  0.50739  0.40770  1.0000 -0.029907751
C   C21       1.0  0.10740  0.98852  0.31640  1.0000 0.54706626
C   C22       1.0  0.89260  0.48852  0.18360  1.0000 0.54706626
C   C23       1.0  0.89260  0.01148  0.68360  1.0000 0.54706626
C   C24       1.0  0.10740  0.51148  0.81640  1.0000 0.54706626
C   C25       1.0  0.76560  0.98320  0.80990  1.0000 -0.1794157365
C   C26       1.0  0.23440  0.48320  0.69010  1.0000 -0.1794157365
C   C27       1.0  0.23440  0.01680  0.19010  1.0000 -0.1794157365
C   C28       1.0  0.76560  0.51680  0.30990  1.0000 -0.1794157365
C   C29       1.0  0.64360  0.95709  0.74260  1.0000 0.2482629566
C   C30       1.0  0.35640  0.45709  0.75740  1.0000 0.2482629566
C   C31       1.0  0.35640  0.04291  0.25740  1.0000 0.2482629566
C   C32       1.0  0.64360  0.54291  0.24260  1.0000 0.2482629566
C   C33       1.0  0.59190  0.96592  0.83880  1.0000 -0.0794434893
C   C34       1.0  0.40810  0.46592  0.66120  1.0000 -0.0794434893
C   C35       1.0  0.40810  0.03408  0.16120  1.0000 -0.0794434893
C   C36       1.0  0.59190  0.53408  0.33880  1.0000 -0.0794434893
C   C37       1.0  0.30470  0.91925  0.42440  1.0000 -0.0794434893
C   C38       1.0  0.69530  0.41925  0.07560  1.0000 -0.0794434893
C   C39       1.0  0.69530  0.08075  0.57560  1.0000 -0.0794434893
C   C40       1.0  0.30470  0.58075  0.92440  1.0000 -0.0794434893
C   C41       1.0  0.31100  0.01930  0.47650  1.0000 -0.0714497875
C   C42       1.0  0.68900  0.51930  0.02350  1.0000 -0.0714497875
C   C43       1.0  0.68900  0.98070  0.52350  1.0000 -0.0714497875
C   C44       1.0  0.31100  0.48070  0.97650  1.0000 -0.0714497875
C   C45       1.0  0.55480  0.94866  0.75610  1.0000 -0.198938796
C   C46       1.0  0.44520  0.44866  0.74390  1.0000 -0.198938796
C   C47       1.0  0.44520  0.05134  0.24390  1.0000 -0.198938796
C   C48       1.0  0.55480  0.55134  0.25610  1.0000 -0.198938796
C   C49       1.0  0.34700  0.40337  0.24890  1.0000 -0.029907751
C   C50       1.0  0.65300  0.90337  0.25110  1.0000 -0.029907751
C   C51       1.0  0.65300  0.59663  0.75110  1.0000 -0.029907751
C   C52       1.0  0.34700  0.09663  0.74890  1.0000 -0.029907751
C   C53       1.0  0.47990  0.28210  0.10570  1.0000 0.2414741738
C   C54       1.0  0.52010  0.78210  0.39430  1.0000 0.2414741738
C   C55       1.0  0.52010  0.71790  0.89430  1.0000 0.2414741738
C   C56       1.0  0.47990  0.21790  0.60570  1.0000 0.2414741738
C   C57       1.0  0.67420  0.22996  0.16040  1.0000 -0.0714497875
C   C58       1.0  0.32580  0.72996  0.33960  1.0000 -0.0714497875
C   C59       1.0  0.32580  0.77004  0.83960  1.0000 -0.0714497875
C   C60       1.0  0.67420  0.27004  0.66040  1.0000 -0.0714497875
C   C61       1.0  0.41180  0.22770  0.07870  1.0000 -0.1885894312
C   C62       1.0  0.58820  0.72770  0.42130  1.0000 -0.1885894312
C   C63       1.0  0.58820  0.77230  0.92130  1.0000 -0.1885894312
C   C64       1.0  0.41180  0.27230  0.57870  1.0000 -0.1885894312
C   C65       1.0  0.42740  0.90593  0.51050  1.0000 -0.1885894312
C   C66       1.0  0.57260  0.40593  0.98950  1.0000 -0.1885894312
C   C67       1.0  0.57260  0.09407  0.48950  1.0000 -0.1885894312
C   C68       1.0  0.42740  0.59407  0.01050  1.0000 -0.1885894312
C   C69       1.0  0.43340  0.00650  0.56230  1.0000 -0.198938796
C   C70       1.0  0.56660  0.50650  0.93770  1.0000 -0.198938796
C   C71       1.0  0.56660  0.99350  0.43770  1.0000 -0.198938796
C   C72       1.0  0.43340  0.49350  0.06230  1.0000 -0.198938796
C   C73       1.0  0.32270  0.43136  0.30840  1.0000 0.5996778048
C   C74       1.0  0.67730  0.93136  0.19160  1.0000 0.5996778048
C   C75       1.0  0.67730  0.56864  0.69160  1.0000 0.5996778048
C   C76       1.0  0.32270  0.06864  0.80840  1.0000 0.5996778048
C   C77       1.0  0.50030  0.36710  0.23380  1.0000 -0.198938796
C   C78       1.0  0.49970  0.86710  0.26620  1.0000 -0.198938796
C   C79       1.0  0.49970  0.63290  0.76620  1.0000 -0.198938796
C   C80       1.0  0.50030  0.13290  0.73380  1.0000 -0.198938796
C   C81       1.0  0.61130  0.28326  0.14800  1.0000 -0.198938796
C   C82       1.0  0.38870  0.78326  0.35200  1.0000 -0.1885894312
C   C83       1.0  0.38870  0.71674  0.85200  1.0000 -0.1885894312
C   C84       1.0  0.61130  0.21674  0.64800  1.0000 -0.1885894312
C   C85       1.0  0.47510  0.39098  0.28670  1.0000 -0.0714497875
C   C86       1.0  0.52490  0.89098  0.21330  1.0000 -0.0714497875
C   C87       1.0  0.52490  0.60902  0.71330  1.0000 -0.0714497875
C   C88       1.0  0.47510  0.10902  0.78670  1.0000 -0.0714497875
C   C89       1.0  0.80090  0.00150  0.89210  1.0000 -0.0714497875
C   C90       1.0  0.19910  0.50150  0.60790  1.0000 -0.0714497875
C   C91       1.0  0.19910  0.99850  0.10790  1.0000 -0.0714497875
C   C92       1.0  0.80090  0.49850  0.39210  1.0000 -0.0714497875
C   C93       1.0  0.48930  0.94980  0.57830  1.0000 0.2414741738
C   C94       1.0  0.51070  0.44980  0.92170  1.0000 0.2414741738
C   C95       1.0  0.51070  0.05020  0.42170  1.0000 0.2414741738
C   C96       1.0  0.48930  0.55020  0.07830  1.0000 0.2414741738
C   C97       1.0  0.26730  0.36700  0.10300  1.0000 -0.1885894312
C   C98       1.0  0.73270  0.86700  0.39700  1.0000 -0.1885894312
C   C99       1.0  0.73270  0.63300  0.89700  1.0000 -0.1885894312
C   C100      1.0  0.26730  0.13300  0.60300  1.0000 -0.1885894312
C   C101      1.0  0.39480  0.35440  0.14230  1.0000 0.2296146042
C   C102      1.0  0.60520  0.85440  0.35770  1.0000 0.2296146042
C   C103      1.0  0.60520  0.64560  0.85770  1.0000 0.2296146042
C   C104      1.0  0.39480  0.14560  0.64230  1.0000 0.2296146042
C   C105      1.0  0.47390  0.17449  0.08980  1.0000 -0.0714497875
C   C106      1.0  0.52610  0.67449  0.41020  1.0000 -0.0714497875
C   C107      1.0  0.52610  0.82551  0.91020  1.0000 -0.0714497875
C   C108      1.0  0.47390  0.32551  0.58980  1.0000 -0.0714497875
C   C109      1.0  0.24380  0.39100  0.15670  1.0000 -0.0714497875
C   C110      1.0  0.75620  0.89100  0.34330  1.0000 -0.0714497875
C   C111      1.0  0.75620  0.60900  0.84330  1.0000 -0.0714497875
C   C112      1.0  0.24380  0.10900  0.65670  1.0000 -0.0714497875
O   O1        1.0  0.69270  0.98717  0.02000  1.0000 -0.5895484799
O   O2        1.0  0.30730  0.48717  0.48000  1.0000 -0.5895484799
O   O3        1.0  0.30730  0.01283  0.98000  1.0000 -0.5895484799
O   O4        1.0  0.69270  0.51283  0.52000  1.0000 -0.5895484799
O   O5        1.0  0.04817  0.94882  0.25417  1.0000 -0.5298182481
O   O6        1.0  0.95183  0.44882  0.24583  1.0000 -0.5298182481
O   O7        1.0  0.95183  0.05118  0.74583  1.0000 -0.5298182481
O   O8        1.0  0.04817  0.55118  0.75417  1.0000 -0.5298182481
O   O9        1.0  0.05413  0.03878  0.30733  1.0000 -0.5160169118
O   O10       1.0  0.94587  0.53878  0.19267  1.0000 -0.5146115535
O   O11       1.0  0.94587  0.96122  0.69267  1.0000 -0.5160169118
O   O12       1.0  0.05413  0.46122  0.80733  1.0000 -0.5160169118
O   O13       1.0  0.42099  0.42972  0.39419  1.0000 -0.5632538908
O   O14       1.0  0.57901  0.92972  0.10581  1.0000 -0.5632538908
O   O15       1.0  0.57901  0.57028  0.60581  1.0000 -0.5632538908
O   O16       1.0  0.42099  0.07028  0.89419  1.0000 -0.5632538908
O   O17       1.0  0.78710  0.11893  0.16620  1.0000 -0.4938905054
O   O18       1.0  0.21290  0.61893  0.33380  1.0000 -0.4938905054
O   O19       1.0  0.21290  0.88107  0.83380  1.0000 -0.4938905054
O   O20       1.0  0.78710  0.38107  0.66620  1.0000 -0.4938905054
O   O21       1.0  0.61361  0.93539  0.66281  1.0000 -0.2065447682
O   O22       1.0  0.38639  0.43539  0.83719  1.0000 -0.2065447682
O   O23       1.0  0.38639  0.06461  0.33719  1.0000 -0.2065447682
O   O24       1.0  0.61361  0.56461  0.16281  1.0000 -0.2065447682
O   O25       1.0  0.61110  0.06720  0.11830  1.0000 -0.5687039459
O   O26       1.0  0.38890  0.56720  0.38170  1.0000 -0.5687039459
O   O27       1.0  0.38890  0.93280  0.88170  1.0000 -0.5687039459
O   O28       1.0  0.61110  0.43280  0.61830  1.0000 -0.5687039459
O   O29       1.0  0.86315  0.03859  0.05745  1.0000 -0.5000893959
O   O30       1.0  0.13685  0.53859  0.44255  1.0000 -0.5000893959
O   O31       1.0  0.13685  0.96141  0.94255  1.0000 -0.5000893959
O   O32       1.0  0.86315  0.46141  0.55745  1.0000 -0.5000893959
O   O33       1.0  0.21024  0.45231  0.26944  1.0000 -0.5298182481
O   O34       1.0  0.78976  0.95231  0.23056  1.0000 -0.5298182481
O   O35       1.0  0.78976  0.54769  0.73056  1.0000 -0.5298182481
O   O36       1.0  0.21024  0.04769  0.76944  1.0000 -0.5298182481
O   O37       1.0  0.41050  0.33670  0.08010  1.0000 -0.219975833
O   O38       1.0  0.58950  0.83670  0.41990  1.0000 -0.219975833
O   O39       1.0  0.58950  0.66330  0.91990  1.0000 -0.219975833
O   O40       1.0  0.41050  0.16330  0.58010  1.0000 -0.219975833
