# DDEC6 charges by PACMAN v1.1 (https://github.com/mtap-research/PACMAN-charge/)
data_2013[Zn][bor]3[FSR]1
_chemical_formula_sum              "Zn12 H192 C240 N96"
_cell_length_a       23.1238
_cell_length_b       23.1238
_cell_length_c       23.1238
_cell_angle_alpha    60
_cell_angle_beta     60
_cell_angle_gamma    60

_symmetry_space_group_name_H-M    "P 1"
_symmetry_Int_Tables_number       1

loop_
  _symmetry_equiv_pos_as_xyz
  'x, y, z'

loop_
  _atom_site_type_symbol
  _atom_site_label
  _atom_site_symmetry_multiplicity
  _atom_site_fract_x
  _atom_site_fract_y
  _atom_site_fract_z
  _atom_site_occupancy
  _atom_site_charge
Zn  Zn1       1.0  0.00000  0.50000  0.50000  1.0000 0.6044580676
Zn  Zn2       1.0  0.50000  0.00000  0.00000  1.0000 0.605886546
Zn  Zn3       1.0  0.00000  0.00000  0.50000  1.0000 0.6044580676
Zn  Zn4       1.0  0.50000  0.50000  0.00000  1.0000 0.605886546
Zn  Zn5       1.0  0.00000  0.50000  0.00000  1.0000 0.6044580676
Zn  Zn6       1.0  0.50000  0.00000  0.50000  1.0000 0.6044580676
Zn  Zn7       1.0  0.75000  0.25000  0.75000  1.0000 0.6044580676
Zn  Zn8       1.0  0.25000  0.75000  0.25000  1.0000 0.6044580676
Zn  Zn9       1.0  0.75000  0.75000  0.25000  1.0000 0.605886546
Zn  Zn10      1.0  0.25000  0.75000  0.75000  1.0000 0.6044580676
Zn  Zn11      1.0  0.75000  0.25000  0.25000  1.0000 0.6044580676
Zn  Zn12      1.0  0.25000  0.25000  0.75000  1.0000 0.6044580676
H   H1        1.0  0.08600  0.47620  0.58760  1.0000 0.0988025811
H   H2        1.0  0.47620  0.08600  0.85020  1.0000 0.0988025811
H   H3        1.0  0.85020  0.08600  0.58760  1.0000 0.0988025811
H   H4        1.0  0.47620  0.58760  0.08600  1.0000 0.0988025811
H   H5        1.0  0.85020  0.47620  0.08600  1.0000 0.0988025811
H   H6        1.0  0.08600  0.58760  0.85020  1.0000 0.0988025811
H   H7        1.0  0.58760  0.85020  0.08600  1.0000 0.0988025811
H   H8        1.0  0.85020  0.58760  0.47620  1.0000 0.0988025811
H   H9        1.0  0.08600  0.85020  0.47620  1.0000 0.0988025811
H   H10       1.0  0.58760  0.47620  0.85020  1.0000 0.0988025811
H   H11       1.0  0.58760  0.08600  0.47620  1.0000 0.0988025811
H   H12       1.0  0.47620  0.85020  0.58760  1.0000 0.0988025811
H   H13       1.0  0.08760  0.35020  0.97620  1.0000 0.0988025811
H   H14       1.0  0.35020  0.08760  0.58600  1.0000 0.0988025811
H   H15       1.0  0.58600  0.97620  0.35020  1.0000 0.0988025811
H   H16       1.0  0.97620  0.58600  0.08760  1.0000 0.0988025811
H   H17       1.0  0.97620  0.08760  0.35020  1.0000 0.0988025811
H   H18       1.0  0.35020  0.97620  0.08760  1.0000 0.0988025811
H   H19       1.0  0.97620  0.35020  0.58600  1.0000 0.0988025811
H   H20       1.0  0.58600  0.35020  0.08760  1.0000 0.0988025811
H   H21       1.0  0.08760  0.58600  0.35020  1.0000 0.0988025811
H   H22       1.0  0.08760  0.97620  0.58600  1.0000 0.0988025811
H   H23       1.0  0.35020  0.58600  0.97620  1.0000 0.0988025811
H   H24       1.0  0.58600  0.08760  0.97620  1.0000 0.0988025811
H   H25       1.0  0.03870  0.45310  0.71630  1.0000 0.1115644962
H   H26       1.0  0.45310  0.03870  0.79190  1.0000 0.1115644962
H   H27       1.0  0.79190  0.03870  0.71630  1.0000 0.1115644962
H   H28       1.0  0.45310  0.71630  0.03870  1.0000 0.1115644962
H   H29       1.0  0.79190  0.45310  0.03870  1.0000 0.1115644962
H   H30       1.0  0.03870  0.71630  0.79190  1.0000 0.1115644962
H   H31       1.0  0.71630  0.79190  0.03870  1.0000 0.1115644962
H   H32       1.0  0.79190  0.71630  0.45310  1.0000 0.1115644962
H   H33       1.0  0.03870  0.79190  0.45310  1.0000 0.1115644962
H   H34       1.0  0.71630  0.45310  0.79190  1.0000 0.1115644962
H   H35       1.0  0.71630  0.03870  0.45310  1.0000 0.1115644962
H   H36       1.0  0.45310  0.79190  0.71630  1.0000 0.1115644962
H   H37       1.0  0.21630  0.29190  0.95310  1.0000 0.1115644962
H   H38       1.0  0.29190  0.21630  0.53870  1.0000 0.1115644962
H   H39       1.0  0.53870  0.95310  0.29190  1.0000 0.1115644962
H   H40       1.0  0.95310  0.53870  0.21630  1.0000 0.1115644962
H   H41       1.0  0.95310  0.21630  0.29190  1.0000 0.1115644962
H   H42       1.0  0.29190  0.95310  0.21630  1.0000 0.1115644962
H   H43       1.0  0.95310  0.29190  0.53870  1.0000 0.1115644962
H   H44       1.0  0.53870  0.29190  0.21630  1.0000 0.1115644962
H   H45       1.0  0.21630  0.53870  0.29190  1.0000 0.1115644962
H   H46       1.0  0.21630  0.95310  0.53870  1.0000 0.1115644962
H   H47       1.0  0.29190  0.53870  0.95310  1.0000 0.1115644962
H   H48       1.0  0.53870  0.21630  0.95310  1.0000 0.1115644962
H   H49       1.0  0.89220  0.48100  0.65400  1.0000 0.0988025811
H   H50       1.0  0.48100  0.89220  0.97280  1.0000 0.0988025811
H   H51       1.0  0.97280  0.89220  0.65400  1.0000 0.0988025811
H   H52       1.0  0.48100  0.65400  0.89220  1.0000 0.0988025811
H   H53       1.0  0.97280  0.48100  0.89220  1.0000 0.0988025811
H   H54       1.0  0.89220  0.65400  0.97280  1.0000 0.0988025811
H   H55       1.0  0.65400  0.97280  0.89220  1.0000 0.0988025811
H   H56       1.0  0.97280  0.65400  0.48100  1.0000 0.0988025811
H   H57       1.0  0.89220  0.97280  0.48100  1.0000 0.0988025811
H   H58       1.0  0.65400  0.48100  0.97280  1.0000 0.0988025811
H   H59       1.0  0.65400  0.89220  0.48100  1.0000 0.0988025811
H   H60       1.0  0.48100  0.97280  0.65400  1.0000 0.0988025811
H   H61       1.0  0.15400  0.47280  0.98100  1.0000 0.0988025811
H   H62       1.0  0.47280  0.15400  0.39220  1.0000 0.0988025811
H   H63       1.0  0.39220  0.98100  0.47280  1.0000 0.0988025811
H   H64       1.0  0.98100  0.39220  0.15400  1.0000 0.0988025811
H   H65       1.0  0.98100  0.15400  0.47280  1.0000 0.0988025811
H   H66       1.0  0.47280  0.98100  0.15400  1.0000 0.0988025811
H   H67       1.0  0.98100  0.47280  0.39220  1.0000 0.0988025811
H   H68       1.0  0.39220  0.47280  0.15400  1.0000 0.0988025811
H   H69       1.0  0.15400  0.39220  0.47280  1.0000 0.0988025811
H   H70       1.0  0.15400  0.98100  0.39220  1.0000 0.0988025811
H   H71       1.0  0.47280  0.39220  0.98100  1.0000 0.0988025811
H   H72       1.0  0.39220  0.15400  0.98100  1.0000 0.0988025811
H   H73       1.0  0.81700  0.46680  0.75980  1.0000 0.1115644962
H   H74       1.0  0.46680  0.81700  0.95640  1.0000 0.1115644962
H   H75       1.0  0.95640  0.81700  0.75980  1.0000 0.1115644962
H   H76       1.0  0.46680  0.75980  0.81700  1.0000 0.1115644962
H   H77       1.0  0.95640  0.46680  0.81700  1.0000 0.1115644962
H   H78       1.0  0.81700  0.75980  0.95640  1.0000 0.1115644962
H   H79       1.0  0.75980  0.95640  0.81700  1.0000 0.1115644962
H   H80       1.0  0.95640  0.75980  0.46680  1.0000 0.1115644962
H   H81       1.0  0.81700  0.95640  0.46680  1.0000 0.1115644962
H   H82       1.0  0.75980  0.46680  0.95640  1.0000 0.1115644962
H   H83       1.0  0.75980  0.81700  0.46680  1.0000 0.1115644962
H   H84       1.0  0.46680  0.95640  0.75980  1.0000 0.1115644962
H   H85       1.0  0.25980  0.45640  0.96680  1.0000 0.1115644962
H   H86       1.0  0.45640  0.25980  0.31700  1.0000 0.1115644962
H   H87       1.0  0.31700  0.96680  0.45640  1.0000 0.1115644962
H   H88       1.0  0.96680  0.31700  0.25980  1.0000 0.1115644962
H   H89       1.0  0.96680  0.25980  0.45640  1.0000 0.1115644962
H   H90       1.0  0.45640  0.96680  0.25980  1.0000 0.1115644962
H   H91       1.0  0.96680  0.45640  0.31700  1.0000 0.1115644962
H   H92       1.0  0.31700  0.45640  0.25980  1.0000 0.1115644962
H   H93       1.0  0.25980  0.31700  0.45640  1.0000 0.1115644962
H   H94       1.0  0.25980  0.96680  0.31700  1.0000 0.1115644962
H   H95       1.0  0.45640  0.31700  0.96680  1.0000 0.1115644962
H   H96       1.0  0.31700  0.25980  0.96680  1.0000 0.1115644962
H   H97       1.0  0.66240  0.39980  0.77380  1.0000 0.0988025811
H   H98       1.0  0.39980  0.66240  0.16400  1.0000 0.0988025811
H   H99       1.0  0.16400  0.77380  0.39980  1.0000 0.0988025811
H   H100      1.0  0.77380  0.16400  0.66240  1.0000 0.0988025811
H   H101      1.0  0.77380  0.66240  0.39980  1.0000 0.0988025811
H   H102      1.0  0.39980  0.77380  0.66240  1.0000 0.0988025811
H   H103      1.0  0.77380  0.39980  0.16400  1.0000 0.0988025811
H   H104      1.0  0.16400  0.39980  0.66240  1.0000 0.0988025811
H   H105      1.0  0.66240  0.16400  0.39980  1.0000 0.0988025811
H   H106      1.0  0.66240  0.77380  0.16400  1.0000 0.0988025811
H   H107      1.0  0.39980  0.16400  0.77380  1.0000 0.0988025811
H   H108      1.0  0.16400  0.66240  0.77380  1.0000 0.0988025811
H   H109      1.0  0.66400  0.27380  0.16240  1.0000 0.0988025811
H   H110      1.0  0.27380  0.66400  0.89980  1.0000 0.0988025811
H   H111      1.0  0.89980  0.66400  0.16240  1.0000 0.0988025811
H   H112      1.0  0.27380  0.16240  0.66400  1.0000 0.0988025811
H   H113      1.0  0.89980  0.27380  0.66400  1.0000 0.0988025811
H   H114      1.0  0.66400  0.16240  0.89980  1.0000 0.0988025811
H   H115      1.0  0.16240  0.89980  0.66400  1.0000 0.0988025811
H   H116      1.0  0.89980  0.16240  0.27380  1.0000 0.0988025811
H   H117      1.0  0.66400  0.89980  0.27380  1.0000 0.0988025811
H   H118      1.0  0.16240  0.27380  0.89980  1.0000 0.0988025811
H   H119      1.0  0.16240  0.66400  0.27380  1.0000 0.0988025811
H   H120      1.0  0.27380  0.89980  0.16240  1.0000 0.0988025811
H   H121      1.0  0.53370  0.45810  0.79690  1.0000 0.1115644962
H   H122      1.0  0.45810  0.53370  0.21130  1.0000 0.1115644962
H   H123      1.0  0.21130  0.79690  0.45810  1.0000 0.1115644962
H   H124      1.0  0.79690  0.21130  0.53370  1.0000 0.1115644962
H   H125      1.0  0.79690  0.53370  0.45810  1.0000 0.1115644962
H   H126      1.0  0.45810  0.79690  0.53370  1.0000 0.1115644962
H   H127      1.0  0.79690  0.45810  0.21130  1.0000 0.1115644962
H   H128      1.0  0.21130  0.45810  0.53370  1.0000 0.1115644962
H   H129      1.0  0.53370  0.21130  0.45810  1.0000 0.1115644962
H   H130      1.0  0.53370  0.79690  0.21130  1.0000 0.1115644962
H   H131      1.0  0.45810  0.21130  0.79690  1.0000 0.1115644962
H   H132      1.0  0.21130  0.53370  0.79690  1.0000 0.1115644962
H   H133      1.0  0.71130  0.29690  0.03370  1.0000 0.1115644962
H   H134      1.0  0.29690  0.71130  0.95810  1.0000 0.1115644962
H   H135      1.0  0.95810  0.71130  0.03370  1.0000 0.1115644962
H   H136      1.0  0.29690  0.03370  0.71130  1.0000 0.1115644962
H   H137      1.0  0.95810  0.29690  0.71130  1.0000 0.1115644962
H   H138      1.0  0.71130  0.03370  0.95810  1.0000 0.1115644962
H   H139      1.0  0.03370  0.95810  0.71130  1.0000 0.1115644962
H   H140      1.0  0.95810  0.03370  0.29690  1.0000 0.1115644962
H   H141      1.0  0.71130  0.95810  0.29690  1.0000 0.1115644962
H   H142      1.0  0.03370  0.29690  0.95810  1.0000 0.1115644962
H   H143      1.0  0.03370  0.71130  0.29690  1.0000 0.1115644962
H   H144      1.0  0.29690  0.95810  0.03370  1.0000 0.1115644962
H   H145      1.0  0.59600  0.27720  0.76900  1.0000 0.0988025811
H   H146      1.0  0.27720  0.59600  0.35780  1.0000 0.0988025811
H   H147      1.0  0.35780  0.76900  0.27720  1.0000 0.0988025811
H   H148      1.0  0.76900  0.35780  0.59600  1.0000 0.0988025811
H   H149      1.0  0.76900  0.59600  0.27720  1.0000 0.0988025811
H   H150      1.0  0.27720  0.76900  0.59600  1.0000 0.0988025811
H   H151      1.0  0.76900  0.27720  0.35780  1.0000 0.0988025811
H   H152      1.0  0.35780  0.27720  0.59600  1.0000 0.0988025811
H   H153      1.0  0.59600  0.35780  0.27720  1.0000 0.0988025811
H   H154      1.0  0.59600  0.76900  0.35780  1.0000 0.0988025811
H   H155      1.0  0.27720  0.35780  0.76900  1.0000 0.0988025811
H   H156      1.0  0.35780  0.59600  0.76900  1.0000 0.0988025811
H   H157      1.0  0.85780  0.26900  0.09600  1.0000 0.0988025811
H   H158      1.0  0.26900  0.85780  0.77720  1.0000 0.0988025811
H   H159      1.0  0.77720  0.85780  0.09600  1.0000 0.0988025811
H   H160      1.0  0.26900  0.09600  0.85780  1.0000 0.0988025811
H   H161      1.0  0.77720  0.26900  0.85780  1.0000 0.0988025811
H   H162      1.0  0.85780  0.09600  0.77720  1.0000 0.0988025811
H   H163      1.0  0.09600  0.77720  0.85780  1.0000 0.0988025811
H   H164      1.0  0.77720  0.09600  0.26900  1.0000 0.0988025811
H   H165      1.0  0.85780  0.77720  0.26900  1.0000 0.0988025811
H   H166      1.0  0.09600  0.26900  0.77720  1.0000 0.0988025811
H   H167      1.0  0.09600  0.85780  0.26900  1.0000 0.0988025811
H   H168      1.0  0.26900  0.77720  0.09600  1.0000 0.0988025811
H   H169      1.0  0.49020  0.29360  0.78320  1.0000 0.1115644962
H   H170      1.0  0.29360  0.49020  0.43300  1.0000 0.1115644962
H   H171      1.0  0.43300  0.78320  0.29360  1.0000 0.1115644962
H   H172      1.0  0.78320  0.43300  0.49020  1.0000 0.1115644962
H   H173      1.0  0.78320  0.49020  0.29360  1.0000 0.1115644962
H   H174      1.0  0.29360  0.78320  0.49020  1.0000 0.1115644962
H   H175      1.0  0.78320  0.29360  0.43300  1.0000 0.1115644962
H   H176      1.0  0.43300  0.29360  0.49020  1.0000 0.1115644962
H   H177      1.0  0.49020  0.43300  0.29360  1.0000 0.1115644962
H   H178      1.0  0.49020  0.78320  0.43300  1.0000 0.1115644962
H   H179      1.0  0.29360  0.43300  0.78320  1.0000 0.1115644962
H   H180      1.0  0.43300  0.49020  0.78320  1.0000 0.1115644962
H   H181      1.0  0.93300  0.28320  0.99020  1.0000 0.1115644962
H   H182      1.0  0.28320  0.93300  0.79360  1.0000 0.1115644962
H   H183      1.0  0.79360  0.93300  0.99020  1.0000 0.1115644962
H   H184      1.0  0.28320  0.99020  0.93300  1.0000 0.1115644962
H   H185      1.0  0.79360  0.28320  0.93300  1.0000 0.1115644962
H   H186      1.0  0.93300  0.99020  0.79360  1.0000 0.1115644962
H   H187      1.0  0.99020  0.79360  0.93300  1.0000 0.1115644962
H   H188      1.0  0.79360  0.99020  0.28320  1.0000 0.1115644962
H   H189      1.0  0.93300  0.79360  0.28320  1.0000 0.1115644962
H   H190      1.0  0.99020  0.28320  0.79360  1.0000 0.1115644962
H   H191      1.0  0.99020  0.93300  0.28320  1.0000 0.1115644962
H   H192      1.0  0.28320  0.79360  0.99020  1.0000 0.1115644962
C   C1        1.0  0.04020  0.47300  0.61800  1.0000 -0.0668558459
C   C2        1.0  0.47300  0.04020  0.86880  1.0000 -0.0668558459
C   C3        1.0  0.86880  0.04020  0.61800  1.0000 -0.0668558459
C   C4        1.0  0.47300  0.61800  0.04020  1.0000 -0.0668558459
C   C5        1.0  0.86880  0.47300  0.04020  1.0000 -0.0668558459
C   C6        1.0  0.04020  0.61800  0.86880  1.0000 -0.0668558459
C   C7        1.0  0.61800  0.86880  0.04020  1.0000 -0.0668558459
C   C8        1.0  0.86880  0.61800  0.47300  1.0000 -0.0668558459
C   C9        1.0  0.04020  0.86880  0.47300  1.0000 -0.0668558459
C   C10       1.0  0.61800  0.47300  0.86880  1.0000 -0.0668558459
C   C11       1.0  0.61800  0.04020  0.47300  1.0000 -0.0668558459
C   C12       1.0  0.47300  0.86880  0.61800  1.0000 -0.0668558459
C   C13       1.0  0.11800  0.36880  0.97300  1.0000 -0.0668558459
C   C14       1.0  0.36880  0.11800  0.54020  1.0000 -0.0668558459
C   C15       1.0  0.54020  0.97300  0.36880  1.0000 -0.0668558459
C   C16       1.0  0.97300  0.54020  0.11800  1.0000 -0.0668558459
C   C17       1.0  0.97300  0.11800  0.36880  1.0000 -0.0668558459
C   C18       1.0  0.36880  0.97300  0.11800  1.0000 -0.0668558459
C   C19       1.0  0.97300  0.36880  0.54020  1.0000 -0.0668558459
C   C20       1.0  0.54020  0.36880  0.11800  1.0000 -0.0668558459
C   C21       1.0  0.11800  0.54020  0.36880  1.0000 -0.0668558459
C   C22       1.0  0.11800  0.97300  0.54020  1.0000 -0.0668558459
C   C23       1.0  0.36880  0.54020  0.97300  1.0000 -0.0668558459
C   C24       1.0  0.54020  0.11800  0.97300  1.0000 -0.0668558459
C   C25       1.0  0.01400  0.46260  0.68800  1.0000 -0.1353664252
C   C26       1.0  0.46260  0.01400  0.83540  1.0000 -0.1353664252
C   C27       1.0  0.83540  0.01400  0.68800  1.0000 -0.1353664252
C   C28       1.0  0.46260  0.68800  0.01400  1.0000 -0.1353664252
C   C29       1.0  0.83540  0.46260  0.01400  1.0000 -0.1353664252
C   C30       1.0  0.01400  0.68800  0.83540  1.0000 -0.1353664252
C   C31       1.0  0.68800  0.83540  0.01400  1.0000 -0.1353664252
C   C32       1.0  0.83540  0.68800  0.46260  1.0000 -0.1353664252
C   C33       1.0  0.01400  0.83540  0.46260  1.0000 -0.1353664252
C   C34       1.0  0.68800  0.46260  0.83540  1.0000 -0.1353664252
C   C35       1.0  0.68800  0.01400  0.46260  1.0000 -0.1353664252
C   C36       1.0  0.46260  0.83540  0.68800  1.0000 -0.1353664252
C   C37       1.0  0.18800  0.33540  0.96260  1.0000 -0.1353664252
C   C38       1.0  0.33540  0.18800  0.51400  1.0000 -0.1353664252
C   C39       1.0  0.51400  0.96260  0.33540  1.0000 -0.1353664252
C   C40       1.0  0.96260  0.51400  0.18800  1.0000 -0.1353664252
C   C41       1.0  0.96260  0.18800  0.33540  1.0000 -0.1353664252
C   C42       1.0  0.33540  0.96260  0.18800  1.0000 -0.1353664252
C   C43       1.0  0.96260  0.33540  0.51400  1.0000 -0.1353664252
C   C44       1.0  0.51400  0.33540  0.18800  1.0000 -0.1353664252
C   C45       1.0  0.18800  0.51400  0.33540  1.0000 -0.1353664252
C   C46       1.0  0.18800  0.96260  0.51400  1.0000 -0.1353664252
C   C47       1.0  0.33540  0.51400  0.96260  1.0000 -0.1353664252
C   C48       1.0  0.51400  0.18800  0.96260  1.0000 -0.1353664252
C   C49       1.0  0.93564  0.47662  0.65336  1.0000 0.0252843831
C   C50       1.0  0.47662  0.93564  0.93438  1.0000 0.0246056854
C   C51       1.0  0.93438  0.93564  0.65336  1.0000 0.0252843831
C   C52       1.0  0.47662  0.65336  0.93564  1.0000 0.0246056854
C   C53       1.0  0.93438  0.47662  0.93564  1.0000 0.0246056854
C   C54       1.0  0.93564  0.65336  0.93438  1.0000 0.0246056854
C   C55       1.0  0.65336  0.93438  0.93564  1.0000 0.0246056854
C   C56       1.0  0.93438  0.65336  0.47662  1.0000 0.0252843831
C   C57       1.0  0.93564  0.93438  0.47662  1.0000 0.0252843831
C   C58       1.0  0.65336  0.47662  0.93438  1.0000 0.0246056854
C   C59       1.0  0.65336  0.93564  0.47662  1.0000 0.0246056854
C   C60       1.0  0.47662  0.93438  0.65336  1.0000 0.0246056854
C   C61       1.0  0.15336  0.43438  0.97662  1.0000 0.0246056854
C   C62       1.0  0.43438  0.15336  0.43564  1.0000 0.0246056854
C   C63       1.0  0.43564  0.97662  0.43438  1.0000 0.0246056854
C   C64       1.0  0.97662  0.43564  0.15336  1.0000 0.0252843831
C   C65       1.0  0.97662  0.15336  0.43438  1.0000 0.0252843831
C   C66       1.0  0.43438  0.97662  0.15336  1.0000 0.0246056854
C   C67       1.0  0.97662  0.43438  0.43564  1.0000 0.0252843831
C   C68       1.0  0.43564  0.43438  0.15336  1.0000 0.0246056854
C   C69       1.0  0.15336  0.43564  0.43438  1.0000 0.0246056854
C   C70       1.0  0.15336  0.97662  0.43564  1.0000 0.0246056854
C   C71       1.0  0.43438  0.43564  0.97662  1.0000 0.0246056854
C   C72       1.0  0.43564  0.15336  0.97662  1.0000 0.0246056854
C   C73       1.0  0.89430  0.46730  0.77830  1.0000 0.1852146393
C   C74       1.0  0.46730  0.89430  0.86010  1.0000 0.1852146393
C   C75       1.0  0.86010  0.89430  0.77830  1.0000 0.1852146393
C   C76       1.0  0.46730  0.77830  0.89430  1.0000 0.1852146393
C   C77       1.0  0.86010  0.46730  0.89430  1.0000 0.1852146393
C   C78       1.0  0.89430  0.77830  0.86010  1.0000 0.1852146393
C   C79       1.0  0.77830  0.86010  0.89430  1.0000 0.1852146393
C   C80       1.0  0.86010  0.77830  0.46730  1.0000 0.1852146393
C   C81       1.0  0.89430  0.86010  0.46730  1.0000 0.1852146393
C   C82       1.0  0.77830  0.46730  0.86010  1.0000 0.1852146393
C   C83       1.0  0.77830  0.89430  0.46730  1.0000 0.1852146393
C   C84       1.0  0.46730  0.86010  0.77830  1.0000 0.1852146393
C   C85       1.0  0.27830  0.36010  0.96730  1.0000 0.1852146393
C   C86       1.0  0.36010  0.27830  0.39430  1.0000 0.1852146393
C   C87       1.0  0.39430  0.96730  0.36010  1.0000 0.1852146393
C   C88       1.0  0.96730  0.39430  0.27830  1.0000 0.1852146393
C   C89       1.0  0.96730  0.27830  0.36010  1.0000 0.1852146393
C   C90       1.0  0.36010  0.96730  0.27830  1.0000 0.1852146393
C   C91       1.0  0.96730  0.36010  0.39430  1.0000 0.1852146393
C   C92       1.0  0.39430  0.36010  0.27830  1.0000 0.1852146393
C   C93       1.0  0.27830  0.39430  0.36010  1.0000 0.1852146393
C   C94       1.0  0.27830  0.96730  0.39430  1.0000 0.1852146393
C   C95       1.0  0.36010  0.39430  0.96730  1.0000 0.1852146393
C   C96       1.0  0.39430  0.27830  0.96730  1.0000 0.1852146393
C   C97       1.0  0.82797  0.46703  0.79423  1.0000 -0.3076759804
C   C98       1.0  0.46703  0.82797  0.91077  1.0000 -0.3076759804
C   C99       1.0  0.91077  0.82797  0.79423  1.0000 -0.3076759804
C   C100      1.0  0.46703  0.79423  0.82797  1.0000 -0.3076759804
C   C101      1.0  0.91077  0.46703  0.82797  1.0000 -0.3076759804
C   C102      1.0  0.82797  0.79423  0.91077  1.0000 -0.3076759804
C   C103      1.0  0.79423  0.91077  0.82797  1.0000 -0.3076759804
C   C104      1.0  0.91077  0.79423  0.46703  1.0000 -0.3076759804
C   C105      1.0  0.82797  0.91077  0.46703  1.0000 -0.3076759804
C   C106      1.0  0.79423  0.46703  0.91077  1.0000 -0.3076759804
C   C107      1.0  0.79423  0.82797  0.46703  1.0000 -0.3076759804
C   C108      1.0  0.46703  0.91077  0.79423  1.0000 -0.3076759804
C   C109      1.0  0.29423  0.41077  0.96703  1.0000 -0.3076759804
C   C110      1.0  0.41077  0.29423  0.32797  1.0000 -0.3076759804
C   C111      1.0  0.32797  0.96703  0.41077  1.0000 -0.3076759804
C   C112      1.0  0.96703  0.32797  0.29423  1.0000 -0.3076759804
C   C113      1.0  0.96703  0.29423  0.41077  1.0000 -0.3076759804
C   C114      1.0  0.41077  0.96703  0.29423  1.0000 -0.3076759804
C   C115      1.0  0.96703  0.41077  0.32797  1.0000 -0.3076759804
C   C116      1.0  0.32797  0.41077  0.29423  1.0000 -0.3076759804
C   C117      1.0  0.29423  0.32797  0.41077  1.0000 -0.3076759804
C   C118      1.0  0.29423  0.96703  0.32797  1.0000 -0.3076759804
C   C119      1.0  0.41077  0.32797  0.96703  1.0000 -0.3076759804
C   C120      1.0  0.32797  0.29423  0.96703  1.0000 -0.3076759804
C   C121      1.0  0.63200  0.38120  0.77700  1.0000 -0.0668558459
C   C122      1.0  0.38120  0.63200  0.20980  1.0000 -0.0668558459
C   C123      1.0  0.20980  0.77700  0.38120  1.0000 -0.0668558459
C   C124      1.0  0.77700  0.20980  0.63200  1.0000 -0.0668558459
C   C125      1.0  0.77700  0.63200  0.38120  1.0000 -0.0668558459
C   C126      1.0  0.38120  0.77700  0.63200  1.0000 -0.0668558459
C   C127      1.0  0.77700  0.38120  0.20980  1.0000 -0.0668558459
C   C128      1.0  0.20980  0.38120  0.63200  1.0000 -0.0668558459
C   C129      1.0  0.63200  0.20980  0.38120  1.0000 -0.0668558459
C   C130      1.0  0.63200  0.77700  0.20980  1.0000 -0.0668558459
C   C131      1.0  0.38120  0.20980  0.77700  1.0000 -0.0668558459
C   C132      1.0  0.20980  0.63200  0.77700  1.0000 -0.0668558459
C   C133      1.0  0.70980  0.27700  0.13200  1.0000 -0.0668558459
C   C134      1.0  0.27700  0.70980  0.88120  1.0000 -0.0668558459
C   C135      1.0  0.88120  0.70980  0.13200  1.0000 -0.0668558459
C   C136      1.0  0.27700  0.13200  0.70980  1.0000 -0.0668558459
C   C137      1.0  0.88120  0.27700  0.70980  1.0000 -0.0668558459
C   C138      1.0  0.70980  0.13200  0.88120  1.0000 -0.0668558459
C   C139      1.0  0.13200  0.88120  0.70980  1.0000 -0.0668558459
C   C140      1.0  0.88120  0.13200  0.27700  1.0000 -0.0668558459
C   C141      1.0  0.70980  0.88120  0.27700  1.0000 -0.0668558459
C   C142      1.0  0.13200  0.27700  0.88120  1.0000 -0.0668558459
C   C143      1.0  0.13200  0.70980  0.27700  1.0000 -0.0668558459
C   C144      1.0  0.27700  0.88120  0.13200  1.0000 -0.0668558459
C   C145      1.0  0.56200  0.41460  0.78740  1.0000 -0.1353664252
C   C146      1.0  0.41460  0.56200  0.23600  1.0000 -0.1353664252
C   C147      1.0  0.23600  0.78740  0.41460  1.0000 -0.1353664252
C   C148      1.0  0.78740  0.23600  0.56200  1.0000 -0.1353664252
C   C149      1.0  0.78740  0.56200  0.41460  1.0000 -0.1353664252
C   C150      1.0  0.41460  0.78740  0.56200  1.0000 -0.1353664252
C   C151      1.0  0.78740  0.41460  0.23600  1.0000 -0.1353664252
C   C152      1.0  0.23600  0.41460  0.56200  1.0000 -0.1353664252
C   C153      1.0  0.56200  0.23600  0.41460  1.0000 -0.1353664252
C   C154      1.0  0.56200  0.78740  0.23600  1.0000 -0.1353664252
C   C155      1.0  0.41460  0.23600  0.78740  1.0000 -0.1353664252
C   C156      1.0  0.23600  0.56200  0.78740  1.0000 -0.1353664252
C   C157      1.0  0.73600  0.28740  0.06200  1.0000 -0.1353664252
C   C158      1.0  0.28740  0.73600  0.91460  1.0000 -0.1353664252
C   C159      1.0  0.91460  0.73600  0.06200  1.0000 -0.1353664252
C   C160      1.0  0.28740  0.06200  0.73600  1.0000 -0.1353664252
C   C161      1.0  0.91460  0.28740  0.73600  1.0000 -0.1353664252
C   C162      1.0  0.73600  0.06200  0.91460  1.0000 -0.1353664252
C   C163      1.0  0.06200  0.91460  0.73600  1.0000 -0.1353664252
C   C164      1.0  0.91460  0.06200  0.28740  1.0000 -0.1353664252
C   C165      1.0  0.73600  0.91460  0.28740  1.0000 -0.1353664252
C   C166      1.0  0.06200  0.28740  0.91460  1.0000 -0.1353664252
C   C167      1.0  0.06200  0.73600  0.28740  1.0000 -0.1353664252
C   C168      1.0  0.28740  0.91460  0.06200  1.0000 -0.1353664252
C   C169      1.0  0.59664  0.31562  0.77338  1.0000 0.0246056854
C   C170      1.0  0.31562  0.59664  0.31436  1.0000 0.0246056854
C   C171      1.0  0.31436  0.77338  0.31562  1.0000 0.0246056854
C   C172      1.0  0.77338  0.31436  0.59664  1.0000 0.0252843831
C   C173      1.0  0.77338  0.59664  0.31562  1.0000 0.0246056854
C   C174      1.0  0.31562  0.77338  0.59664  1.0000 0.0246056854
C   C175      1.0  0.77338  0.31562  0.31436  1.0000 0.0246056854
C   C176      1.0  0.31436  0.31562  0.59664  1.0000 0.0246056854
C   C177      1.0  0.59664  0.31436  0.31562  1.0000 0.0246056854
C   C178      1.0  0.59664  0.77338  0.31436  1.0000 0.0246056854
C   C179      1.0  0.31562  0.31436  0.77338  1.0000 0.0246056854
C   C180      1.0  0.31436  0.59664  0.77338  1.0000 0.0246056854
C   C181      1.0  0.81436  0.27338  0.09664  1.0000 0.0252843831
C   C182      1.0  0.27338  0.81436  0.81562  1.0000 0.0246056854
C   C183      1.0  0.81562  0.81436  0.09664  1.0000 0.0246056854
C   C184      1.0  0.27338  0.09664  0.81436  1.0000 0.0246056854
C   C185      1.0  0.81562  0.27338  0.81436  1.0000 0.0252843831
C   C186      1.0  0.81436  0.09664  0.81562  1.0000 0.0252843831
C   C187      1.0  0.09664  0.81562  0.81436  1.0000 0.0246056854
C   C188      1.0  0.81562  0.09664  0.27338  1.0000 0.0252843831
C   C189      1.0  0.81436  0.81562  0.27338  1.0000 0.0252843831
C   C190      1.0  0.09664  0.27338  0.81562  1.0000 0.0246056854
C   C191      1.0  0.09664  0.81436  0.27338  1.0000 0.0246056854
C   C192      1.0  0.27338  0.81562  0.09664  1.0000 0.0246056854
C   C193      1.0  0.47170  0.38990  0.78270  1.0000 0.1852146393
C   C194      1.0  0.38990  0.47170  0.35570  1.0000 0.1852146393
C   C195      1.0  0.35570  0.78270  0.38990  1.0000 0.1852146393
C   C196      1.0  0.78270  0.35570  0.47170  1.0000 0.1852146393
C   C197      1.0  0.78270  0.47170  0.38990  1.0000 0.1852146393
C   C198      1.0  0.38990  0.78270  0.47170  1.0000 0.1852146393
C   C199      1.0  0.78270  0.38990  0.35570  1.0000 0.1852146393
C   C200      1.0  0.35570  0.38990  0.47170  1.0000 0.1852146393
C   C201      1.0  0.47170  0.35570  0.38990  1.0000 0.1852146393
C   C202      1.0  0.47170  0.78270  0.35570  1.0000 0.1852146393
C   C203      1.0  0.38990  0.35570  0.78270  1.0000 0.1852146393
C   C204      1.0  0.35570  0.47170  0.78270  1.0000 0.1852146393
C   C205      1.0  0.85570  0.28270  0.97170  1.0000 0.1852146393
C   C206      1.0  0.28270  0.85570  0.88990  1.0000 0.1852146393
C   C207      1.0  0.88990  0.85570  0.97170  1.0000 0.1852146393
C   C208      1.0  0.28270  0.97170  0.85570  1.0000 0.1852146393
C   C209      1.0  0.88990  0.28270  0.85570  1.0000 0.1852146393
C   C210      1.0  0.85570  0.97170  0.88990  1.0000 0.1852146393
C   C211      1.0  0.97170  0.88990  0.85570  1.0000 0.1852146393
C   C212      1.0  0.88990  0.97170  0.28270  1.0000 0.1852146393
C   C213      1.0  0.85570  0.88990  0.28270  1.0000 0.1852146393
C   C214      1.0  0.97170  0.28270  0.88990  1.0000 0.1852146393
C   C215      1.0  0.97170  0.85570  0.28270  1.0000 0.1852146393
C   C216      1.0  0.28270  0.88990  0.97170  1.0000 0.1852146393
C   C217      1.0  0.45577  0.33923  0.78297  1.0000 -0.3076759804
C   C218      1.0  0.33923  0.45577  0.42203  1.0000 -0.3076759804
C   C219      1.0  0.42203  0.78297  0.33923  1.0000 -0.3076759804
C   C220      1.0  0.78297  0.42203  0.45577  1.0000 -0.3076759804
C   C221      1.0  0.78297  0.45577  0.33923  1.0000 -0.3076759804
C   C222      1.0  0.33923  0.78297  0.45577  1.0000 -0.3076759804
C   C223      1.0  0.78297  0.33923  0.42203  1.0000 -0.3076759804
C   C224      1.0  0.42203  0.33923  0.45577  1.0000 -0.3076759804
C   C225      1.0  0.45577  0.42203  0.33923  1.0000 -0.3076759804
C   C226      1.0  0.45577  0.78297  0.42203  1.0000 -0.3076759804
C   C227      1.0  0.33923  0.42203  0.78297  1.0000 -0.3076759804
C   C228      1.0  0.42203  0.45577  0.78297  1.0000 -0.3076759804
C   C229      1.0  0.92203  0.28297  0.95577  1.0000 -0.3076759804
C   C230      1.0  0.28297  0.92203  0.83923  1.0000 -0.3076759804
C   C231      1.0  0.83923  0.92203  0.95577  1.0000 -0.3076759804
C   C232      1.0  0.28297  0.95577  0.92203  1.0000 -0.3076759804
C   C233      1.0  0.83923  0.28297  0.92203  1.0000 -0.3076759804
C   C234      1.0  0.92203  0.95577  0.83923  1.0000 -0.3076759804
C   C235      1.0  0.95577  0.83923  0.92203  1.0000 -0.3076759804
C   C236      1.0  0.83923  0.95577  0.28297  1.0000 -0.3076759804
C   C237      1.0  0.92203  0.83923  0.28297  1.0000 -0.3076759804
C   C238      1.0  0.95577  0.28297  0.83923  1.0000 -0.3076759804
C   C239      1.0  0.95577  0.92203  0.28297  1.0000 -0.3076759804
C   C240      1.0  0.28297  0.83923  0.95577  1.0000 -0.3076759804
N   N1        1.0  0.99218  0.47842  0.59744  1.0000 -0.2741709069
N   N2        1.0  0.47842  0.99218  0.93196  1.0000 -0.2741709069
N   N3        1.0  0.93196  0.99218  0.59744  1.0000 -0.2741709069
N   N4        1.0  0.47842  0.59744  0.99218  1.0000 -0.2741709069
N   N5        1.0  0.93196  0.47842  0.99218  1.0000 -0.2741709069
N   N6        1.0  0.99218  0.59744  0.93196  1.0000 -0.2741709069
N   N7        1.0  0.59744  0.93196  0.99218  1.0000 -0.2741709069
N   N8        1.0  0.93196  0.59744  0.47842  1.0000 -0.2741709069
N   N9        1.0  0.99218  0.93196  0.47842  1.0000 -0.2741709069
N   N10       1.0  0.59744  0.47842  0.93196  1.0000 -0.2741709069
N   N11       1.0  0.59744  0.99218  0.47842  1.0000 -0.2741709069
N   N12       1.0  0.47842  0.93196  0.59744  1.0000 -0.2741709069
N   N13       1.0  0.09744  0.43196  0.97842  1.0000 -0.2741709069
N   N14       1.0  0.43196  0.09744  0.49218  1.0000 -0.2741709069
N   N15       1.0  0.49218  0.97842  0.43196  1.0000 -0.2741709069
N   N16       1.0  0.97842  0.49218  0.09744  1.0000 -0.2741709069
N   N17       1.0  0.97842  0.09744  0.43196  1.0000 -0.2741709069
N   N18       1.0  0.43196  0.97842  0.09744  1.0000 -0.2741709069
N   N19       1.0  0.97842  0.43196  0.49218  1.0000 -0.2741709069
N   N20       1.0  0.49218  0.43196  0.09744  1.0000 -0.2741709069
N   N21       1.0  0.09744  0.49218  0.43196  1.0000 -0.2741709069
N   N22       1.0  0.09744  0.97842  0.49218  1.0000 -0.2741709069
N   N23       1.0  0.43196  0.49218  0.97842  1.0000 -0.2741709069
N   N24       1.0  0.49218  0.09744  0.97842  1.0000 -0.2741709069
N   N25       1.0  0.94578  0.46802  0.70990  1.0000 0.0021270682
N   N26       1.0  0.46802  0.94578  0.87630  1.0000 0.0021270682
N   N27       1.0  0.87630  0.94578  0.70990  1.0000 0.0021270682
N   N28       1.0  0.46802  0.70990  0.94578  1.0000 0.0021270682
N   N29       1.0  0.87630  0.46802  0.94578  1.0000 0.0021270682
N   N30       1.0  0.94578  0.70990  0.87630  1.0000 0.0021270682
N   N31       1.0  0.70990  0.87630  0.94578  1.0000 0.0021270682
N   N32       1.0  0.87630  0.70990  0.46802  1.0000 0.0021270682
N   N33       1.0  0.94578  0.87630  0.46802  1.0000 0.0021270682
N   N34       1.0  0.70990  0.46802  0.87630  1.0000 0.0021270682
N   N35       1.0  0.70990  0.94578  0.46802  1.0000 0.0021270682
N   N36       1.0  0.46802  0.87630  0.70990  1.0000 0.0021270682
N   N37       1.0  0.20990  0.37630  0.96802  1.0000 0.0021270682
N   N38       1.0  0.37630  0.20990  0.44578  1.0000 0.0021270682
N   N39       1.0  0.44578  0.96802  0.37630  1.0000 0.0021270682
N   N40       1.0  0.96802  0.44578  0.20990  1.0000 0.0021270682
N   N41       1.0  0.96802  0.20990  0.37630  1.0000 0.0021270682
N   N42       1.0  0.37630  0.96802  0.20990  1.0000 0.0021270682
N   N43       1.0  0.96802  0.37630  0.44578  1.0000 0.0021270682
N   N44       1.0  0.44578  0.37630  0.20990  1.0000 0.0021270682
N   N45       1.0  0.20990  0.44578  0.37630  1.0000 0.0021270682
N   N46       1.0  0.20990  0.96802  0.44578  1.0000 0.0021270682
N   N47       1.0  0.37630  0.44578  0.96802  1.0000 0.0021270682
N   N48       1.0  0.44578  0.20990  0.96802  1.0000 0.0021270682
N   N49       1.0  0.65256  0.31804  0.77158  1.0000 -0.2741709069
N   N50       1.0  0.31804  0.65256  0.25782  1.0000 -0.2741709069
N   N51       1.0  0.25782  0.77158  0.31804  1.0000 -0.2741709069
N   N52       1.0  0.77158  0.25782  0.65256  1.0000 -0.2741709069
N   N53       1.0  0.77158  0.65256  0.31804  1.0000 -0.2741709069
N   N54       1.0  0.31804  0.77158  0.65256  1.0000 -0.2741709069
N   N55       1.0  0.77158  0.31804  0.25782  1.0000 -0.2741709069
N   N56       1.0  0.25782  0.31804  0.65256  1.0000 -0.2741709069
N   N57       1.0  0.65256  0.25782  0.31804  1.0000 -0.2741709069
N   N58       1.0  0.65256  0.77158  0.25782  1.0000 -0.2741709069
N   N59       1.0  0.31804  0.25782  0.77158  1.0000 -0.2741709069
N   N60       1.0  0.25782  0.65256  0.77158  1.0000 -0.2741709069
N   N61       1.0  0.75782  0.27158  0.15256  1.0000 -0.2741709069
N   N62       1.0  0.27158  0.75782  0.81804  1.0000 -0.2741709069
N   N63       1.0  0.81804  0.75782  0.15256  1.0000 -0.2741709069
N   N64       1.0  0.27158  0.15256  0.75782  1.0000 -0.2741709069
N   N65       1.0  0.81804  0.27158  0.75782  1.0000 -0.2741709069
N   N66       1.0  0.75782  0.15256  0.81804  1.0000 -0.2741709069
N   N67       1.0  0.15256  0.81804  0.75782  1.0000 -0.2741709069
N   N68       1.0  0.81804  0.15256  0.27158  1.0000 -0.2741709069
N   N69       1.0  0.75782  0.81804  0.27158  1.0000 -0.2741709069
N   N70       1.0  0.15256  0.27158  0.81804  1.0000 -0.2741709069
N   N71       1.0  0.15256  0.75782  0.27158  1.0000 -0.2741709069
N   N72       1.0  0.27158  0.81804  0.15256  1.0000 -0.2741709069
N   N73       1.0  0.54010  0.37370  0.78198  1.0000 0.0021270682
N   N74       1.0  0.37370  0.54010  0.30422  1.0000 0.0021270682
N   N75       1.0  0.30422  0.78198  0.37370  1.0000 0.0021270682
N   N76       1.0  0.78198  0.30422  0.54010  1.0000 0.0021270682
N   N77       1.0  0.78198  0.54010  0.37370  1.0000 0.0021270682
N   N78       1.0  0.37370  0.78198  0.54010  1.0000 0.0021270682
N   N79       1.0  0.78198  0.37370  0.30422  1.0000 0.0021270682
N   N80       1.0  0.30422  0.37370  0.54010  1.0000 0.0021270682
N   N81       1.0  0.54010  0.30422  0.37370  1.0000 0.0021270682
N   N82       1.0  0.54010  0.78198  0.30422  1.0000 0.0021270682
N   N83       1.0  0.37370  0.30422  0.78198  1.0000 0.0021270682
N   N84       1.0  0.30422  0.54010  0.78198  1.0000 0.0021270682
N   N85       1.0  0.80422  0.28198  0.04010  1.0000 0.0021270682
N   N86       1.0  0.28198  0.80422  0.87370  1.0000 0.0021270682
N   N87       1.0  0.87370  0.80422  0.04010  1.0000 0.0021270682
N   N88       1.0  0.28198  0.04010  0.80422  1.0000 0.0021270682
N   N89       1.0  0.87370  0.28198  0.80422  1.0000 0.0021270682
N   N90       1.0  0.80422  0.04010  0.87370  1.0000 0.0021270682
N   N91       1.0  0.04010  0.87370  0.80422  1.0000 0.0021270682
N   N92       1.0  0.87370  0.04010  0.28198  1.0000 0.0021270682
N   N93       1.0  0.80422  0.87370  0.28198  1.0000 0.0021270682
N   N94       1.0  0.04010  0.28198  0.87370  1.0000 0.0021270682
N   N95       1.0  0.04010  0.80422  0.28198  1.0000 0.0021270682
N   N96       1.0  0.28198  0.87370  0.04010  1.0000 0.0021270682
