# DDEC6 charges by PACMAN v1.1 (https://github.com/mtap-research/PACMAN-charge/)
data_2013[Ho][nan]3[FSR]1
_chemical_formula_sum              "Ho4 H72 C90 S6 O54"
_cell_length_a       9.1671
_cell_length_b       15.52
_cell_length_c       22.199
_cell_angle_alpha    102.89
_cell_angle_beta     101.79
_cell_angle_gamma    104.14

_symmetry_space_group_name_H-M    "P 1"
_symmetry_Int_Tables_number       1

loop_
  _symmetry_equiv_pos_as_xyz
  'x, y, z'

loop_
  _atom_site_type_symbol
  _atom_site_label
  _atom_site_symmetry_multiplicity
  _atom_site_fract_x
  _atom_site_fract_y
  _atom_site_fract_z
  _atom_site_occupancy
  _atom_site_charge
Ho  Ho1       1.0  0.51675  0.86169  0.80353  1.0000 2.0813647899
Ho  Ho2       1.0  0.48325  0.13831  0.19647  1.0000 2.0813647899
Ho  Ho3       1.0  0.02993  0.91146  0.85606  1.0000 2.1359675321
Ho  Ho4       1.0  0.97007  0.08854  0.14394  1.0000 2.1331258211
H   H1        1.0  0.86750  0.83490  0.66560  1.0000 0.1218499005
H   H2        1.0  0.13250  0.16510  0.33440  1.0000 0.1218499005
H   H3        1.0  0.74270  0.83400  0.56530  1.0000 0.1292281034
H   H4        1.0  0.25730  0.16600  0.43470  1.0000 0.1292281034
H   H5        1.0  0.28540  0.91930  0.63040  1.0000 0.1292281034
H   H6        1.0  0.71460  0.08070  0.36960  1.0000 0.1292281034
H   H7        1.0  0.66730  0.78790  0.45320  1.0000 0.1292281034
H   H8        1.0  0.33270  0.21210  0.54680  1.0000 0.1292281034
H   H9        1.0  0.66620  0.89050  0.47800  1.0000 0.1137686948
H   H10       1.0  0.33380  0.10950  0.52200  1.0000 0.1137686948
H   H11       1.0  0.67820  0.85270  0.40820  1.0000 0.1218499005
H   H12       1.0  0.32180  0.14730  0.59180  1.0000 0.1218499005
H   H13       1.0  0.98520  0.84970  0.36850  1.0000 0.1292281034
H   H14       1.0  0.01480  0.15030  0.63150  1.0000 0.1292281034
H   H15       1.0  0.96980  0.91590  0.28400  1.0000 0.1292281034
H   H16       1.0  0.03020  0.08410  0.71600  1.0000 0.1292281034
H   H17       1.0  0.43580  0.00800  0.32880  1.0000 0.1218499005
H   H18       1.0  0.56420  0.99200  0.67120  1.0000 0.1218499005
H   H19       1.0  0.44920  0.95050  0.41810  1.0000 0.1378894218
H   H20       1.0  0.55080  0.04950  0.58190  1.0000 0.1378894218
H   H21       1.0  0.00250  0.66470  0.90670  1.0000 0.1218499005
H   H22       1.0  0.99750  0.33530  0.09330  1.0000 0.1218499005
H   H23       1.0  0.94610  0.52540  0.92890  1.0000 0.1292281034
H   H24       1.0  0.05390  0.47460  0.07110  1.0000 0.1292281034
H   H25       1.0  0.27640  0.46420  0.84750  1.0000 0.1292281034
H   H26       1.0  0.72360  0.53580  0.15250  1.0000 0.1292281034
H   H27       1.0  0.34340  0.61020  0.83430  1.0000 0.1378894218
H   H28       1.0  0.65660  0.38980  0.16570  1.0000 0.1378894218
H   H29       1.0  0.11550  0.26120  0.02070  1.0000 0.1493809192
H   H30       1.0  0.88450  0.73880  0.97930  1.0000 0.1493809192
H   H31       1.0  0.50300  0.18650  0.02830  1.0000 0.1292281034
H   H32       1.0  0.49700  0.81350  0.97170  1.0000 0.1292281034
H   H33       1.0  0.59270  0.29020  0.97580  1.0000 0.1292281034
H   H34       1.0  0.40730  0.70980  0.02420  1.0000 0.1292281034
H   H35       1.0  0.67360  0.46660  0.96050  1.0000 0.1218499005
H   H36       1.0  0.32640  0.53340  0.03950  1.0000 0.1218499005
H   H37       1.0  0.62460  0.36570  0.91430  1.0000 0.1218499005
H   H38       1.0  0.37540  0.63430  0.08570  1.0000 0.1218499005
H   H39       1.0  0.59420  0.44650  0.88710  1.0000 0.1292281034
H   H40       1.0  0.40580  0.55350  0.11290  1.0000 0.1292281034
H   H41       1.0  0.59580  0.56430  0.80460  1.0000 0.1493809192
H   H42       1.0  0.40420  0.43570  0.19540  1.0000 0.1493809192
H   H43       1.0  0.99680  0.56280  0.70600  1.0000 0.1292281034
H   H44       1.0  0.00320  0.43720  0.29400  1.0000 0.1292281034
H   H45       1.0  0.92750  0.69620  0.73360  1.0000 0.1292281034
H   H46       1.0  0.07250  0.30380  0.26640  1.0000 0.1292281034
H   H47       1.0  0.96130  0.41060  0.65410  1.0000 0.1218499005
H   H48       1.0  0.03870  0.58940  0.34590  1.0000 0.1218499005
H   H49       1.0  0.08880  0.43880  0.71990  1.0000 0.1137686948
H   H50       1.0  0.91120  0.56120  0.28010  1.0000 0.1137686948
H   H51       1.0  0.99800  0.33390  0.68480  1.0000 0.1292281034
H   H52       1.0  0.00200  0.66610  0.31520  1.0000 0.1292281034
H   H53       1.0  0.25660  0.26930  0.78960  1.0000 0.1292281034
H   H54       1.0  0.74340  0.73070  0.21040  1.0000 0.1292281034
H   H55       1.0  0.22180  0.14930  0.83860  1.0000 0.1292281034
H   H56       1.0  0.77820  0.85070  0.16140  1.0000 0.1292281034
H   H57       1.0  0.59540  0.09270  0.79500  1.0000 0.1218499005
H   H58       1.0  0.40460  0.90730  0.20500  1.0000 0.1218499005
H   H59       1.0  0.63580  0.21320  0.74640  1.0000 0.1292281034
H   H60       1.0  0.36420  0.78680  0.25360  1.0000 0.1292281034
H   H61       1.0  0.52500  0.74660  0.69750  1.0000 0.3747790101
H   H62       1.0  0.47500  0.25340  0.30250  1.0000 0.3747790101
H   H63       1.0  0.44610  0.80950  0.67880  1.0000 0.3798368864
H   H64       1.0  0.55390  0.19050  0.32120  1.0000 0.3798368864
H   H65       1.0  0.02000  0.07050  0.96330  1.0000 0.3798368864
H   H66       1.0  0.98000  0.92950  0.03670  1.0000 0.3798368864
H   H67       1.0  0.96000  0.06620  0.89690  1.0000 0.3942937645
H   H68       1.0  0.04000  0.93380  0.10310  1.0000 0.3942937645
H   H69       1.0  0.19520  0.99920  0.99950  1.0000 0.3798368864
H   H70       1.0  0.80480  0.00080  0.00050  1.0000 0.3798368864
H   H71       1.0  0.24970  0.91770  0.98220  1.0000 0.4139028284
H   H72       1.0  0.75030  0.08230  0.01780  1.0000 0.4139028284
C   C1        1.0  0.17090  0.87620  0.72520  1.0000 0.6496099505
C   C2        1.0  0.82910  0.12380  0.27480  1.0000 0.6496099505
C   C3        1.0  0.09030  0.87560  0.65950  1.0000 -0.0324352763
C   C4        1.0  0.90970  0.12440  0.34050  1.0000 -0.0324352763
C   C5        1.0  0.92650  0.85130  0.63810  1.0000 -0.0917174668
C   C6        1.0  0.07350  0.14870  0.36190  1.0000 -0.0917174668
C   C7        1.0  0.85140  0.85100  0.57810  1.0000 -0.2194577345
C   C8        1.0  0.14860  0.14900  0.42190  1.0000 -0.2194577345
C   C9        1.0  0.93750  0.87620  0.53560  1.0000 0.1715285721
C   C10       1.0  0.06250  0.12380  0.46440  1.0000 0.1715285721
C   C11       1.0  0.09520  0.89910  0.55610  1.0000 0.1378894218
C   C12       1.0  0.90480  0.10090  0.44390  1.0000 0.1378894218
C   C13       1.0  0.17660  0.90120  0.61770  1.0000 -0.2087376422
C   C14       1.0  0.82340  0.09880  0.38230  1.0000 -0.2087376422
C   C15       1.0  0.70790  0.85040  0.45170  1.0000 -0.2194577345
C   C16       1.0  0.29210  0.14960  0.54830  1.0000 -0.2194577345
C   C17       1.0  0.21960  0.89720  0.40130  1.0000 -0.0811317798
C   C18       1.0  0.78040  0.10280  0.59870  1.0000 -0.0811317798
C   C19       1.0  0.07560  0.88360  0.36140  1.0000 -0.0811317798
C   C20       1.0  0.92440  0.11640  0.63860  1.0000 -0.0811317798
C   C21       1.0  0.06720  0.92140  0.30980  1.0000 -0.0811317798
C   C22       1.0  0.93280  0.07860  0.69020  1.0000 -0.0811317798
C   C23       1.0  0.19720  0.96540  0.29680  1.0000 -0.0189489676
C   C24       1.0  0.80280  0.03460  0.70320  1.0000 -0.0189489676
C   C25       1.0  0.34490  0.97740  0.33730  1.0000 -0.0917174668
C   C26       1.0  0.65510  0.02260  0.66270  1.0000 -0.0917174668
C   C27       1.0  0.35270  0.94250  0.39050  1.0000 -0.0811317798
C   C28       1.0  0.64730  0.05750  0.60950  1.0000 -0.0811317798
C   C29       1.0  0.19140  0.00580  0.23980  1.0000 0.6400347742
C   C30       1.0  0.80860  0.99420  0.76020  1.0000 0.6400347742
C   C31       1.0  0.21280  0.74620  0.85580  1.0000 0.6496099505
C   C32       1.0  0.78720  0.25380  0.14420  1.0000 0.6496099505
C   C33       1.0  0.18130  0.65360  0.86890  1.0000 -0.0324352763
C   C34       1.0  0.81870  0.34640  0.13110  1.0000 -0.0324352763
C   C35       1.0  0.06010  0.62470  0.89620  1.0000 -0.0994540733
C   C36       1.0  0.93990  0.37530  0.10380  1.0000 -0.0994540733
C   C37       1.0  0.02240  0.54090  0.90800  1.0000 -0.0994540733
C   C38       1.0  0.97760  0.45910  0.09200  1.0000 -0.0994540733
C   C39       1.0  0.10250  0.47880  0.88740  1.0000 -0.0994540733
C   C40       1.0  0.89750  0.52120  0.11260  1.0000 -0.0994540733
C   C41       1.0  0.22200  0.50520  0.86020  1.0000 -0.0917174668
C   C42       1.0  0.77800  0.49480  0.13980  1.0000 -0.0917174668
C   C43       1.0  0.26100  0.59250  0.85190  1.0000 -0.0917174668
C   C44       1.0  0.73900  0.40750  0.14810  1.0000 -0.0917174668
C   C45       1.0  0.26180  0.32950  0.98020  1.0000 0.1493809192
C   C46       1.0  0.73820  0.67050  0.01980  1.0000 0.1493809192
C   C47       1.0  0.21190  0.26780  0.01180  1.0000 -0.2087376422
C   C48       1.0  0.78810  0.73220  0.98820  1.0000 -0.2087376422
C   C49       1.0  0.30360  0.21450  0.03110  1.0000 -0.0376413819
C   C50       1.0  0.69640  0.78550  0.96890  1.0000 -0.0376413819
C   C51       1.0  0.44300  0.22350  0.01650  1.0000 -0.0705709216
C   C52       1.0  0.55700  0.77650  0.98350  1.0000 -0.0705709216
C   C53       1.0  0.49700  0.28560  0.98490  1.0000 -0.2261820939
C   C54       1.0  0.50300  0.71440  0.01510  1.0000 -0.2261820939
C   C55       1.0  0.40870  0.34250  0.96610  1.0000 0.2005376908
C   C56       1.0  0.59130  0.65750  0.03390  1.0000 0.2005376908
C   C57       1.0  0.24250  0.15280  0.06920  1.0000 0.628418723
C   C58       1.0  0.75750  0.84720  0.93080  1.0000 0.628418723
C   C59       1.0  0.59700  0.42220  0.92330  1.0000 -0.2194577345
C   C60       1.0  0.40300  0.57780  0.07670  1.0000 -0.2194577345
C   C61       1.0  0.70460  0.72960  0.79010  1.0000 0.5935897622
C   C62       1.0  0.29540  0.27040  0.20990  1.0000 0.5935897622
C   C63       1.0  0.75430  0.64540  0.77310  1.0000 -0.0324352763
C   C64       1.0  0.24570  0.35460  0.22690  1.0000 -0.0324352763
C   C65       1.0  0.67630  0.56450  0.78490  1.0000 -0.2024402228
C   C66       1.0  0.32370  0.43550  0.21510  1.0000 -0.2024402228
C   C67       1.0  0.71770  0.48480  0.76780  1.0000 0.1593009624
C   C68       1.0  0.28230  0.51520  0.23220  1.0000 0.1593009624
C   C69       1.0  0.84080  0.48260  0.73810  1.0000 0.175198743
C   C70       1.0  0.15920  0.51740  0.26190  1.0000 0.175198743
C   C71       1.0  0.91660  0.56280  0.72580  1.0000 -0.2194577345
C   C72       1.0  0.08340  0.43720  0.27420  1.0000 -0.2194577345
C   C73       1.0  0.87530  0.64310  0.74260  1.0000 -0.0917174668
C   C74       1.0  0.12470  0.35690  0.25740  1.0000 -0.0917174668
C   C75       1.0  0.98990  0.39580  0.69380  1.0000 -0.2087376422
C   C76       1.0  0.01010  0.60420  0.30620  1.0000 -0.2087376422
C   C77       1.0  0.44860  0.25190  0.76500  1.0000 -0.0994540733
C   C78       1.0  0.55140  0.74810  0.23500  1.0000 -0.0994540733
C   C79       1.0  0.32590  0.23450  0.79140  1.0000 -0.0917174668
C   C80       1.0  0.67410  0.76550  0.20860  1.0000 -0.0917174668
C   C81       1.0  0.30580  0.16320  0.82120  1.0000 -0.0917174668
C   C82       1.0  0.69420  0.83680  0.17880  1.0000 -0.0917174668
C   C83       1.0  0.41150  0.11470  0.82440  1.0000 -0.0453258809
C   C84       1.0  0.58850  0.88530  0.17560  1.0000 -0.0453258809
C   C85       1.0  0.53000  0.13000  0.79500  1.0000 -0.0811317798
C   C86       1.0  0.47000  0.87000  0.20500  1.0000 -0.0811317798
C   C87       1.0  0.55390  0.20090  0.76520  1.0000 -0.0917174668
C   C88       1.0  0.44610  0.79910  0.23480  1.0000 -0.0917174668
C   C89       1.0  0.39100  0.03860  0.85540  1.0000 0.6496099505
C   C90       1.0  0.60900  0.96140  0.14460  1.0000 0.655060688
S   S1        1.0  0.22970  0.85080  0.46788  1.0000 1.1131360921
S   S2        1.0  0.77030  0.14920  0.53212  1.0000 1.1131360921
S   S3        1.0  0.05300  0.36940  0.90081  1.0000 1.1199196371
S   S4        1.0  0.94700  0.63060  0.09919  1.0000 1.1199196371
S   S5        1.0  0.47850  0.34350  0.73025  1.0000 1.1131360921
S   S6        1.0  0.52150  0.65650  0.26975  1.0000 1.1131360921
O   O1        1.0  0.08970  0.85780  0.76250  1.0000 -0.6697616187
O   O2        1.0  0.91030  0.14220  0.23750  1.0000 -0.6697616187
O   O3        1.0  0.31640  0.89230  0.73800  1.0000 -0.6697616187
O   O4        1.0  0.68360  0.10770  0.26200  1.0000 -0.6697616187
O   O5        1.0  0.87780  0.88070  0.47550  1.0000 -0.177846646
O   O6        1.0  0.12220  0.11930  0.52450  1.0000 -0.177846646
O   O7        1.0  0.18820  0.92930  0.51620  1.0000 -0.3435342965
O   O8        1.0  0.81180  0.07070  0.48380  1.0000 -0.3435342965
O   O9        1.0  0.10830  0.76610  0.45250  1.0000 -0.5095702019
O   O10       1.0  0.89170  0.23390  0.54750  1.0000 -0.5095702019
O   O11       1.0  0.38660  0.85550  0.49410  1.0000 -0.5208234993
O   O12       1.0  0.61340  0.14450  0.50590  1.0000 -0.5208234993
O   O13       1.0  0.05980  0.00420  0.21010  1.0000 -0.6483135876
O   O14       1.0  0.94020  0.99580  0.78990  1.0000 -0.6483135876
O   O15       1.0  0.31640  0.03630  0.22750  1.0000 -0.6892773417
O   O16       1.0  0.68360  0.96370  0.77250  1.0000 -0.6892773417
O   O17       1.0  0.13830  0.79950  0.87650  1.0000 -0.6986033526
O   O18       1.0  0.86170  0.20050  0.12350  1.0000 -0.6986033526
O   O19       1.0  0.31480  0.76610  0.82710  1.0000 -0.6573364344
O   O20       1.0  0.68520  0.23390  0.17290  1.0000 -0.6573364344
O   O21       1.0  0.90360  0.34930  0.91390  1.0000 -0.5383345094
O   O22       1.0  0.09640  0.65070  0.08610  1.0000 -0.5383345094
O   O23       1.0  0.08030  0.30210  0.85370  1.0000 -0.5208234993
O   O24       1.0  0.91970  0.69790  0.14630  1.0000 -0.5208234993
O   O25       1.0  0.18170  0.39320  0.96860  1.0000 -0.3166123834
O   O26       1.0  0.81830  0.60680  0.03140  1.0000 -0.3166123834
O   O27       1.0  0.49890  0.00070  0.86450  1.0000 -0.6697616187
O   O28       1.0  0.50110  0.99930  0.13550  1.0000 -0.6697616187
O   O29       1.0  0.26880  0.01610  0.87300  1.0000 -0.6753675547
O   O30       1.0  0.73120  0.98390  0.12700  1.0000 -0.6753675547
O   O31       1.0  0.10860  0.14290  0.07600  1.0000 -0.6483135876
O   O32       1.0  0.89140  0.85710  0.92400  1.0000 -0.6483135876
O   O33       1.0  0.33360  0.11260  0.09420  1.0000 -0.6892773417
O   O34       1.0  0.66640  0.88740  0.90580  1.0000 -0.6892773417
O   O35       1.0  0.36440  0.38980  0.73720  1.0000 -0.5260676649
O   O36       1.0  0.63560  0.61020  0.26280  1.0000 -0.5260676649
O   O37       1.0  0.64130  0.40500  0.78170  1.0000 -0.3102504519
O   O38       1.0  0.35870  0.59500  0.21830  1.0000 -0.3102504519
O   O39       1.0  0.45090  0.76800  0.69500  1.0000 -0.7169794646
O   O40       1.0  0.54910  0.23200  0.30500  1.0000 -0.7169794646
O   O41       1.0  0.01150  0.04590  0.92510  1.0000 -0.7821314541
O   O42       1.0  0.98850  0.95410  0.07490  1.0000 -0.7821314541
O   O43       1.0  0.57290  0.71970  0.80040  1.0000 -0.6168991533
O   O44       1.0  0.42710  0.28030  0.19960  1.0000 -0.6168991533
O   O45       1.0  0.19520  0.95180  0.97150  1.0000 -0.7465439644
O   O46       1.0  0.80480  0.04820  0.02850  1.0000 -0.7465439644
O   O47       1.0  0.44810  0.40390  0.93510  1.0000 -0.1138359663
O   O48       1.0  0.55190  0.59610  0.06490  1.0000 -0.1138359663
O   O49       1.0  0.78980  0.80600  0.79060  1.0000 -0.6986033526
O   O50       1.0  0.21020  0.19400  0.20940  1.0000 -0.6986033526
O   O51       1.0  0.87360  0.40160  0.72690  1.0000 -0.1406378058
O   O52       1.0  0.12640  0.59840  0.27310  1.0000 -0.1406378058
O   O53       1.0  0.50430  0.31640  0.66960  1.0000 -0.5016088095
O   O54       1.0  0.49570  0.68360  0.33040  1.0000 -0.5016088095
