# DDEC6 charges by PACMAN v1.1 (https://github.com/mtap-research/PACMAN-charge/)
data_2013[Co][sqc]3[FSR]1
_chemical_formula_sum              "Co2 P2 H26 C24 N6 O10"
_cell_length_a       5.1953
_cell_length_b       10.53
_cell_length_c       14.26
_cell_angle_alpha    105.71
_cell_angle_beta     89.02
_cell_angle_gamma    97.7

_symmetry_space_group_name_H-M    "P 1"
_symmetry_Int_Tables_number       1

loop_
  _symmetry_equiv_pos_as_xyz
  'x, y, z'

loop_
  _atom_site_type_symbol
  _atom_site_label
  _atom_site_symmetry_multiplicity
  _atom_site_fract_x
  _atom_site_fract_y
  _atom_site_fract_z
  _atom_site_occupancy
  _atom_site_charge
Co  Co1       1.0  0.00000  0.50000  0.50000  1.0000 0.9407063625
Co  Co2       1.0  0.50000  0.00000  0.50000  1.0000 0.9949783585
P   P1        1.0  0.91156  0.80270  0.47403  1.0000 1.2456929586
P   P2        1.0  0.08844  0.19730  0.52597  1.0000 1.2456929586
H   H1        1.0  0.37100  0.05360  0.32920  1.0000 0.365349581
H   H2        1.0  0.62900  0.94640  0.67080  1.0000 0.365349581
H   H3        1.0  0.67400  0.30200  0.46400  1.0000 0.2990225158
H   H4        1.0  0.32600  0.69800  0.53600  1.0000 0.2990225158
H   H5        1.0  0.51000  0.38000  0.48000  1.0000 0.2990225158
H   H6        1.0  0.49000  0.62000  0.52000  1.0000 0.2990225158
H   H7        1.0  0.07810  0.71920  0.27500  1.0000 0.1211440838
H   H8        1.0  0.92190  0.28080  0.72500  1.0000 0.1211440838
H   H9        1.0  0.98690  0.77230  0.13250  1.0000 0.1072173021
H   H10       1.0  0.01310  0.22770  0.86750  1.0000 0.1072173021
H   H11       1.0  0.68760  0.91730  0.13370  1.0000 0.145544549
H   H12       1.0  0.31240  0.08270  0.86630  1.0000 0.145544549
H   H13       1.0  0.07960  0.75470  0.70050  1.0000 0.1290949684
H   H14       1.0  0.92040  0.24530  0.29950  1.0000 0.1290949684
H   H15       1.0  0.78160  0.78730  0.83600  1.0000 0.1290949684
H   H16       1.0  0.21840  0.21270  0.16400  1.0000 0.1290949684
H   H17       1.0  0.56300  0.43600  0.65360  1.0000 0.1211440838
H   H18       1.0  0.43700  0.56400  0.34640  1.0000 0.1211440838
H   H19       1.0  0.25010  0.50560  0.78790  1.0000 0.1290949684
H   H20       1.0  0.74990  0.49440  0.21210  1.0000 0.1290949684
H   H21       1.0  0.29040  0.65620  0.84620  1.0000 0.1211440838
H   H22       1.0  0.70960  0.34380  0.15380  1.0000 0.1211440838
H   H23       1.0  0.71120  0.42330  0.86210  1.0000 0.1211440838
H   H24       1.0  0.28880  0.57670  0.13790  1.0000 0.1211440838
H   H25       1.0  0.20840  0.64190  0.00290  1.0000 0.1211440838
H   H26       1.0  0.79160  0.35810  0.99710  1.0000 0.1211440838
C   C1        1.0  0.83190  0.83260  0.35770  1.0000 -0.0024988586
C   C2        1.0  0.16810  0.16740  0.64230  1.0000 -0.0024988586
C   C3        1.0  0.95810  0.77710  0.27450  1.0000 -0.1691997059
C   C4        1.0  0.04190  0.22290  0.72550  1.0000 -0.1691997059
C   C5        1.0  0.90340  0.80890  0.18980  1.0000 -0.0275122043
C   C6        1.0  0.09660  0.19110  0.81020  1.0000 -0.0275122043
C   C7        1.0  0.72530  0.89460  0.19010  1.0000 -0.2615081169
C   C8        1.0  0.27470  0.10540  0.80990  1.0000 -0.2615081169
C   C9        1.0  0.60390  0.94640  0.27630  1.0000 0.435842549
C   C10       1.0  0.39610  0.05360  0.72370  1.0000 0.435842549
C   C11       1.0  0.93830  0.69420  0.70790  1.0000 -0.019211357
C   C12       1.0  0.06170  0.30580  0.29210  1.0000 -0.019211357
C   C13       1.0  0.77470  0.71260  0.78280  1.0000 -0.113712857
C   C14       1.0  0.22530  0.28740  0.21720  1.0000 -0.113712857
C   C15       1.0  0.65600  0.51920  0.68190  1.0000 0.0987052373
C   C16       1.0  0.34400  0.48080  0.31810  1.0000 0.0987052373
C   C17       1.0  0.37460  0.57640  0.82670  1.0000 -0.1691997059
C   C18       1.0  0.62540  0.42360  0.17330  1.0000 -0.1691997059
C   C19       1.0  0.44580  0.53870  0.91720  1.0000 0.0908702142
C   C20       1.0  0.55420  0.46130  0.08280  1.0000 0.0908702142
C   C21       1.0  0.62110  0.45560  0.91860  1.0000 -0.1789642968
C   C22       1.0  0.37890  0.54440  0.08140  1.0000 -0.1789642968
C   C23       1.0  0.32860  0.58290  0.99970  1.0000 -0.1691997059
C   C24       1.0  0.67140  0.41710  0.00030  1.0000 -0.1644869246
N   N1        1.0  0.65160  0.91510  0.35853  1.0000 -0.3560822704
N   N2        1.0  0.34840  0.08490  0.64147  1.0000 -0.3560822704
N   N3        1.0  0.86310  0.57080  0.64348  1.0000 -0.301561872
N   N4        1.0  0.13690  0.42920  0.35652  1.0000 -0.301561872
N   N5        1.0  0.59600  0.60050  0.76630  1.0000 0.0388860772
N   N6        1.0  0.40400  0.39950  0.23370  1.0000 0.0388860772
O   O1        1.0  0.82850  0.65555  0.46493  1.0000 -0.766349981
O   O2        1.0  0.17150  0.34445  0.53507  1.0000 -0.766349981
O   O3        1.0  0.75400  0.89371  0.54753  1.0000 -0.7472820529
O   O4        1.0  0.24600  0.10629  0.45247  1.0000 -0.7472820529
O   O5        1.0  0.20390  0.83816  0.48837  1.0000 -0.7472820529
O   O6        1.0  0.79610  0.16184  0.51163  1.0000 -0.7472820529
O   O7        1.0  0.43640  0.03170  0.27549  1.0000 -0.4428737261
O   O8        1.0  0.56360  0.96830  0.72451  1.0000 -0.4428737261
O   O9        1.0  0.65650  0.36540  0.45474  1.0000 -0.616918812
O   O10       1.0  0.34350  0.63460  0.54526  1.0000 -0.616918812
