# DDEC6 charges by PACMAN v1.1 (https://github.com/mtap-research/PACMAN-charge/)
data_2013[Co][ins]3[FSR]1
_chemical_formula_sum              "Co4 H88 C136 N16 O16"
_cell_length_a       8.4073
_cell_length_b       35.108
_cell_length_c       11.491
_cell_angle_alpha    90
_cell_angle_beta     105.842
_cell_angle_gamma    90

_symmetry_space_group_name_H-M    "P 1"
_symmetry_Int_Tables_number       1

loop_
  _symmetry_equiv_pos_as_xyz
  'x, y, z'

loop_
  _atom_site_type_symbol
  _atom_site_label
  _atom_site_symmetry_multiplicity
  _atom_site_fract_x
  _atom_site_fract_y
  _atom_site_fract_z
  _atom_site_occupancy
  _atom_site_charge
Co  Co1       1.0  0.47425  0.85219  0.50377  1.0000 0.7591403935
Co  Co2       1.0  0.52575  0.35219  0.99623  1.0000 0.7591403935
Co  Co3       1.0  0.52575  0.14781  0.49623  1.0000 0.7591403935
Co  Co4       1.0  0.47425  0.64781  0.00377  1.0000 0.7591403935
H   H1        1.0  0.25850  0.96220  0.42910  1.0000 0.1125556964
H   H2        1.0  0.74150  0.46220  0.07090  1.0000 0.1125556964
H   H3        1.0  0.74150  0.03780  0.57090  1.0000 0.1125556964
H   H4        1.0  0.25850  0.53780  0.92910  1.0000 0.1125556964
H   H5        1.0  0.32610  0.01400  0.54170  1.0000 0.1301289553
H   H6        1.0  0.67390  0.51400  0.95830  1.0000 0.1301289553
H   H7        1.0  0.67390  0.98600  0.45830  1.0000 0.1301289553
H   H8        1.0  0.32610  0.48600  0.04170  1.0000 0.1183562207
H   H9        1.0  0.47100  0.06870  0.59200  1.0000 0.1014385738
H   H10       1.0  0.52900  0.56870  0.90800  1.0000 0.1014385738
H   H11       1.0  0.52900  0.93130  0.40800  1.0000 0.1014385738
H   H12       1.0  0.47100  0.43130  0.09200  1.0000 0.1014385738
H   H13       1.0  0.18660  0.12120  0.31730  1.0000 0.1014385738
H   H14       1.0  0.81340  0.62120  0.18270  1.0000 0.1014385738
H   H15       1.0  0.81340  0.87880  0.68270  1.0000 0.1014385738
H   H16       1.0  0.18660  0.37880  0.81730  1.0000 0.1014385738
H   H17       1.0  0.03230  0.06800  0.25990  1.0000 0.135617188
H   H18       1.0  0.96770  0.56800  0.24010  1.0000 0.135617188
H   H19       1.0  0.96770  0.93200  0.74010  1.0000 0.135617188
H   H20       1.0  0.03230  0.43200  0.75990  1.0000 0.135617188
H   H21       1.0  0.84940  0.02060  0.26370  1.0000 0.1125556964
H   H22       1.0  0.15060  0.52060  0.23630  1.0000 0.1125556964
H   H23       1.0  0.15060  0.97940  0.73630  1.0000 0.1125556964
H   H24       1.0  0.84940  0.47940  0.76370  1.0000 0.1125556964
H   H25       1.0  0.85170  0.90700  0.24560  1.0000 0.1125556964
H   H26       1.0  0.14830  0.40700  0.25440  1.0000 0.1125556964
H   H27       1.0  0.14830  0.09300  0.75440  1.0000 0.1125556964
H   H28       1.0  0.85170  0.59300  0.74560  1.0000 0.1125556964
H   H29       1.0  0.58480  0.01510  0.23310  1.0000 0.1301289553
H   H30       1.0  0.41520  0.51510  0.26690  1.0000 0.1301289553
H   H31       1.0  0.41520  0.98490  0.76690  1.0000 0.1301289553
H   H32       1.0  0.58480  0.48490  0.73310  1.0000 0.1301289553
H   H33       1.0  0.30930  0.01280  0.13660  1.0000 0.1014385738
H   H34       1.0  0.69070  0.51280  0.36340  1.0000 0.1014385738
H   H35       1.0  0.69070  0.98720  0.86340  1.0000 0.1014385738
H   H36       1.0  0.30930  0.48720  0.63660  1.0000 0.1014385738
H   H37       1.0  0.35470  0.91390  0.00490  1.0000 0.1014385738
H   H38       1.0  0.64530  0.41390  0.49510  1.0000 0.1014385738
H   H39       1.0  0.64530  0.08610  0.99510  1.0000 0.1014385738
H   H40       1.0  0.35470  0.58610  0.50490  1.0000 0.1014385738
H   H41       1.0  0.63490  0.91360  0.09530  1.0000 0.1301289553
H   H42       1.0  0.36510  0.41360  0.40470  1.0000 0.1301289553
H   H43       1.0  0.36510  0.08640  0.90470  1.0000 0.1301289553
H   H44       1.0  0.63490  0.58640  0.59530  1.0000 0.1301289553
H   H45       1.0  0.53530  0.83440  0.91620  1.0000 0.1183562207
H   H46       1.0  0.46470  0.33440  0.58380  1.0000 0.1183562207
H   H47       1.0  0.46470  0.16560  0.08380  1.0000 0.1183562207
H   H48       1.0  0.53530  0.66560  0.41620  1.0000 0.1183562207
H   H49       1.0  0.86900  0.81810  0.27070  1.0000 0.135617188
H   H50       1.0  0.13100  0.31810  0.22930  1.0000 0.135617188
H   H51       1.0  0.13100  0.18190  0.72930  1.0000 0.135617188
H   H52       1.0  0.86900  0.68190  0.77070  1.0000 0.135617188
H   H53       1.0  0.77350  0.83600  0.42970  1.0000 0.1014385738
H   H54       1.0  0.22650  0.33600  0.07030  1.0000 0.1014385738
H   H55       1.0  0.22650  0.16400  0.57030  1.0000 0.1014385738
H   H56       1.0  0.77350  0.66400  0.92970  1.0000 0.1014385738
H   H57       1.0  0.32010  0.83580  0.22930  1.0000 0.1183562207
H   H58       1.0  0.67990  0.33580  0.27070  1.0000 0.1183562207
H   H59       1.0  0.67990  0.16420  0.77070  1.0000 0.1183562207
H   H60       1.0  0.32010  0.66420  0.72930  1.0000 0.1183562207
H   H61       1.0  0.40140  0.81860  0.06350  1.0000 0.1301289553
H   H62       1.0  0.59860  0.31860  0.43650  1.0000 0.1301289553
H   H63       1.0  0.59860  0.18140  0.93650  1.0000 0.1301289553
H   H64       1.0  0.40140  0.68140  0.56350  1.0000 0.1301289553
H   H65       1.0  0.89200  0.77150  0.13250  1.0000 0.1183562207
H   H66       1.0  0.10800  0.27150  0.36750  1.0000 0.1183562207
H   H67       1.0  0.10800  0.22850  0.86750  1.0000 0.1183562207
H   H68       1.0  0.89200  0.72850  0.63250  1.0000 0.1183562207
H   H69       1.0  0.86620  0.78090  0.78180  1.0000 0.1125556964
H   H70       1.0  0.13380  0.28090  0.71820  1.0000 0.1125556964
H   H71       1.0  0.13380  0.21910  0.21820  1.0000 0.1125556964
H   H72       1.0  0.86620  0.71910  0.28180  1.0000 0.1125556964
H   H73       1.0  0.97910  0.70820  0.08750  1.0000 0.135617188
H   H74       1.0  0.02090  0.20820  0.41250  1.0000 0.135617188
H   H75       1.0  0.02090  0.29180  0.91250  1.0000 0.135617188
H   H76       1.0  0.97910  0.79180  0.58750  1.0000 0.135617188
H   H77       1.0  0.18580  0.66560  0.09590  1.0000 0.1125556964
H   H78       1.0  0.81420  0.16560  0.40410  1.0000 0.1125556964
H   H79       1.0  0.81420  0.33440  0.90410  1.0000 0.1125556964
H   H80       1.0  0.18580  0.83440  0.59590  1.0000 0.1125556964
H   H81       1.0  0.37310  0.72950  0.89200  1.0000 0.1014385738
H   H82       1.0  0.62690  0.22950  0.60800  1.0000 0.1014385738
H   H83       1.0  0.62690  0.27050  0.10800  1.0000 0.1014385738
H   H84       1.0  0.37310  0.77050  0.39200  1.0000 0.1014385738
H   H85       1.0  0.16840  0.77370  0.87270  1.0000 0.1301289553
H   H86       1.0  0.83160  0.27370  0.62730  1.0000 0.1301289553
H   H87       1.0  0.83160  0.22630  0.12730  1.0000 0.1301289553
H   H88       1.0  0.16840  0.72630  0.37270  1.0000 0.1301289553
C   C1        1.0  0.16280  0.89189  0.36200  1.0000 0.5548140171
C   C2        1.0  0.83720  0.39189  0.13800  1.0000 0.5548140171
C   C3        1.0  0.83720  0.10811  0.63800  1.0000 0.5548140171
C   C4        1.0  0.16280  0.60811  0.86200  1.0000 0.5548140171
C   C5        1.0  0.07060  0.92885  0.33940  1.0000 -0.0048838403
C   C6        1.0  0.92940  0.42885  0.16060  1.0000 -0.0048838403
C   C7        1.0  0.92940  0.07115  0.66060  1.0000 -0.0048838403
C   C8        1.0  0.07060  0.57115  0.83940  1.0000 -0.0048838403
C   C9        1.0  0.14980  0.96279  0.38100  1.0000 -0.1678286728
C   C10       1.0  0.85020  0.46279  0.11900  1.0000 -0.1678286728
C   C11       1.0  0.85020  0.03721  0.61900  1.0000 -0.1678286728
C   C12       1.0  0.14980  0.53721  0.88100  1.0000 -0.1678286728
C   C13       1.0  0.07080  0.99747  0.35240  1.0000 0.0706670854
C   C14       1.0  0.92920  0.49747  0.14760  1.0000 0.0706670854
C   C15       1.0  0.92920  0.00253  0.64760  1.0000 0.0706670854
C   C16       1.0  0.07080  0.50253  0.85240  1.0000 0.0706670854
C   C17       1.0  0.16230  0.03352  0.39140  1.0000 0.1183562207
C   C18       1.0  0.83770  0.53352  0.10860  1.0000 0.1183562207
C   C19       1.0  0.83770  0.96648  0.60860  1.0000 0.1183562207
C   C20       1.0  0.16230  0.46648  0.89140  1.0000 0.1183562207
C   C21       1.0  0.29530  0.03546  0.49310  1.0000 -0.2103392729
C   C22       1.0  0.70470  0.53546  0.00690  1.0000 -0.2103392729
C   C23       1.0  0.70470  0.96454  0.50690  1.0000 -0.2103392729
C   C24       1.0  0.29530  0.46454  0.99310  1.0000 -0.2103392729
C   C25       1.0  0.38200  0.06863  0.52290  1.0000 0.0792357273
C   C26       1.0  0.61800  0.56863  0.97710  1.0000 0.0792357273
C   C27       1.0  0.61800  0.93137  0.47710  1.0000 0.0792357273
C   C28       1.0  0.38200  0.43137  0.02290  1.0000 0.0792357273
C   C29       1.0  0.21630  0.09917  0.36320  1.0000 0.0792357273
C   C30       1.0  0.78370  0.59917  0.13680  1.0000 0.0792357273
C   C31       1.0  0.78370  0.90083  0.63680  1.0000 0.0792357273
C   C32       1.0  0.21630  0.40083  0.86320  1.0000 0.0792357273
C   C33       1.0  0.12300  0.06714  0.32760  1.0000 -0.1895068687
C   C34       1.0  0.87700  0.56714  0.17240  1.0000 -0.1895068687
C   C35       1.0  0.87700  0.93286  0.67240  1.0000 -0.1895068687
C   C36       1.0  0.12300  0.43286  0.82760  1.0000 -0.1895068687
C   C37       1.0  0.90440  0.99754  0.28390  1.0000 -0.1848080096
C   C38       1.0  0.09560  0.49754  0.21610  1.0000 -0.1895068687
C   C39       1.0  0.09560  0.00246  0.71610  1.0000 -0.1895068687
C   C40       1.0  0.90440  0.50246  0.78390  1.0000 -0.1848080096
C   C41       1.0  0.82160  0.96402  0.24620  1.0000 0.0706670854
C   C42       1.0  0.17840  0.46402  0.25380  1.0000 0.0706670854
C   C43       1.0  0.17840  0.03598  0.75380  1.0000 0.0706670854
C   C44       1.0  0.82160  0.53598  0.74620  1.0000 0.0706670854
C   C45       1.0  0.90620  0.92966  0.27280  1.0000 -0.160897041
C   C46       1.0  0.09380  0.42966  0.22720  1.0000 -0.160897041
C   C47       1.0  0.09380  0.07034  0.72720  1.0000 -0.160897041
C   C48       1.0  0.90620  0.57034  0.77280  1.0000 -0.160897041
C   C49       1.0  0.64260  0.96423  0.17950  1.0000 0.1125556964
C   C50       1.0  0.35740  0.46423  0.32050  1.0000 0.1125556964
C   C51       1.0  0.35740  0.03577  0.82050  1.0000 0.1125556964
C   C52       1.0  0.64260  0.53577  0.67950  1.0000 0.1125556964
C   C53       1.0  0.54140  0.99370  0.18760  1.0000 -0.2103392729
C   C54       1.0  0.45860  0.49370  0.31240  1.0000 -0.2103392729
C   C55       1.0  0.45860  0.00630  0.81240  1.0000 -0.2103392729
C   C56       1.0  0.54140  0.50630  0.68760  1.0000 -0.2103392729
C   C57       1.0  0.37460  0.99212  0.12890  1.0000 0.0792357273
C   C58       1.0  0.62540  0.49212  0.37110  1.0000 0.0792357273
C   C59       1.0  0.62540  0.00788  0.87110  1.0000 0.0792357273
C   C60       1.0  0.37460  0.50788  0.62890  1.0000 0.0792357273
C   C61       1.0  0.40160  0.93469  0.05210  1.0000 0.0706670854
C   C62       1.0  0.59840  0.43469  0.44790  1.0000 0.0706670854
C   C63       1.0  0.59840  0.06531  0.94790  1.0000 0.0706670854
C   C64       1.0  0.40160  0.56531  0.55210  1.0000 0.0706670854
C   C65       1.0  0.57090  0.93404  0.10710  1.0000 -0.2103392729
C   C66       1.0  0.42910  0.43404  0.39290  1.0000 -0.2021260294
C   C67       1.0  0.42910  0.06596  0.89290  1.0000 -0.2021260294
C   C68       1.0  0.57090  0.56596  0.60710  1.0000 -0.2021260294
C   C69       1.0  0.61070  0.82623  0.70850  1.0000 0.5212645593
C   C70       1.0  0.38930  0.32623  0.79150  1.0000 0.5212645593
C   C71       1.0  0.38930  0.17377  0.29150  1.0000 0.5212645593
C   C72       1.0  0.61070  0.67377  0.20850  1.0000 0.5212645593
C   C73       1.0  0.68920  0.81013  0.83020  1.0000 -0.0089339924
C   C74       1.0  0.31080  0.31013  0.66980  1.0000 -0.0089339924
C   C75       1.0  0.31080  0.18987  0.16980  1.0000 -0.0089339924
C   C76       1.0  0.68920  0.68987  0.33020  1.0000 -0.0089339924
C   C77       1.0  0.62810  0.81899  0.92740  1.0000 -0.160897041
C   C78       1.0  0.37190  0.31899  0.57260  1.0000 -0.160897041
C   C79       1.0  0.37190  0.18101  0.07260  1.0000 -0.160897041
C   C80       1.0  0.62810  0.68101  0.42740  1.0000 -0.160897041
C   C81       1.0  0.70550  0.80481  0.04140  1.0000 0.0706670854
C   C82       1.0  0.29450  0.30481  0.45860  1.0000 0.0706670854
C   C83       1.0  0.29450  0.19519  0.95860  1.0000 0.0706670854
C   C84       1.0  0.70550  0.69519  0.54140  1.0000 0.0706670854
C   C85       1.0  0.64610  0.81596  0.14720  1.0000 0.1183562207
C   C86       1.0  0.35390  0.31596  0.35280  1.0000 0.1183562207
C   C87       1.0  0.35390  0.18404  0.85280  1.0000 0.1183562207
C   C88       1.0  0.64610  0.68404  0.64720  1.0000 0.1183562207
C   C89       1.0  0.75620  0.82157  0.25970  1.0000 -0.1895068687
C   C90       1.0  0.24380  0.32157  0.24030  1.0000 -0.1895068687
C   C91       1.0  0.24380  0.17843  0.74030  1.0000 -0.1895068687
C   C92       1.0  0.75620  0.67843  0.75970  1.0000 -0.1895068687
C   C93       1.0  0.69740  0.83229  0.35490  1.0000 0.0792357273
C   C94       1.0  0.30260  0.33229  0.14510  1.0000 0.0792357273
C   C95       1.0  0.30260  0.16771  0.64510  1.0000 0.0792357273
C   C96       1.0  0.69740  0.66771  0.85490  1.0000 0.0792357273
C   C97       1.0  0.43230  0.83226  0.23770  1.0000 0.0792357273
C   C98       1.0  0.56770  0.33226  0.26230  1.0000 0.0792357273
C   C99       1.0  0.56770  0.16774  0.76230  1.0000 0.0792357273
C   C100      1.0  0.43230  0.66774  0.73770  1.0000 0.0792357273
C   C101      1.0  0.47990  0.82178  0.13750  1.0000 -0.2021260294
C   C102      1.0  0.52010  0.32178  0.36250  1.0000 -0.2021260294
C   C103      1.0  0.52010  0.17822  0.86250  1.0000 -0.2021260294
C   C104      1.0  0.47990  0.67822  0.63750  1.0000 -0.2021260294
C   C105      1.0  0.84120  0.78128  0.05620  1.0000 -0.160897041
C   C106      1.0  0.15880  0.28128  0.44380  1.0000 -0.160897041
C   C107      1.0  0.15880  0.21872  0.94380  1.0000 -0.160897041
C   C108      1.0  0.84120  0.71872  0.55620  1.0000 -0.160897041
C   C109      1.0  0.90300  0.77193  0.96030  1.0000 0.0619833606
C   C110      1.0  0.09700  0.27193  0.53970  1.0000 0.0619833606
C   C111      1.0  0.09700  0.22807  0.03970  1.0000 0.0619833606
C   C112      1.0  0.90300  0.72807  0.46030  1.0000 0.0619833606
C   C113      1.0  0.82550  0.78679  0.84720  1.0000 -0.160897041
C   C114      1.0  0.17450  0.28679  0.65280  1.0000 -0.160897041
C   C115      1.0  0.17450  0.21321  0.15280  1.0000 -0.160897041
C   C116      1.0  0.82550  0.71321  0.34720  1.0000 -0.160897041
C   C117      1.0  0.04340  0.74560  0.97430  1.0000 0.1183562207
C   C118      1.0  0.95660  0.24560  0.52570  1.0000 0.1183562207
C   C119      1.0  0.95660  0.25440  0.02570  1.0000 0.1183562207
C   C120      1.0  0.04340  0.75440  0.47430  1.0000 0.1183562207
C   C121      1.0  0.05600  0.71290  0.04440  1.0000 -0.2021260294
C   C122      1.0  0.94400  0.21290  0.45560  1.0000 -0.2021260294
C   C123      1.0  0.94400  0.28710  0.95560  1.0000 -0.2021260294
C   C124      1.0  0.05600  0.78710  0.54440  1.0000 -0.2021260294
C   C125      1.0  0.18180  0.68754  0.05010  1.0000 0.1014385738
C   C126      1.0  0.81820  0.18754  0.44990  1.0000 0.1014385738
C   C127      1.0  0.81820  0.31246  0.94990  1.0000 0.1014385738
C   C128      1.0  0.18180  0.81246  0.55010  1.0000 0.1014385738
C   C129      1.0  0.29070  0.72488  0.93020  1.0000 0.0888625818
C   C130      1.0  0.70930  0.22488  0.56980  1.0000 0.0888625818
C   C131      1.0  0.70930  0.27512  0.06980  1.0000 0.0888625818
C   C132      1.0  0.29070  0.77512  0.43020  1.0000 0.0888625818
C   C133      1.0  0.16800  0.75174  0.91800  1.0000 -0.2103392729
C   C134      1.0  0.83200  0.25174  0.58200  1.0000 -0.2103392729
C   C135      1.0  0.83200  0.24826  0.08200  1.0000 -0.2103392729
C   C136      1.0  0.16800  0.74826  0.41800  1.0000 -0.2103392729
N   N1        1.0  0.34780  0.10074  0.46010  1.0000 -0.2317369238
N   N2        1.0  0.65220  0.60074  0.03990  1.0000 -0.2317369238
N   N3        1.0  0.65220  0.89926  0.53990  1.0000 -0.2317369238
N   N4        1.0  0.34780  0.39926  0.96010  1.0000 -0.2317369238
N   N5        1.0  0.30280  0.96328  0.06310  1.0000 -0.2552216959
N   N6        1.0  0.69720  0.46328  0.43690  1.0000 -0.2552216959
N   N7        1.0  0.69720  0.03672  0.93690  1.0000 -0.2552216959
N   N8        1.0  0.30280  0.53672  0.56310  1.0000 -0.2552216959
N   N9        1.0  0.53750  0.83776  0.34680  1.0000 -0.2503232111
N   N10       1.0  0.46250  0.33776  0.15320  1.0000 -0.2503232111
N   N11       1.0  0.46250  0.16224  0.65320  1.0000 -0.2503232111
N   N12       1.0  0.53750  0.66224  0.84680  1.0000 -0.2503232111
N   N13       1.0  0.29950  0.69277  0.99280  1.0000 -0.2317369238
N   N14       1.0  0.70050  0.19277  0.50720  1.0000 -0.2317369238
N   N15       1.0  0.70050  0.30723  0.00720  1.0000 -0.2317369238
N   N16       1.0  0.29950  0.80723  0.49280  1.0000 -0.2317369238
O   O1        1.0  0.29360  0.89171  0.45090  1.0000 -0.5739474234
O   O2        1.0  0.70640  0.39171  0.04910  1.0000 -0.5739474234
O   O3        1.0  0.70640  0.10829  0.54910  1.0000 -0.5739474234
O   O4        1.0  0.29360  0.60829  0.95090  1.0000 -0.5739474234
O   O5        1.0  0.10940  0.86457  0.29450  1.0000 -0.557509118
O   O6        1.0  0.89060  0.36457  0.20550  1.0000 -0.557509118
O   O7        1.0  0.89060  0.13543  0.70550  1.0000 -0.557509118
O   O8        1.0  0.10940  0.63543  0.79450  1.0000 -0.557509118
O   O9        1.0  0.49700  0.85062  0.69621  1.0000 -0.5298334298
O   O10       1.0  0.50300  0.35062  0.80379  1.0000 -0.5298334298
O   O11       1.0  0.50300  0.14938  0.30379  1.0000 -0.5298334298
O   O12       1.0  0.49700  0.64938  0.19621  1.0000 -0.5298334298
O   O13       1.0  0.65930  0.81575  0.61924  1.0000 -0.5538427767
O   O14       1.0  0.34070  0.31575  0.88076  1.0000 -0.5538427767
O   O15       1.0  0.34070  0.18425  0.38076  1.0000 -0.5538427767
O   O16       1.0  0.65930  0.68425  0.11924  1.0000 -0.5538427767
