# DDEC6 charges by PACMAN v1.1 (https://github.com/mtap-research/PACMAN-charge/)
data_2013[Mg][acs]3[FSR]3
_chemical_formula_sum              "Mg2 H6 C6 O12"
_cell_length_a       7.2642
_cell_length_b       7.2642
_cell_length_c       8.2123
_cell_angle_alpha    90
_cell_angle_beta     90
_cell_angle_gamma    120

_symmetry_space_group_name_H-M    "P 1"
_symmetry_Int_Tables_number       1

loop_
  _symmetry_equiv_pos_as_xyz
  'x, y, z'

loop_
  _atom_site_type_symbol
  _atom_site_label
  _atom_site_symmetry_multiplicity
  _atom_site_fract_x
  _atom_site_fract_y
  _atom_site_fract_z
  _atom_site_occupancy
  _atom_site_charge
Mg  Mg1       1.0  0.66667  0.33333  0.75000  1.0000 1.2790720116
Mg  Mg2       1.0  0.33333  0.66667  0.25000  1.0000 1.2790720116
H   H1        1.0  0.00000  0.56830  0.00000  1.0000 0.1071597699
H   H2        1.0  0.43170  0.43170  0.00000  1.0000 0.1071597699
H   H3        1.0  0.56830  0.00000  0.00000  1.0000 0.1071597699
H   H4        1.0  0.00000  0.43170  0.50000  1.0000 0.1071597699
H   H5        1.0  0.56830  0.56830  0.50000  1.0000 0.1071597699
H   H6        1.0  0.43170  0.00000  0.50000  1.0000 0.1071597699
C   C1        1.0  0.00000  0.44030  0.00000  1.0000 0.5176424633
C   C2        1.0  0.55970  0.55970  0.00000  1.0000 0.5176424633
C   C3        1.0  0.44030  0.00000  0.00000  1.0000 0.5176424633
C   C4        1.0  0.00000  0.55970  0.50000  1.0000 0.5176424633
C   C5        1.0  0.44030  0.44030  0.50000  1.0000 0.5176424633
C   C6        1.0  0.55970  0.00000  0.50000  1.0000 0.5176424633
O   O1        1.0  0.89060  0.31007  0.89400  1.0000 -0.5255797852
O   O2        1.0  0.68993  0.58053  0.89400  1.0000 -0.5255797852
O   O3        1.0  0.41947  0.10940  0.89400  1.0000 -0.5255797852
O   O4        1.0  0.10940  0.68993  0.39400  1.0000 -0.5255797852
O   O5        1.0  0.31007  0.41947  0.39400  1.0000 -0.5255797852
O   O6        1.0  0.58053  0.89060  0.39400  1.0000 -0.5255797852
O   O7        1.0  0.31007  0.89060  0.10600  1.0000 -0.5255797852
O   O8        1.0  0.58053  0.68993  0.10600  1.0000 -0.5255797852
O   O9        1.0  0.10940  0.41947  0.10600  1.0000 -0.5255797852
O   O10       1.0  0.68993  0.10940  0.60600  1.0000 -0.5255797852
O   O11       1.0  0.41947  0.31007  0.60600  1.0000 -0.5255797852
O   O12       1.0  0.89060  0.58053  0.60600  1.0000 -0.5255797852
