# DDEC6 charges by PACMAN v1.1 (https://github.com/mtap-research/PACMAN-charge/)
data_2013[Mo][nan]3[FSR]1
_chemical_formula_sum              "Mo4 P4 H24 C16 O24"
_cell_length_a       11.6941
_cell_length_b       11.6941
_cell_length_c       9.0023
_cell_angle_alpha    70.7738
_cell_angle_beta     109.226
_cell_angle_gamma    126.036

_symmetry_space_group_name_H-M    "P 1"
_symmetry_Int_Tables_number       1

loop_
  _symmetry_equiv_pos_as_xyz
  'x, y, z'

loop_
  _atom_site_type_symbol
  _atom_site_label
  _atom_site_symmetry_multiplicity
  _atom_site_fract_x
  _atom_site_fract_y
  _atom_site_fract_z
  _atom_site_occupancy
  _atom_site_charge
Mo  Mo1       1.0  0.11659  0.58655  0.76367  1.0000 2.1268490201
Mo  Mo2       1.0  0.58655  0.11659  0.73633  1.0000 2.1268490201
Mo  Mo3       1.0  0.88341  0.41345  0.23633  1.0000 2.1268490201
Mo  Mo4       1.0  0.41345  0.88341  0.26367  1.0000 2.1268490201
P   P1        1.0  0.28591  0.90443  0.53892  1.0000 1.3917171007
P   P2        1.0  0.90443  0.28591  0.96108  1.0000 1.3917171007
P   P3        1.0  0.71409  0.09557  0.46108  1.0000 1.3917171007
P   P4        1.0  0.09557  0.71409  0.03892  1.0000 1.3917171007
H   H1        1.0  0.07570  0.82510  0.35540  1.0000 0.1797892695
H   H2        1.0  0.82510  0.07570  0.14460  1.0000 0.1797892695
H   H3        1.0  0.92430  0.17490  0.64460  1.0000 0.1797892695
H   H4        1.0  0.17490  0.92430  0.85540  1.0000 0.1797892695
H   H5        1.0  0.18960  0.99060  0.29760  1.0000 0.1633622294
H   H6        1.0  0.99060  0.18960  0.20240  1.0000 0.1633622294
H   H7        1.0  0.81040  0.00940  0.70240  1.0000 0.1633622294
H   H8        1.0  0.00940  0.81040  0.79760  1.0000 0.1633622294
H   H9        1.0  0.88140  0.76860  0.45010  1.0000 0.1226624272
H   H10       1.0  0.76860  0.88140  0.04990  1.0000 0.1226624272
H   H11       1.0  0.11860  0.23140  0.54990  1.0000 0.1226624272
H   H12       1.0  0.23140  0.11860  0.95010  1.0000 0.1226624272
H   H13       1.0  0.76260  0.83240  0.53660  1.0000 0.128082568
H   H14       1.0  0.83240  0.76260  0.96340  1.0000 0.128082568
H   H15       1.0  0.23740  0.16760  0.46340  1.0000 0.128082568
H   H16       1.0  0.16760  0.23740  0.03660  1.0000 0.128082568
H   H17       1.0  0.41300  0.65500  0.85300  1.0000 0.4299653864
H   H18       1.0  0.65500  0.41300  0.64700  1.0000 0.4299653864
H   H19       1.0  0.58700  0.34500  0.14700  1.0000 0.4299653864
H   H20       1.0  0.34500  0.58700  0.35300  1.0000 0.4299653864
H   H21       1.0  0.39710  0.72690  0.95100  1.0000 0.4299653864
H   H22       1.0  0.72690  0.39710  0.54900  1.0000 0.4299653864
H   H23       1.0  0.60290  0.27310  0.04900  1.0000 0.4299653864
H   H24       1.0  0.27310  0.60290  0.45100  1.0000 0.4299653864
C   C1        1.0  0.14726  0.91874  0.39120  1.0000 -0.5520586127
C   C2        1.0  0.91874  0.14726  0.10880  1.0000 -0.5520586127
C   C3        1.0  0.85274  0.08126  0.60880  1.0000 -0.5520586127
C   C4        1.0  0.08126  0.85274  0.89120  1.0000 -0.5520586127
C   C5        1.0  0.07060  0.96140  0.44700  1.0000 0.1741301736
C   C6        1.0  0.96140  0.07060  0.05300  1.0000 0.1741301736
C   C7        1.0  0.92940  0.03860  0.55300  1.0000 0.1741301736
C   C8        1.0  0.03860  0.92940  0.94700  1.0000 0.1741301736
C   C9        1.0  0.93017  0.86323  0.47010  1.0000 -0.15403668
C   C10       1.0  0.86323  0.93017  0.02990  1.0000 -0.15403668
C   C11       1.0  0.06983  0.13677  0.52990  1.0000 -0.15403668
C   C12       1.0  0.13677  0.06983  0.97010  1.0000 -0.15403668
C   C13       1.0  0.85946  0.90094  0.52200  1.0000 -0.15403668
C   C14       1.0  0.90094  0.85946  0.97800  1.0000 -0.15403668
C   C15       1.0  0.14054  0.09906  0.47800  1.0000 -0.15403668
C   C16       1.0  0.09906  0.14054  0.02200  1.0000 -0.15403668
O   O1        1.0  0.22292  0.79868  0.68839  1.0000 -0.7602544282
O   O2        1.0  0.79868  0.22292  0.81161  1.0000 -0.7602544282
O   O3        1.0  0.77708  0.20132  0.31161  1.0000 -0.7602544282
O   O4        1.0  0.20132  0.77708  0.18839  1.0000 -0.7602544282
O   O5        1.0  0.34891  0.85371  0.47346  1.0000 -0.7602544282
O   O6        1.0  0.85371  0.34891  0.02654  1.0000 -0.7602544282
O   O7        1.0  0.65109  0.14629  0.52654  1.0000 -0.7602544282
O   O8        1.0  0.14629  0.65109  0.97346  1.0000 -0.7602544282
O   O9        1.0  0.39707  0.05347  0.58672  1.0000 -0.7358434552
O   O10       1.0  0.05347  0.39707  0.91328  1.0000 -0.7358434552
O   O11       1.0  0.60293  0.94653  0.41328  1.0000 -0.7358434552
O   O12       1.0  0.94653  0.60293  0.08672  1.0000 -0.7358434552
O   O13       1.0  0.95171  0.55795  0.68475  1.0000 -0.6386976892
O   O14       1.0  0.55795  0.95171  0.81525  1.0000 -0.6386976892
O   O15       1.0  0.04829  0.44205  0.31525  1.0000 -0.6386976892
O   O16       1.0  0.44205  0.04829  0.18475  1.0000 -0.6386976892
O   O17       1.0  0.15605  0.54757  0.62912  1.0000 -0.6310871596
O   O18       1.0  0.54757  0.15605  0.87088  1.0000 -0.6310871596
O   O19       1.0  0.84395  0.45243  0.37088  1.0000 -0.6310871596
O   O20       1.0  0.45243  0.84395  0.12912  1.0000 -0.6310871596
O   O21       1.0  0.34376  0.63978  0.90631  1.0000 -0.7602544282
O   O22       1.0  0.63978  0.34376  0.59369  1.0000 -0.7602544282
O   O23       1.0  0.65624  0.36022  0.09369  1.0000 -0.7602544282
O   O24       1.0  0.36022  0.65624  0.40631  1.0000 -0.7602544282
