# DDEC6 charges by PACMAN v1.1 (https://github.com/mtap-research/PACMAN-charge/)
data_2013[Mn][nan]3[FSR]10
_chemical_formula_sum              "Mn8 H24 C72 O48"
_cell_length_a       12.6358
_cell_length_b       15.2897
_cell_length_c       16.4183
_cell_angle_alpha    90
_cell_angle_beta     90
_cell_angle_gamma    90

_symmetry_space_group_name_H-M    "P 1"
_symmetry_Int_Tables_number       1

loop_
  _symmetry_equiv_pos_as_xyz
  'x, y, z'

loop_
  _atom_site_type_symbol
  _atom_site_label
  _atom_site_symmetry_multiplicity
  _atom_site_fract_x
  _atom_site_fract_y
  _atom_site_fract_z
  _atom_site_occupancy
  _atom_site_charge
Mn  Mn1       1.0  0.00789  0.08922  0.39866  1.0000 0.9879161928
Mn  Mn2       1.0  0.49211  0.91078  0.89866  1.0000 0.9879161928
Mn  Mn3       1.0  0.99211  0.58922  0.10134  1.0000 0.9879161928
Mn  Mn4       1.0  0.50789  0.41078  0.60134  1.0000 0.9879161928
Mn  Mn5       1.0  0.99211  0.91078  0.60134  1.0000 0.9879161928
Mn  Mn6       1.0  0.50789  0.08922  0.10134  1.0000 0.9879161928
Mn  Mn7       1.0  0.00789  0.41078  0.89866  1.0000 0.9879161928
Mn  Mn8       1.0  0.49211  0.58922  0.39866  1.0000 0.9879161928
H   H1        1.0  0.74630  0.20160  0.55240  1.0000 0.1396736361
H   H2        1.0  0.75370  0.79840  0.05240  1.0000 0.1396736361
H   H3        1.0  0.25370  0.70160  0.94760  1.0000 0.1396736361
H   H4        1.0  0.24630  0.29840  0.44760  1.0000 0.1396736361
H   H5        1.0  0.25370  0.79840  0.44760  1.0000 0.1396736361
H   H6        1.0  0.24630  0.20160  0.94760  1.0000 0.1396736361
H   H7        1.0  0.74630  0.29840  0.05240  1.0000 0.1396736361
H   H8        1.0  0.75370  0.70160  0.55240  1.0000 0.1396736361
H   H9        1.0  0.52300  0.13980  0.72360  1.0000 0.1396736361
H   H10       1.0  0.97700  0.86020  0.22360  1.0000 0.1396736361
H   H11       1.0  0.47700  0.63980  0.77640  1.0000 0.1396736361
H   H12       1.0  0.02300  0.36020  0.27640  1.0000 0.1396736361
H   H13       1.0  0.47700  0.86020  0.27640  1.0000 0.1396736361
H   H14       1.0  0.02300  0.13980  0.77640  1.0000 0.1396736361
H   H15       1.0  0.52300  0.36020  0.22360  1.0000 0.1396736361
H   H16       1.0  0.97700  0.63980  0.72360  1.0000 0.1396736361
H   H17       1.0  0.75370  0.97200  0.66410  1.0000 0.124896488
H   H18       1.0  0.74630  0.02800  0.16410  1.0000 0.1251954202
H   H19       1.0  0.24630  0.47200  0.83590  1.0000 0.1251954202
H   H20       1.0  0.25370  0.52800  0.33590  1.0000 0.1251954202
H   H21       1.0  0.24630  0.02800  0.33590  1.0000 0.1251954202
H   H22       1.0  0.25370  0.97200  0.83590  1.0000 0.1251954202
H   H23       1.0  0.75370  0.52800  0.16410  1.0000 0.124896488
H   H24       1.0  0.74630  0.47200  0.66410  1.0000 0.1251954202
C   C1        1.0  0.76429  0.08361  0.59831  1.0000 -0.0034797166
C   C2        1.0  0.73571  0.91639  0.09831  1.0000 -0.0034797166
C   C3        1.0  0.23571  0.58361  0.90169  1.0000 -0.0034797166
C   C4        1.0  0.26429  0.41639  0.40169  1.0000 -0.0034797166
C   C5        1.0  0.23571  0.91639  0.40169  1.0000 -0.0034797166
C   C6        1.0  0.26429  0.08361  0.90169  1.0000 -0.0034797166
C   C7        1.0  0.76429  0.41639  0.09831  1.0000 -0.0034797166
C   C8        1.0  0.73571  0.58361  0.59831  1.0000 -0.0034797166
C   C9        1.0  0.71890  0.16029  0.59008  1.0000 -0.0980053932
C   C10       1.0  0.78110  0.83971  0.09008  1.0000 -0.0980053932
C   C11       1.0  0.28110  0.66029  0.90992  1.0000 -0.0980053932
C   C12       1.0  0.21890  0.33971  0.40992  1.0000 -0.0980053932
C   C13       1.0  0.28110  0.83971  0.40992  1.0000 -0.0980053932
C   C14       1.0  0.21890  0.16029  0.90992  1.0000 -0.0980053932
C   C15       1.0  0.71890  0.33971  0.09008  1.0000 -0.0980053932
C   C16       1.0  0.78110  0.66029  0.59008  1.0000 -0.0980053932
C   C17       1.0  0.62970  0.18108  0.63720  1.0000 -0.053100941
C   C18       1.0  0.87030  0.81892  0.13720  1.0000 -0.053100941
C   C19       1.0  0.37030  0.68108  0.86280  1.0000 -0.053100941
C   C20       1.0  0.12970  0.31892  0.36280  1.0000 -0.053100941
C   C21       1.0  0.37030  0.81892  0.36280  1.0000 -0.053100941
C   C22       1.0  0.12970  0.18108  0.86280  1.0000 -0.053100941
C   C23       1.0  0.62970  0.31892  0.13720  1.0000 -0.053100941
C   C24       1.0  0.87030  0.68108  0.63720  1.0000 -0.053100941
C   C25       1.0  0.58456  0.12412  0.69381  1.0000 -0.090988857
C   C26       1.0  0.91544  0.87588  0.19381  1.0000 -0.090988857
C   C27       1.0  0.41544  0.62412  0.80619  1.0000 -0.090988857
C   C28       1.0  0.08456  0.37588  0.30619  1.0000 -0.090988857
C   C29       1.0  0.41544  0.87588  0.30619  1.0000 -0.090988857
C   C30       1.0  0.08456  0.12412  0.80619  1.0000 -0.090988857
C   C31       1.0  0.58456  0.37588  0.19381  1.0000 -0.090988857
C   C32       1.0  0.91544  0.62412  0.69381  1.0000 -0.090988857
C   C33       1.0  0.63068  0.04795  0.70420  1.0000 0.0009280618
C   C34       1.0  0.86932  0.95205  0.20420  1.0000 0.0009280618
C   C35       1.0  0.36932  0.54795  0.79580  1.0000 0.0009280618
C   C36       1.0  0.13068  0.45205  0.29580  1.0000 0.0009280618
C   C37       1.0  0.36932  0.95205  0.29580  1.0000 0.0009280618
C   C38       1.0  0.13068  0.04795  0.79580  1.0000 0.0009280618
C   C39       1.0  0.63068  0.45205  0.20420  1.0000 0.0009280618
C   C40       1.0  0.86932  0.54795  0.70420  1.0000 0.0009280618
C   C41       1.0  0.72101  0.02727  0.65625  1.0000 -0.0980053932
C   C42       1.0  0.77899  0.97273  0.15625  1.0000 -0.0980053932
C   C43       1.0  0.27899  0.52727  0.84375  1.0000 -0.0980053932
C   C44       1.0  0.22101  0.47273  0.34375  1.0000 -0.0980053932
C   C45       1.0  0.27899  0.97273  0.34375  1.0000 -0.0980053932
C   C46       1.0  0.22101  0.02727  0.84375  1.0000 -0.0980053932
C   C47       1.0  0.72101  0.47273  0.15625  1.0000 -0.0980053932
C   C48       1.0  0.77899  0.52727  0.65625  1.0000 -0.0980053932
C   C49       1.0  0.85808  0.06072  0.54166  1.0000 0.5534406517
C   C50       1.0  0.64192  0.93928  0.04166  1.0000 0.5534406517
C   C51       1.0  0.14192  0.56072  0.95834  1.0000 0.5534406517
C   C52       1.0  0.35808  0.43928  0.45834  1.0000 0.5534406517
C   C53       1.0  0.14192  0.93928  0.45834  1.0000 0.5534406517
C   C54       1.0  0.35808  0.06072  0.95834  1.0000 0.5534406517
C   C55       1.0  0.85808  0.43928  0.04166  1.0000 0.5534406517
C   C56       1.0  0.64192  0.56072  0.54166  1.0000 0.5534406517
C   C57       1.0  0.58280  0.26479  0.62872  1.0000 0.4960488815
C   C58       1.0  0.91720  0.73521  0.12872  1.0000 0.4960488815
C   C59       1.0  0.41720  0.76479  0.87128  1.0000 0.4960488815
C   C60       1.0  0.08280  0.23521  0.37128  1.0000 0.4960488815
C   C61       1.0  0.41720  0.73521  0.37128  1.0000 0.4960488815
C   C62       1.0  0.08280  0.26479  0.87128  1.0000 0.4960488815
C   C63       1.0  0.58280  0.23521  0.12872  1.0000 0.4960488815
C   C64       1.0  0.91720  0.76479  0.62872  1.0000 0.4960488815
C   C65       1.0  0.58430  0.99027  0.77074  1.0000 0.5333760742
C   C66       1.0  0.91570  0.00973  0.27074  1.0000 0.5333760742
C   C67       1.0  0.41570  0.49027  0.72926  1.0000 0.5333760742
C   C68       1.0  0.08430  0.50973  0.22926  1.0000 0.5333760742
C   C69       1.0  0.41570  0.00973  0.22926  1.0000 0.5333760742
C   C70       1.0  0.08430  0.99027  0.72926  1.0000 0.5333760742
C   C71       1.0  0.58430  0.50973  0.27074  1.0000 0.5333760742
C   C72       1.0  0.91570  0.49027  0.77074  1.0000 0.5333760742
O   O1        1.0  0.90612  0.11880  0.50384  1.0000 -0.4349029746
O   O2        1.0  0.59388  0.88120  0.00384  1.0000 -0.4349029746
O   O3        1.0  0.09388  0.61880  0.99616  1.0000 -0.435264447
O   O4        1.0  0.40612  0.38120  0.49616  1.0000 -0.4349029746
O   O5        1.0  0.09388  0.88120  0.49616  1.0000 -0.435264447
O   O6        1.0  0.40612  0.11880  0.99616  1.0000 -0.435264447
O   O7        1.0  0.90612  0.38120  0.00384  1.0000 -0.4349029746
O   O8        1.0  0.59388  0.61880  0.50384  1.0000 -0.435264447
O   O9        1.0  0.88176  0.98685  0.53287  1.0000 -0.4098140534
O   O10       1.0  0.61824  0.01315  0.03287  1.0000 -0.4098140534
O   O11       1.0  0.11824  0.48685  0.96713  1.0000 -0.4098140534
O   O12       1.0  0.38176  0.51315  0.46713  1.0000 -0.4098140534
O   O13       1.0  0.11824  0.01315  0.46713  1.0000 -0.4098140534
O   O14       1.0  0.38176  0.98685  0.96713  1.0000 -0.4098140534
O   O15       1.0  0.88176  0.51315  0.03287  1.0000 -0.4098140534
O   O16       1.0  0.61824  0.48685  0.53287  1.0000 -0.4098140534
O   O17       1.0  0.49319  0.27966  0.66182  1.0000 -0.448570655
O   O18       1.0  0.00681  0.72034  0.16182  1.0000 -0.448570655
O   O19       1.0  0.50681  0.77966  0.83818  1.0000 -0.448570655
O   O20       1.0  0.99319  0.22034  0.33818  1.0000 -0.448570655
O   O21       1.0  0.50681  0.72034  0.33818  1.0000 -0.448570655
O   O22       1.0  0.99319  0.27966  0.83818  1.0000 -0.448570655
O   O23       1.0  0.49319  0.22034  0.16182  1.0000 -0.448570655
O   O24       1.0  0.00681  0.77966  0.66182  1.0000 -0.448570655
O   O25       1.0  0.63256  0.31874  0.58838  1.0000 -0.448570655
O   O26       1.0  0.86744  0.68126  0.08838  1.0000 -0.448570655
O   O27       1.0  0.36744  0.81874  0.91162  1.0000 -0.448570655
O   O28       1.0  0.13256  0.18126  0.41162  1.0000 -0.448570655
O   O29       1.0  0.36744  0.68126  0.41162  1.0000 -0.448570655
O   O30       1.0  0.13256  0.31874  0.91162  1.0000 -0.448570655
O   O31       1.0  0.63256  0.18126  0.08838  1.0000 -0.448570655
O   O32       1.0  0.86744  0.81874  0.58838  1.0000 -0.448570655
O   O33       1.0  0.49055  0.00025  0.79493  1.0000 -0.4739139986
O   O34       1.0  0.00945  0.99975  0.29493  1.0000 -0.4739139986
O   O35       1.0  0.50945  0.50025  0.70507  1.0000 -0.4739139986
O   O36       1.0  0.99055  0.49975  0.20507  1.0000 -0.4739139986
O   O37       1.0  0.50945  0.99975  0.20507  1.0000 -0.4739139986
O   O38       1.0  0.99055  0.00025  0.70507  1.0000 -0.4739139986
O   O39       1.0  0.49055  0.49975  0.29493  1.0000 -0.4739139986
O   O40       1.0  0.00945  0.50025  0.79493  1.0000 -0.4739139986
O   O41       1.0  0.63959  0.93592  0.80365  1.0000 -0.4166444477
O   O42       1.0  0.86041  0.06408  0.30365  1.0000 -0.4166444477
O   O43       1.0  0.36041  0.43592  0.69635  1.0000 -0.4166444477
O   O44       1.0  0.13959  0.56408  0.19635  1.0000 -0.4166444477
O   O45       1.0  0.36041  0.06408  0.19635  1.0000 -0.4166444477
O   O46       1.0  0.13959  0.93592  0.69635  1.0000 -0.4166444477
O   O47       1.0  0.63959  0.56408  0.30365  1.0000 -0.4166444477
O   O48       1.0  0.86041  0.43592  0.80365  1.0000 -0.4166444477
