# DDEC6 charges by PACMAN v1.1 (https://github.com/mtap-research/PACMAN-charge/)
data_2013[Gd][pcu]3[FSR]1
_chemical_formula_sum              "Gd16 H136 C172 N24 O96"
_cell_length_a       19.7323
_cell_length_b       19.7323
_cell_length_c       23.688
_cell_angle_alpha    57.2222
_cell_angle_beta     122.778
_cell_angle_gamma    122.251

_symmetry_space_group_name_H-M    "P 1"
_symmetry_Int_Tables_number       1

loop_
  _symmetry_equiv_pos_as_xyz
  'x, y, z'

loop_
  _atom_site_type_symbol
  _atom_site_label
  _atom_site_symmetry_multiplicity
  _atom_site_fract_x
  _atom_site_fract_y
  _atom_site_fract_z
  _atom_site_occupancy
  _atom_site_charge
Gd  Gd1       1.0  0.70173  0.11421  0.28224  1.0000 2.0388572141
Gd  Gd2       1.0  0.11421  0.70173  0.21776  1.0000 2.0388572141
Gd  Gd3       1.0  0.29827  0.88579  0.71776  1.0000 2.0388572141
Gd  Gd4       1.0  0.88579  0.29827  0.78224  1.0000 2.0388572141
Gd  Gd5       1.0  0.78159  0.13295  0.46480  1.0000 2.0508559271
Gd  Gd6       1.0  0.13295  0.78159  0.03520  1.0000 2.0508559271
Gd  Gd7       1.0  0.21841  0.86705  0.53520  1.0000 2.0508559271
Gd  Gd8       1.0  0.86705  0.21841  0.96480  1.0000 2.0508559271
Gd  Gd9       1.0  0.84390  0.32826  0.30491  1.0000 2.0508559271
Gd  Gd10      1.0  0.32826  0.84390  0.19509  1.0000 2.0508559271
Gd  Gd11      1.0  0.15610  0.67174  0.69509  1.0000 2.0508559271
Gd  Gd12      1.0  0.67174  0.15610  0.80491  1.0000 2.0508559271
Gd  Gd13      1.0  0.93913  0.14945  0.41263  1.0000 2.0696499869
Gd  Gd14      1.0  0.14945  0.93913  0.08737  1.0000 2.0696499869
Gd  Gd15      1.0  0.06087  0.85055  0.58737  1.0000 2.0696499869
Gd  Gd16      1.0  0.85055  0.06087  0.91263  1.0000 2.0696499869
H   H1        1.0  0.68130  0.04690  0.55050  1.0000 0.3778855018
H   H2        1.0  0.04690  0.68130  0.94950  1.0000 0.3778855018
H   H3        1.0  0.31870  0.95310  0.44950  1.0000 0.3778855018
H   H4        1.0  0.95310  0.31870  0.05050  1.0000 0.3778855018
H   H5        1.0  0.75820  0.09820  0.58640  1.0000 0.3602518383
H   H6        1.0  0.09820  0.75820  0.91360  1.0000 0.3602518383
H   H7        1.0  0.24180  0.90180  0.41360  1.0000 0.3602518383
H   H8        1.0  0.90180  0.24180  0.08640  1.0000 0.3602518383
H   H9        1.0  0.93840  0.14280  0.59340  1.0000 0.3466619477
H   H10       1.0  0.14280  0.93840  0.90660  1.0000 0.3466619477
H   H11       1.0  0.06160  0.85720  0.40660  1.0000 0.3466619477
H   H12       1.0  0.85720  0.06160  0.09340  1.0000 0.3466619477
H   H13       1.0  0.95060  0.22900  0.54680  1.0000 0.3602518383
H   H14       1.0  0.22900  0.95060  0.95320  1.0000 0.3602518383
H   H15       1.0  0.04940  0.77100  0.45320  1.0000 0.3602518383
H   H16       1.0  0.77100  0.04940  0.04680  1.0000 0.3602518383
H   H17       1.0  0.85840  0.50480  0.23030  1.0000 0.3466619477
H   H18       1.0  0.50480  0.85840  0.26970  1.0000 0.3466619477
H   H19       1.0  0.14160  0.49520  0.76970  1.0000 0.3466619477
H   H20       1.0  0.49520  0.14160  0.73030  1.0000 0.3466619477
H   H21       1.0  0.91810  0.49910  0.22010  1.0000 0.3778855018
H   H22       1.0  0.49910  0.91810  0.27990  1.0000 0.3778855018
H   H23       1.0  0.08190  0.50090  0.77990  1.0000 0.3778855018
H   H24       1.0  0.50090  0.08190  0.72010  1.0000 0.3778855018
H   H25       1.0  0.96840  0.47660  0.34480  1.0000 0.3602518383
H   H26       1.0  0.47660  0.96840  0.15520  1.0000 0.3602518383
H   H27       1.0  0.03160  0.52340  0.65520  1.0000 0.3602518383
H   H28       1.0  0.52340  0.03160  0.84480  1.0000 0.3602518383
H   H29       1.0  0.94300  0.41580  0.40550  1.0000 0.339951396
H   H30       1.0  0.41580  0.94300  0.09450  1.0000 0.339951396
H   H31       1.0  0.05700  0.58420  0.59450  1.0000 0.339951396
H   H32       1.0  0.58420  0.05700  0.90550  1.0000 0.339951396
H   H33       1.0  0.09930  0.26950  0.48730  1.0000 0.339951396
H   H34       1.0  0.26950  0.09930  0.01270  1.0000 0.339951396
H   H35       1.0  0.90070  0.73050  0.51270  1.0000 0.339951396
H   H36       1.0  0.73050  0.90070  0.98730  1.0000 0.339951396
H   H37       1.0  0.07930  0.19570  0.54410  1.0000 0.3269824013
H   H38       1.0  0.19570  0.07930  0.95590  1.0000 0.3269824013
H   H39       1.0  0.92070  0.80430  0.45590  1.0000 0.3269824013
H   H40       1.0  0.80430  0.92070  0.04410  1.0000 0.3269824013
H   H41       1.0  0.09420  0.13300  0.45320  1.0000 0.3602518383
H   H42       1.0  0.13300  0.09420  0.04680  1.0000 0.3602518383
H   H43       1.0  0.90580  0.86700  0.54680  1.0000 0.3602518383
H   H44       1.0  0.86700  0.90580  0.95320  1.0000 0.3602518383
H   H45       1.0  0.06330  0.06830  0.50870  1.0000 0.370850645
H   H46       1.0  0.06830  0.06330  0.99130  1.0000 0.370850645
H   H47       1.0  0.93670  0.93170  0.49130  1.0000 0.370850645
H   H48       1.0  0.93170  0.93670  0.00870  1.0000 0.370850645
H   H49       1.0  0.72320  0.85860  0.31400  1.0000 0.1273395102
H   H50       1.0  0.85860  0.72320  0.18600  1.0000 0.1273395102
H   H51       1.0  0.27680  0.14140  0.68600  1.0000 0.1273395102
H   H52       1.0  0.14140  0.27680  0.81400  1.0000 0.1273395102
H   H53       1.0  0.70860  0.44680  0.10620  1.0000 0.1195435747
H   H54       1.0  0.44680  0.70860  0.39380  1.0000 0.1195435747
H   H55       1.0  0.29140  0.55320  0.89380  1.0000 0.1195435747
H   H56       1.0  0.55320  0.29140  0.60620  1.0000 0.1195435747
H   H57       1.0  0.48810  0.26550  0.12350  1.0000 0.1195435747
H   H58       1.0  0.26550  0.48810  0.37650  1.0000 0.1195435747
H   H59       1.0  0.51190  0.73450  0.87650  1.0000 0.1195435747
H   H60       1.0  0.73450  0.51190  0.62350  1.0000 0.1195435747
H   H61       1.0  0.75210  0.75230  0.32250  1.0000 0.1273395102
H   H62       1.0  0.75230  0.75210  0.17750  1.0000 0.1273395102
H   H63       1.0  0.24790  0.24770  0.67750  1.0000 0.1273395102
H   H64       1.0  0.24770  0.24790  0.82250  1.0000 0.1273395102
H   H65       1.0  0.64020  0.54600  0.02350  1.0000 0.1115275876
H   H66       1.0  0.54600  0.64020  0.47650  1.0000 0.1115275876
H   H67       1.0  0.35980  0.45400  0.97650  1.0000 0.1115275876
H   H68       1.0  0.45400  0.35980  0.52350  1.0000 0.1115275876
H   H69       1.0  0.41930  0.36610  0.04430  1.0000 0.1115275876
H   H70       1.0  0.36610  0.41930  0.45570  1.0000 0.1115275876
H   H71       1.0  0.58070  0.63390  0.95570  1.0000 0.1115275876
H   H72       1.0  0.63390  0.58070  0.54430  1.0000 0.1115275876
H   H73       1.0  0.89110  0.77750  0.34330  1.0000 0.0874008785
H   H74       1.0  0.77750  0.89110  0.15670  1.0000 0.0874008785
H   H75       1.0  0.10890  0.22250  0.65670  1.0000 0.0874008785
H   H76       1.0  0.22250  0.10890  0.84330  1.0000 0.0874008785
H   H77       1.0  0.66240  0.40040  0.34840  1.0000 0.1273395102
H   H78       1.0  0.40040  0.66240  0.15160  1.0000 0.1273395102
H   H79       1.0  0.33760  0.59960  0.65160  1.0000 0.1273395102
H   H80       1.0  0.59960  0.33760  0.84840  1.0000 0.1273395102
H   H81       1.0  0.80380  0.85280  0.63660  1.0000 0.1273395102
H   H82       1.0  0.85280  0.80380  0.86340  1.0000 0.1273395102
H   H83       1.0  0.19620  0.14720  0.36340  1.0000 0.1273395102
H   H84       1.0  0.14720  0.19620  0.13660  1.0000 0.1273395102
H   H85       1.0  0.17730  0.35910  0.33220  1.0000 0.1195435747
H   H86       1.0  0.35910  0.17730  0.16780  1.0000 0.1195435747
H   H87       1.0  0.82270  0.64090  0.66780  1.0000 0.1195435747
H   H88       1.0  0.64090  0.82270  0.83220  1.0000 0.1195435747
H   H89       1.0  0.00730  0.22970  0.19330  1.0000 0.0874008785
H   H90       1.0  0.22970  0.00730  0.30670  1.0000 0.0874008785
H   H91       1.0  0.99270  0.77030  0.80670  1.0000 0.0874008785
H   H92       1.0  0.77030  0.99270  0.69330  1.0000 0.0874008785
H   H93       1.0  0.63750  0.46350  0.39160  1.0000 0.1273395102
H   H94       1.0  0.46350  0.63750  0.10840  1.0000 0.1273395102
H   H95       1.0  0.36250  0.53650  0.60840  1.0000 0.1273395102
H   H96       1.0  0.53650  0.36250  0.89160  1.0000 0.1273395102
H   H97       1.0  0.84870  0.74410  0.74240  1.0000 0.1195435747
H   H98       1.0  0.74410  0.84870  0.75760  1.0000 0.1195435747
H   H99       1.0  0.15130  0.25590  0.25760  1.0000 0.1195435747
H   H100      1.0  0.25590  0.15130  0.24240  1.0000 0.1195435747
H   H101      1.0  0.26340  0.44500  0.26400  1.0000 0.1273395102
H   H102      1.0  0.44500  0.26340  0.23600  1.0000 0.1273395102
H   H103      1.0  0.73660  0.55500  0.73600  1.0000 0.1273395102
H   H104      1.0  0.55500  0.73660  0.76400  1.0000 0.1273395102
H   H105      1.0  0.73340  0.48280  0.49930  1.0000 0.1007579738
H   H106      1.0  0.48280  0.73340  0.00070  1.0000 0.1007579738
H   H107      1.0  0.26660  0.51720  0.50070  1.0000 0.1007579738
H   H108      1.0  0.51720  0.26660  0.99930  1.0000 0.1007579738
H   H109      1.0  0.20890  0.52650  0.14690  1.0000 0.1007579738
H   H110      1.0  0.52650  0.20890  0.35310  1.0000 0.1007579738
H   H111      1.0  0.79110  0.47350  0.85310  1.0000 0.1007579738
H   H112      1.0  0.47350  0.79110  0.64690  1.0000 0.1007579738
H   H113      1.0  0.07060  0.37900  0.69090  1.0000 0.1195435747
H   H114      1.0  0.37900  0.07060  0.80910  1.0000 0.1195435747
H   H115      1.0  0.92940  0.62100  0.30910  1.0000 0.1195435747
H   H116      1.0  0.62100  0.92940  0.19090  1.0000 0.1195435747
H   H117      1.0  0.05840  0.39500  0.51080  1.0000 0.1007579738
H   H118      1.0  0.39500  0.05840  0.98920  1.0000 0.1007579738
H   H119      1.0  0.94160  0.60500  0.48920  1.0000 0.1007579738
H   H120      1.0  0.60500  0.94160  0.01080  1.0000 0.1007579738
H   H121      1.0  0.82990  0.54870  0.01970  1.0000 0.1195435747
H   H122      1.0  0.54870  0.82990  0.48030  1.0000 0.1195435747
H   H123      1.0  0.17010  0.45130  0.98030  1.0000 0.1195435747
H   H124      1.0  0.45130  0.17010  0.51970  1.0000 0.1195435747
H   H125      1.0  0.77200  0.29720  0.08940  1.0000 0.1115275876
H   H126      1.0  0.29720  0.77200  0.41060  1.0000 0.1115275876
H   H127      1.0  0.22800  0.70280  0.91060  1.0000 0.1115275876
H   H128      1.0  0.70280  0.22800  0.58940  1.0000 0.1115275876
H   H129      1.0  0.13490  0.38590  0.62880  1.0000 0.1115275876
H   H130      1.0  0.38590  0.13490  0.87120  1.0000 0.1115275876
H   H131      1.0  0.86510  0.61410  0.37120  1.0000 0.1115275876
H   H132      1.0  0.61410  0.86510  0.12880  1.0000 0.1115275876
H   H133      1.0  0.73080  0.41500  0.01320  1.0000 0.1115275876
H   H134      1.0  0.41500  0.73080  0.48680  1.0000 0.1115275876
H   H135      1.0  0.26920  0.58500  0.98680  1.0000 0.1115275876
H   H136      1.0  0.58500  0.26920  0.51320  1.0000 0.1115275876
C   C1        1.0  0.82840  0.01300  0.32290  1.0000 0.6297036931
C   C2        1.0  0.01300  0.82840  0.17710  1.0000 0.6297036931
C   C3        1.0  0.17160  0.98700  0.67710  1.0000 0.6297036931
C   C4        1.0  0.98700  0.17160  0.82290  1.0000 0.6297036931
C   C5        1.0  0.65010  0.28250  0.17580  1.0000 0.608105652
C   C6        1.0  0.28250  0.65010  0.32420  1.0000 0.608105652
C   C7        1.0  0.34990  0.71750  0.82420  1.0000 0.608105652
C   C8        1.0  0.71750  0.34990  0.67580  1.0000 0.608105652
C   C9        1.0  0.84130  0.94770  0.31850  1.0000 -0.0903265801
C   C10       1.0  0.94770  0.84130  0.18150  1.0000 -0.0903265801
C   C11       1.0  0.15870  0.05230  0.68150  1.0000 -0.0903265801
C   C12       1.0  0.05230  0.15870  0.81850  1.0000 -0.0903265801
C   C13       1.0  0.60390  0.34510  0.12230  1.0000 -0.0227219449
C   C14       1.0  0.34510  0.60390  0.37770  1.0000 -0.0227219449
C   C15       1.0  0.39610  0.65490  0.87770  1.0000 -0.0227219449
C   C16       1.0  0.65490  0.39610  0.62230  1.0000 -0.0227219449
C   C17       1.0  0.77730  0.86870  0.31830  1.0000 -0.0702907834
C   C18       1.0  0.86870  0.77730  0.18170  1.0000 -0.0702907834
C   C19       1.0  0.22270  0.13130  0.68170  1.0000 -0.0702907834
C   C20       1.0  0.13130  0.22270  0.81830  1.0000 -0.0702907834
C   C21       1.0  0.92170  0.96050  0.32350  1.0000 0.1714468113
C   C22       1.0  0.96050  0.92170  0.17650  1.0000 0.1714468113
C   C23       1.0  0.07830  0.03950  0.67650  1.0000 0.1714468113
C   C24       1.0  0.03950  0.07830  0.82350  1.0000 0.1714468113
C   C25       1.0  0.64960  0.42980  0.09300  1.0000 -0.0903265801
C   C26       1.0  0.42980  0.64960  0.40700  1.0000 -0.0903265801
C   C27       1.0  0.35040  0.57020  0.90700  1.0000 -0.0903265801
C   C28       1.0  0.57020  0.35040  0.59300  1.0000 -0.0903265801
C   C29       1.0  0.51960  0.32240  0.10410  1.0000 -0.0999862608
C   C30       1.0  0.32240  0.51960  0.39590  1.0000 -0.0999862608
C   C31       1.0  0.48040  0.67760  0.89590  1.0000 -0.0999862608
C   C32       1.0  0.67760  0.48040  0.60410  1.0000 -0.0999862608
C   C33       1.0  0.78120  0.33440  0.40710  1.0000 0.6297036931
C   C34       1.0  0.33440  0.78120  0.09290  1.0000 0.6297036931
C   C35       1.0  0.21880  0.66560  0.59290  1.0000 0.6297036931
C   C36       1.0  0.66560  0.21880  0.90710  1.0000 0.6297036931
C   C37       1.0  0.89400  0.00760  0.57370  1.0000 0.6297036931
C   C38       1.0  0.00760  0.89400  0.92630  1.0000 0.6297036931
C   C39       1.0  0.10600  0.99240  0.42630  1.0000 0.6297036931
C   C40       1.0  0.99240  0.10600  0.07370  1.0000 0.6297036931
C   C41       1.0  0.01730  0.33950  0.29860  1.0000 0.6406181976
C   C42       1.0  0.33950  0.01730  0.20140  1.0000 0.6406181976
C   C43       1.0  0.98270  0.66050  0.70140  1.0000 0.6406181976
C   C44       1.0  0.66050  0.98270  0.79860  1.0000 0.6406181976
C   C45       1.0  0.79470  0.80490  0.32480  1.0000 -0.1782065426
C   C46       1.0  0.80490  0.79470  0.17520  1.0000 -0.1782065426
C   C47       1.0  0.20530  0.19510  0.67520  1.0000 -0.1782065426
C   C48       1.0  0.19510  0.20530  0.82480  1.0000 -0.1782065426
C   C49       1.0  0.99030  0.04670  0.31120  1.0000 0.1714468113
C   C50       1.0  0.04670  0.99030  0.18880  1.0000 0.1714468113
C   C51       1.0  0.00970  0.95330  0.68880  1.0000 0.1714468113
C   C52       1.0  0.95330  0.00970  0.81120  1.0000 0.1714468113
C   C53       1.0  0.60870  0.48970  0.04430  1.0000 -0.151161263
C   C54       1.0  0.48970  0.60870  0.45570  1.0000 -0.151161263
C   C55       1.0  0.39130  0.51030  0.95570  1.0000 -0.151161263
C   C56       1.0  0.51030  0.39130  0.54430  1.0000 -0.151161263
C   C57       1.0  0.47790  0.38330  0.05580  1.0000 -0.151161263
C   C58       1.0  0.38330  0.47790  0.44420  1.0000 -0.151161263
C   C59       1.0  0.52210  0.61670  0.94420  1.0000 -0.151161263
C   C60       1.0  0.61670  0.52210  0.55580  1.0000 -0.151161263
C   C61       1.0  0.77180  0.38460  0.43060  1.0000 -0.0903265801
C   C62       1.0  0.38460  0.77180  0.06940  1.0000 -0.0903265801
C   C63       1.0  0.22820  0.61540  0.56940  1.0000 -0.0903265801
C   C64       1.0  0.61540  0.22820  0.93060  1.0000 -0.0903265801
C   C65       1.0  0.92340  0.94040  0.64410  1.0000 -0.0903265801
C   C66       1.0  0.94040  0.92340  0.85590  1.0000 -0.0903265801
C   C67       1.0  0.07660  0.05960  0.35590  1.0000 -0.0903265801
C   C68       1.0  0.05960  0.07660  0.14410  1.0000 -0.0903265801
C   C69       1.0  0.07180  0.38940  0.25360  1.0000 -0.0903265801
C   C70       1.0  0.38940  0.07180  0.24640  1.0000 -0.0903265801
C   C71       1.0  0.92820  0.61060  0.74640  1.0000 -0.0903265801
C   C72       1.0  0.61060  0.92820  0.75360  1.0000 -0.0903265801
C   C73       1.0  0.87810  0.82190  0.33480  1.0000 0.059565667
C   C74       1.0  0.82190  0.87810  0.16520  1.0000 0.059565667
C   C75       1.0  0.12190  0.17810  0.66520  1.0000 0.059565667
C   C76       1.0  0.17810  0.12190  0.83480  1.0000 0.059565667
C   C77       1.0  0.52190  0.46750  0.02570  1.0000 0.0698497196
C   C78       1.0  0.46750  0.52190  0.47430  1.0000 0.0698497196
C   C79       1.0  0.47810  0.53250  0.97430  1.0000 0.0698497196
C   C80       1.0  0.53250  0.47810  0.52570  1.0000 0.0698497196
C   C81       1.0  0.70050  0.40930  0.39160  1.0000 -0.0800141432
C   C82       1.0  0.40930  0.70050  0.10840  1.0000 -0.0800141432
C   C83       1.0  0.29950  0.59070  0.60840  1.0000 -0.0800141432
C   C84       1.0  0.59070  0.29950  0.89160  1.0000 -0.0800141432
C   C85       1.0  0.83020  0.40420  0.49320  1.0000 0.1575312912
C   C86       1.0  0.40420  0.83020  0.00680  1.0000 0.1575312912
C   C87       1.0  0.16980  0.59580  0.50680  1.0000 0.1575312912
C   C88       1.0  0.59580  0.16980  0.99320  1.0000 0.1575312912
C   C89       1.0  0.86170  0.86190  0.66440  1.0000 -0.0702907834
C   C90       1.0  0.86190  0.86170  0.83560  1.0000 -0.0702907834
C   C91       1.0  0.13830  0.13810  0.33560  1.0000 -0.0702907834
C   C92       1.0  0.13810  0.13830  0.16440  1.0000 -0.0702907834
C   C93       1.0  0.15590  0.39190  0.28430  1.0000 -0.0800141432
C   C94       1.0  0.39190  0.15590  0.21570  1.0000 -0.0800141432
C   C95       1.0  0.84410  0.60810  0.71570  1.0000 -0.0800141432
C   C96       1.0  0.60810  0.84410  0.78430  1.0000 -0.0800141432
C   C97       1.0  0.04210  0.43670  0.18100  1.0000 0.152957057
C   C98       1.0  0.43670  0.04210  0.31900  1.0000 0.152957057
C   C99       1.0  0.95790  0.56330  0.81900  1.0000 0.152957057
C   C100      1.0  0.56330  0.95790  0.68100  1.0000 0.152957057
C   C101      1.0  0.02500  0.18560  0.23420  1.0000 0.0874008785
C   C102      1.0  0.18560  0.02500  0.26580  1.0000 0.0874008785
C   C103      1.0  0.97500  0.81440  0.76580  1.0000 0.0874008785
C   C104      1.0  0.81440  0.97500  0.73420  1.0000 0.0874008785
C   C105      1.0  0.68560  0.44720  0.41680  1.0000 -0.1782065426
C   C106      1.0  0.44720  0.68560  0.08320  1.0000 -0.1782065426
C   C107      1.0  0.31440  0.55280  0.58320  1.0000 -0.1782065426
C   C108      1.0  0.55280  0.31440  0.91680  1.0000 -0.1782065426
C   C109      1.0  0.91560  0.39180  0.53590  1.0000 0.152957057
C   C110      1.0  0.39180  0.91560  0.96410  1.0000 0.152957057
C   C111      1.0  0.08440  0.60820  0.46410  1.0000 0.152957057
C   C112      1.0  0.60820  0.08440  0.03590  1.0000 0.152957057
C   C113      1.0  0.88820  0.79740  0.72690  1.0000 -0.1609155134
C   C114      1.0  0.79740  0.88820  0.77310  1.0000 -0.1609155134
C   C115      1.0  0.11180  0.20260  0.27310  1.0000 -0.151161263
C   C116      1.0  0.20260  0.11180  0.22690  1.0000 -0.151161263
C   C117      1.0  0.20690  0.44250  0.24410  1.0000 -0.1609155134
C   C118      1.0  0.44250  0.20690  0.25590  1.0000 -0.1609155134
C   C119      1.0  0.79310  0.55750  0.75590  1.0000 -0.1609155134
C   C120      1.0  0.55750  0.79310  0.74410  1.0000 -0.1609155134
C   C121      1.0  0.95090  0.43170  0.13840  1.0000 0.152957057
C   C122      1.0  0.43170  0.95090  0.36160  1.0000 0.152957057
C   C123      1.0  0.04910  0.56830  0.86160  1.0000 0.152957057
C   C124      1.0  0.56830  0.04910  0.63840  1.0000 0.152957057
C   C125      1.0  0.74470  0.46010  0.48080  1.0000 0.0698497196
C   C126      1.0  0.46010  0.74470  0.01920  1.0000 0.0698497196
C   C127      1.0  0.25530  0.53990  0.51920  1.0000 0.0698497196
C   C128      1.0  0.53990  0.25530  0.98080  1.0000 0.0698497196
C   C129      1.0  0.95680  0.38180  0.60860  1.0000 -0.0587774935
C   C130      1.0  0.38180  0.95680  0.89140  1.0000 -0.0587774935
C   C131      1.0  0.04320  0.61820  0.39140  1.0000 -0.0587774935
C   C132      1.0  0.61820  0.04320  0.10860  1.0000 -0.0587774935
C   C133      1.0  0.17300  0.48980  0.17350  1.0000 0.08287777
C   C134      1.0  0.48980  0.17300  0.32650  1.0000 0.08287777
C   C135      1.0  0.82700  0.51020  0.82650  1.0000 0.08287777
C   C136      1.0  0.51020  0.82700  0.67350  1.0000 0.08287777
C   C137      1.0  0.92900  0.50660  0.09680  1.0000 -0.0999862608
C   C138      1.0  0.50660  0.92900  0.40320  1.0000 -0.0999862608
C   C139      1.0  0.07100  0.49340  0.90320  1.0000 -0.0999862608
C   C140      1.0  0.49340  0.07100  0.59680  1.0000 -0.0999862608
C   C141      1.0  0.04080  0.38200  0.64340  1.0000 -0.0702907834
C   C142      1.0  0.38200  0.04080  0.85660  1.0000 -0.0702907834
C   C143      1.0  0.95920  0.61800  0.35660  1.0000 -0.0702907834
C   C144      1.0  0.61800  0.95920  0.14340  1.0000 -0.0702907834
C   C145      1.0  0.91683  0.36557  0.65540  1.0000 0.5763143972
C   C146      1.0  0.36557  0.91683  0.84460  1.0000 0.5763143972
C   C147      1.0  0.08317  0.63443  0.34460  1.0000 0.5763143972
C   C148      1.0  0.63443  0.08317  0.15540  1.0000 0.5763143972
C   C149      1.0  0.03300  0.39340  0.53530  1.0000 0.0698497196
C   C150      1.0  0.39340  0.03300  0.96470  1.0000 0.0698497196
C   C151      1.0  0.96700  0.60660  0.46470  1.0000 0.0698497196
C   C152      1.0  0.60660  0.96700  0.03530  1.0000 0.0698497196
C   C153      1.0  0.84590  0.50010  0.04910  1.0000 -0.0702907834
C   C154      1.0  0.50010  0.84590  0.45090  1.0000 -0.0702907834
C   C155      1.0  0.15410  0.49990  0.95090  1.0000 -0.0702907834
C   C156      1.0  0.49990  0.15410  0.54910  1.0000 -0.0702907834
C   C157      1.0  0.99490  0.58990  0.10640  1.0000 0.6297036931
C   C158      1.0  0.58990  0.99490  0.39360  1.0000 0.6297036931
C   C159      1.0  0.00510  0.41010  0.89360  1.0000 0.6297036931
C   C160      1.0  0.41010  0.00510  0.60640  1.0000 0.6297036931
C   C161      1.0  0.81280  0.35060  0.09110  1.0000 0.1115275876
C   C162      1.0  0.35060  0.81280  0.40890  1.0000 0.1115275876
C   C163      1.0  0.18720  0.64940  0.90890  1.0000 0.1115275876
C   C164      1.0  0.64940  0.18720  0.59110  1.0000 0.1115275876
C   C165      1.0  0.07950  0.38690  0.60660  1.0000 -0.1609155134
C   C166      1.0  0.38690  0.07950  0.89340  1.0000 -0.1609155134
C   C167      1.0  0.92050  0.61310  0.39340  1.0000 -0.1609155134
C   C168      1.0  0.61310  0.92050  0.10660  1.0000 -0.1609155134
C   C169      1.0  0.78680  0.42080  0.04560  1.0000 -0.151161263
C   C170      1.0  0.42080  0.78680  0.45440  1.0000 -0.151161263
C   C171      1.0  0.21320  0.57920  0.95440  1.0000 -0.151161263
C   C172      1.0  0.57920  0.21320  0.54560  1.0000 -0.151161263
N   N1        1.0  0.93947  0.89713  0.33280  1.0000 -0.2752931565
N   N2        1.0  0.89713  0.93947  0.16720  1.0000 -0.2752931565
N   N3        1.0  0.06053  0.10287  0.66720  1.0000 -0.2752931565
N   N4        1.0  0.10287  0.06053  0.83280  1.0000 -0.2752931565
N   N5        1.0  0.96558  0.11082  0.25150  1.0000 -0.2551297099
N   N6        1.0  0.11082  0.96558  0.24850  1.0000 -0.2551297099
N   N7        1.0  0.03442  0.88918  0.74850  1.0000 -0.2551297099
N   N8        1.0  0.88918  0.03442  0.75150  1.0000 -0.2551297099
N   N9        1.0  0.81695  0.44185  0.51780  1.0000 -0.2674488835
N   N10       1.0  0.44185  0.81695  0.98220  1.0000 -0.2674488835
N   N11       1.0  0.18305  0.55815  0.48220  1.0000 -0.2674488835
N   N12       1.0  0.55815  0.18305  0.01780  1.0000 -0.2674488835
N   N13       1.0  0.09140  0.48600  0.14100  1.0000 -0.2674488835
N   N14       1.0  0.48600  0.09140  0.35900  1.0000 -0.2674488835
N   N15       1.0  0.90860  0.51400  0.85900  1.0000 -0.2674488835
N   N16       1.0  0.51400  0.90860  0.64100  1.0000 -0.2674488835
N   N17       1.0  0.95396  0.39744  0.49980  1.0000 -0.2534165159
N   N18       1.0  0.39744  0.95396  0.00020  1.0000 -0.2534165159
N   N19       1.0  0.04604  0.60256  0.50020  1.0000 -0.2534165159
N   N20       1.0  0.60256  0.04604  0.99980  1.0000 -0.2534165159
N   N21       1.0  0.89220  0.35380  0.13760  1.0000 -0.2551297099
N   N22       1.0  0.35380  0.89220  0.36240  1.0000 -0.2551297099
N   N23       1.0  0.10780  0.64620  0.86240  1.0000 -0.2551297099
N   N24       1.0  0.64620  0.10780  0.63760  1.0000 -0.2551297099
O   O1        1.0  0.75499  0.01701  0.29390  1.0000 -0.5792912021
O   O2        1.0  0.01701  0.75499  0.20610  1.0000 -0.5792912021
O   O3        1.0  0.24501  0.98299  0.70610  1.0000 -0.5792912021
O   O4        1.0  0.98299  0.24501  0.79390  1.0000 -0.5792912021
O   O5        1.0  0.60892  0.20348  0.19500  1.0000 -0.548216708
O   O6        1.0  0.20348  0.60892  0.30500  1.0000 -0.548216708
O   O7        1.0  0.39108  0.79652  0.80500  1.0000 -0.548216708
O   O8        1.0  0.79652  0.39108  0.69500  1.0000 -0.548216708
O   O9        1.0  0.72443  0.19857  0.33850  1.0000 -0.9792427893
O   O10       1.0  0.19857  0.72443  0.16150  1.0000 -0.9792427893
O   O11       1.0  0.27557  0.80143  0.66150  1.0000 -0.9792427893
O   O12       1.0  0.80143  0.27557  0.83850  1.0000 -0.9792427893
O   O13       1.0  0.79278  0.07442  0.40555  1.0000 -1.0296401457
O   O14       1.0  0.07442  0.79278  0.09445  1.0000 -1.0296401457
O   O15       1.0  0.20722  0.92558  0.59445  1.0000 -1.0296401457
O   O16       1.0  0.92558  0.20722  0.90555  1.0000 -1.0296401457
O   O17       1.0  0.84117  0.21023  0.29500  1.0000 -0.9744341448
O   O18       1.0  0.21023  0.84117  0.20500  1.0000 -0.9792427893
O   O19       1.0  0.15883  0.78977  0.70500  1.0000 -0.9792427893
O   O20       1.0  0.78977  0.15883  0.79500  1.0000 -0.9744341448
O   O21       1.0  0.59677  0.01343  0.33610  1.0000 -0.6003606146
O   O22       1.0  0.01343  0.59677  0.16390  1.0000 -0.6003606146
O   O23       1.0  0.40323  0.98657  0.66390  1.0000 -0.6003606146
O   O24       1.0  0.98657  0.40323  0.83610  1.0000 -0.6003606146
O   O25       1.0  0.70032  0.14872  0.16380  1.0000 -0.5696826056
O   O26       1.0  0.14872  0.70032  0.33620  1.0000 -0.5696826056
O   O27       1.0  0.29968  0.85128  0.83620  1.0000 -0.5696826056
O   O28       1.0  0.85128  0.29968  0.66380  1.0000 -0.5696826056
O   O29       1.0  0.58808  0.04372  0.19310  1.0000 -0.60883791
O   O30       1.0  0.04372  0.58808  0.30690  1.0000 -0.60883791
O   O31       1.0  0.41192  0.95628  0.80690  1.0000 -0.60883791
O   O32       1.0  0.95628  0.41192  0.69310  1.0000 -0.60883791
O   O33       1.0  0.89435  0.05645  0.35960  1.0000 -0.6003606146
O   O34       1.0  0.05645  0.89435  0.14040  1.0000 -0.6003606146
O   O35       1.0  0.10565  0.94355  0.64040  1.0000 -0.6003606146
O   O36       1.0  0.94355  0.10565  0.85960  1.0000 -0.6003606146
O   O37       1.0  0.73169  0.31311  0.19980  1.0000 -0.60883791
O   O38       1.0  0.31311  0.73169  0.30020  1.0000 -0.60883791
O   O39       1.0  0.26831  0.68689  0.80020  1.0000 -0.60883791
O   O40       1.0  0.68689  0.26831  0.69980  1.0000 -0.60883791
O   O41       1.0  0.78548  0.26232  0.45130  1.0000 -0.5696826056
O   O42       1.0  0.26232  0.78548  0.04870  1.0000 -0.5696826056
O   O43       1.0  0.21452  0.73768  0.54870  1.0000 -0.5696826056
O   O44       1.0  0.73768  0.21452  0.95130  1.0000 -0.5696826056
O   O45       1.0  0.89804  0.23436  0.42193  1.0000 -1.1090442911
O   O46       1.0  0.23436  0.89804  0.07807  1.0000 -1.1090442911
O   O47       1.0  0.10196  0.76564  0.57807  1.0000 -1.1090442911
O   O48       1.0  0.76564  0.10196  0.92193  1.0000 -1.1090442911
O   O49       1.0  0.71905  0.09715  0.54540  1.0000 -0.7294765487
O   O50       1.0  0.09715  0.71905  0.95460  1.0000 -0.7294765487
O   O51       1.0  0.28095  0.90285  0.45460  1.0000 -0.7294765487
O   O52       1.0  0.90285  0.28095  0.04540  1.0000 -0.7294765487
O   O53       1.0  0.91406  0.18154  0.56450  1.0000 -0.7242718116
O   O54       1.0  0.18154  0.91406  0.93550  1.0000 -0.7242718116
O   O55       1.0  0.08594  0.81846  0.43550  1.0000 -0.7242718116
O   O56       1.0  0.81846  0.08594  0.06450  1.0000 -0.7242718116
O   O57       1.0  0.82616  0.01464  0.55780  1.0000 -0.6003606146
O   O58       1.0  0.01464  0.82616  0.94220  1.0000 -0.6003606146
O   O59       1.0  0.17384  0.98536  0.44220  1.0000 -0.6003606146
O   O60       1.0  0.98536  0.17384  0.05780  1.0000 -0.6003606146
O   O61       1.0  0.64604  0.02476  0.44170  1.0000 -0.587494053
O   O62       1.0  0.02476  0.64604  0.05830  1.0000 -0.587494053
O   O63       1.0  0.35396  0.97524  0.55830  1.0000 -0.587494053
O   O64       1.0  0.97524  0.35396  0.94170  1.0000 -0.587494053
O   O65       1.0  0.96777  0.37263  0.28480  1.0000 -0.5792912021
O   O66       1.0  0.37263  0.96777  0.21520  1.0000 -0.5792912021
O   O67       1.0  0.03223  0.62737  0.71520  1.0000 -0.5792912021
O   O68       1.0  0.62737  0.03223  0.78480  1.0000 -0.5792912021
O   O69       1.0  0.78042  0.36698  0.34320  1.0000 -0.6193219034
O   O70       1.0  0.36698  0.78042  0.15680  1.0000 -0.6193219034
O   O71       1.0  0.21958  0.63302  0.65680  1.0000 -0.6193219034
O   O72       1.0  0.63302  0.21958  0.84320  1.0000 -0.6193219034
O   O73       1.0  0.86668  0.47612  0.21900  1.0000 -0.7294765487
O   O74       1.0  0.47612  0.86668  0.28100  1.0000 -0.7294765487
O   O75       1.0  0.13332  0.52388  0.78100  1.0000 -0.7294765487
O   O76       1.0  0.52388  0.13332  0.71900  1.0000 -0.7294765487
O   O77       1.0  0.95781  0.42239  0.37330  1.0000 -0.751867883
O   O78       1.0  0.42239  0.95781  0.12670  1.0000 -0.751867883
O   O79       1.0  0.04219  0.57761  0.62670  1.0000 -0.751867883
O   O80       1.0  0.57761  0.04219  0.87330  1.0000 -0.751867883
O   O81       1.0  0.02473  0.26907  0.34660  1.0000 -0.6193219034
O   O82       1.0  0.26907  0.02473  0.15340  1.0000 -0.6193219034
O   O83       1.0  0.97527  0.73093  0.65340  1.0000 -0.6193219034
O   O84       1.0  0.73093  0.97527  0.84660  1.0000 -0.6193219034
O   O85       1.0  0.06442  0.21878  0.49870  1.0000 -0.7294765487
O   O86       1.0  0.21878  0.06442  0.00130  1.0000 -0.7294765487
O   O87       1.0  0.93558  0.78122  0.50130  1.0000 -0.7294765487
O   O88       1.0  0.78122  0.93558  0.99870  1.0000 -0.7294765487
O   O89       1.0  0.04972  0.09228  0.46300  1.0000 -0.7376821116
O   O90       1.0  0.09228  0.04972  0.03700  1.0000 -0.7376821116
O   O91       1.0  0.95028  0.90772  0.53700  1.0000 -0.7376821116
O   O92       1.0  0.90772  0.95028  0.96300  1.0000 -0.7376821116
O   O93       1.0  0.93970  0.05230  0.53450  1.0000 -0.6257367209
O   O94       1.0  0.05230  0.93970  0.96550  1.0000 -0.6257367209
O   O95       1.0  0.06030  0.94770  0.46550  1.0000 -0.6257367209
O   O96       1.0  0.94770  0.06030  0.03450  1.0000 -0.6193219034
