# DDEC6 charges by PACMAN v1.1 (https://github.com/mtap-research/PACMAN-charge/)
data_2013[Er][dia]3[FSR]1
_chemical_formula_sum              "Er4 H12 C16 O36"
_cell_length_a       9.6103
_cell_length_b       11.531
_cell_length_c       14.2966
_cell_angle_alpha    90
_cell_angle_beta     122.566
_cell_angle_gamma    90

_symmetry_space_group_name_H-M    "P 1"
_symmetry_Int_Tables_number       1

loop_
  _symmetry_equiv_pos_as_xyz
  'x, y, z'

loop_
  _atom_site_type_symbol
  _atom_site_label
  _atom_site_symmetry_multiplicity
  _atom_site_fract_x
  _atom_site_fract_y
  _atom_site_fract_z
  _atom_site_occupancy
  _atom_site_charge
Er  Er1       1.0  0.11789  0.01152  0.33298  1.0000 1.9584463971
Er  Er2       1.0  0.88211  0.51152  0.16702  1.0000 1.9584463971
Er  Er3       1.0  0.88211  0.98848  0.66702  1.0000 1.9584463971
Er  Er4       1.0  0.11789  0.48848  0.83298  1.0000 1.9584463971
H   H1        1.0  0.14830  0.08150  0.15550  1.0000 0.2993299017
H   H2        1.0  0.85170  0.58150  0.34450  1.0000 0.2993299017
H   H3        1.0  0.85170  0.91850  0.84450  1.0000 0.2993299017
H   H4        1.0  0.14830  0.41850  0.65550  1.0000 0.2993299017
H   H5        1.0  0.00320  0.01760  0.10540  1.0000 0.2906850862
H   H6        1.0  0.99680  0.51760  0.39460  1.0000 0.2906850862
H   H7        1.0  0.99680  0.98240  0.89460  1.0000 0.2906850862
H   H8        1.0  0.00320  0.48240  0.60540  1.0000 0.2906850862
H   H9        1.0  0.15430  0.96130  0.15430  1.0000 0.2993299017
H   H10       1.0  0.84570  0.46130  0.34570  1.0000 0.2993299017
H   H11       1.0  0.84570  0.03870  0.84570  1.0000 0.2993299017
H   H12       1.0  0.15430  0.53870  0.65430  1.0000 0.2993299017
C   C1        1.0  0.08350  0.74150  0.28370  1.0000 0.530743394
C   C2        1.0  0.91650  0.24150  0.21630  1.0000 0.530743394
C   C3        1.0  0.91650  0.25850  0.71630  1.0000 0.530743394
C   C4        1.0  0.08350  0.75850  0.78370  1.0000 0.530743394
C   C5        1.0  0.90350  0.78590  0.20780  1.0000 0.530743394
C   C6        1.0  0.09650  0.28590  0.29220  1.0000 0.530743394
C   C7        1.0  0.09650  0.21410  0.79220  1.0000 0.530743394
C   C8        1.0  0.90350  0.71410  0.70780  1.0000 0.530743394
C   C9        1.0  0.99480  0.06610  0.49880  1.0000 0.530743394
C   C10       1.0  0.00520  0.56610  0.00120  1.0000 0.530743394
C   C11       1.0  0.00520  0.93390  0.50120  1.0000 0.530743394
C   C12       1.0  0.99480  0.43390  0.99880  1.0000 0.530743394
C   C13       1.0  0.51600  0.99930  0.45300  1.0000 0.5395351486
C   C14       1.0  0.48400  0.49930  0.04700  1.0000 0.5395351486
C   C15       1.0  0.48400  0.00070  0.54700  1.0000 0.5395351486
C   C16       1.0  0.51600  0.50070  0.95300  1.0000 0.5395351486
O   O1        1.0  0.19360  0.81710  0.32980  1.0000 -0.5678746862
O   O2        1.0  0.80640  0.31710  0.17020  1.0000 -0.5678746862
O   O3        1.0  0.80640  0.18290  0.67020  1.0000 -0.5678746862
O   O4        1.0  0.19360  0.68290  0.82980  1.0000 -0.5678746862
O   O5        1.0  0.10350  0.63440  0.29210  1.0000 -0.5500149869
O   O6        1.0  0.89650  0.13440  0.20790  1.0000 -0.5500149869
O   O7        1.0  0.89650  0.36560  0.70790  1.0000 -0.5500149869
O   O8        1.0  0.10350  0.86560  0.79210  1.0000 -0.5500149869
O   O9        1.0  0.88240  0.89300  0.20520  1.0000 -0.5500149869
O   O10       1.0  0.11760  0.39300  0.29480  1.0000 -0.5500149869
O   O11       1.0  0.11760  0.10700  0.79480  1.0000 -0.5500149869
O   O12       1.0  0.88240  0.60700  0.70520  1.0000 -0.5500149869
O   O13       1.0  0.79440  0.70920  0.15670  1.0000 -0.5678746862
O   O14       1.0  0.20560  0.20920  0.34330  1.0000 -0.5678746862
O   O15       1.0  0.20560  0.29080  0.84330  1.0000 -0.5678746862
O   O16       1.0  0.79440  0.79080  0.65670  1.0000 -0.5678746862
O   O17       1.0  0.02020  0.11770  0.43200  1.0000 -0.5500149869
O   O18       1.0  0.97980  0.61770  0.06800  1.0000 -0.5500149869
O   O19       1.0  0.97980  0.88230  0.56800  1.0000 -0.5500149869
O   O20       1.0  0.02020  0.38230  0.93200  1.0000 -0.5500149869
O   O21       1.0  0.95970  0.11230  0.56250  1.0000 -0.5396312041
O   O22       1.0  0.04030  0.61230  0.93750  1.0000 -0.5396312041
O   O23       1.0  0.04030  0.88770  0.43750  1.0000 -0.5396312041
O   O24       1.0  0.95970  0.38770  0.06250  1.0000 -0.5396312041
O   O25       1.0  0.38920  0.00780  0.35580  1.0000 -0.5500149869
O   O26       1.0  0.61080  0.50780  0.14420  1.0000 -0.5500149869
O   O27       1.0  0.61080  0.99220  0.64420  1.0000 -0.5615909083
O   O28       1.0  0.38920  0.49220  0.85580  1.0000 -0.5500149869
O   O29       1.0  0.66060  0.98920  0.47840  1.0000 -0.5396312041
O   O30       1.0  0.33940  0.48920  0.02160  1.0000 -0.5396312041
O   O31       1.0  0.33940  0.01080  0.52160  1.0000 -0.5396312041
O   O32       1.0  0.66060  0.51080  0.97840  1.0000 -0.5396312041
O   O33       1.0  0.10370  0.01930  0.15880  1.0000 -0.5615909083
O   O34       1.0  0.89630  0.51930  0.34120  1.0000 -0.5615909083
O   O35       1.0  0.89630  0.98070  0.84120  1.0000 -0.5615909083
O   O36       1.0  0.10370  0.48070  0.65880  1.0000 -0.5615909083
