# DDEC6 charges by PACMAN v1.1 (https://github.com/mtap-research/PACMAN-charge/)
data_2013[Ce][nan]3[FSR]3
_chemical_formula_sum              "Ce2 H32 C48 S6 N2 O14"
_cell_length_a       14.1969
_cell_length_b       14.1969
_cell_length_c       8.172
_cell_angle_alpha    88.9524
_cell_angle_beta     91.0476
_cell_angle_gamma    110.241

_symmetry_space_group_name_H-M    "P 1"
_symmetry_Int_Tables_number       1

loop_
  _symmetry_equiv_pos_as_xyz
  'x, y, z'

loop_
  _atom_site_type_symbol
  _atom_site_label
  _atom_site_symmetry_multiplicity
  _atom_site_fract_x
  _atom_site_fract_y
  _atom_site_fract_z
  _atom_site_occupancy
  _atom_site_charge
Ce  Ce1       1.0  0.08553  0.94757  0.39888  1.0000 1.9740724323
Ce  Ce2       1.0  0.05243  0.91447  0.89888  1.0000 1.9740724323
H   H1        1.0  0.70070  0.13310  0.90260  1.0000 0.1172058826
H   H2        1.0  0.86690  0.29930  0.40260  1.0000 0.1172058826
H   H3        1.0  0.89510  0.41470  0.97250  1.0000 0.1069987871
H   H4        1.0  0.58530  0.10490  0.47250  1.0000 0.1069987871
H   H5        1.0  0.60860  0.33960  0.12290  1.0000 0.1172058826
H   H6        1.0  0.66040  0.39140  0.62290  1.0000 0.1172058826
H   H7        1.0  0.35000  0.95280  0.94070  1.0000 0.1315854369
H   H8        1.0  0.04720  0.65000  0.44070  1.0000 0.1315854369
H   H9        1.0  0.52820  0.03800  0.87450  1.0000 0.1315854369
H   H10       1.0  0.96200  0.47180  0.37450  1.0000 0.1315854369
H   H11       1.0  0.08780  0.29980  0.61780  1.0000 0.1386687026
H   H12       1.0  0.70020  0.91220  0.11780  1.0000 0.1386687026
H   H13       1.0  0.99150  0.38330  0.77020  1.0000 0.1172058826
H   H14       1.0  0.61670  0.00850  0.27020  1.0000 0.1172058826
H   H15       1.0  0.73400  0.65880  0.35080  1.0000 0.1386687026
H   H16       1.0  0.34120  0.26600  0.85080  1.0000 0.1386687026
H   H17       1.0  0.65590  0.48250  0.27070  1.0000 0.1315854369
H   H18       1.0  0.51750  0.34410  0.77070  1.0000 0.1315854369
H   H19       1.0  0.17560  0.76340  0.21600  1.0000 0.1069987871
H   H20       1.0  0.23660  0.82440  0.71600  1.0000 0.1069987871
H   H21       1.0  0.27620  0.70200  0.08080  1.0000 0.1315854369
H   H22       1.0  0.29800  0.72380  0.58080  1.0000 0.1315854369
H   H23       1.0  0.38680  0.78160  0.05570  1.0000 0.1386687026
H   H24       1.0  0.21840  0.61320  0.55570  1.0000 0.1386687026
H   H25       1.0  0.36760  0.69440  0.19130  1.0000 0.1386687026
H   H26       1.0  0.30560  0.63240  0.69130  1.0000 0.1386687026
H   H27       1.0  0.38000  0.90180  0.44410  1.0000 0.1386687026
H   H28       1.0  0.09820  0.62000  0.94410  1.0000 0.1386687026
H   H29       1.0  0.45110  0.84390  0.38190  1.0000 0.1386687026
H   H30       1.0  0.15610  0.54890  0.88190  1.0000 0.1386687026
H   H31       1.0  0.43870  0.93470  0.27540  1.0000 0.1315854369
H   H32       1.0  0.06530  0.56130  0.77540  1.0000 0.1315854369
C   C1        1.0  0.63820  0.22380  0.01740  1.0000 0.1069987871
C   C2        1.0  0.77620  0.36180  0.51740  1.0000 0.1069987871
C   C3        1.0  0.71430  0.19930  0.94120  1.0000 -0.1942108738
C   C4        1.0  0.80070  0.28570  0.44120  1.0000 -0.1942108738
C   C5        1.0  0.81010  0.27130  0.92120  1.0000 0.0989515299
C   C6        1.0  0.72870  0.18990  0.42120  1.0000 0.0989515299
C   C7        1.0  0.82940  0.36660  0.98240  1.0000 -0.2109113278
C   C8        1.0  0.63340  0.17060  0.48240  1.0000 -0.2109113278
C   C9        1.0  0.75620  0.39420  0.05780  1.0000 0.0989515299
C   C10       1.0  0.60580  0.24380  0.55780  1.0000 0.0989515299
C   C11       1.0  0.66000  0.32180  0.07330  1.0000 -0.2018413188
C   C12       1.0  0.67820  0.34000  0.57330  1.0000 -0.2018413188
C   C13       1.0  0.53580  0.14880  0.03360  1.0000 -0.00983447
C   C14       1.0  0.85120  0.46420  0.53360  1.0000 -0.00983447
C   C15       1.0  0.35870  0.06430  0.10170  1.0000 -0.0918455141
C   C16       1.0  0.93570  0.64130  0.60170  1.0000 -0.0918455141
C   C17       1.0  0.39120  0.01400  0.98870  1.0000 -0.1267163696
C   C18       1.0  0.98600  0.60880  0.48870  1.0000 -0.1267163696
C   C19       1.0  0.49310  0.06290  0.95070  1.0000 -0.1781862991
C   C20       1.0  0.93710  0.50690  0.45070  1.0000 -0.1781862991
C   C21       1.0  0.25550  0.03610  0.17360  1.0000 0.5972518681
C   C22       1.0  0.96390  0.74450  0.67360  1.0000 0.5972518681
C   C23       1.0  0.88730  0.24570  0.83480  1.0000 -0.0166469922
C   C24       1.0  0.75430  0.11270  0.33480  1.0000 -0.0166469922
C   C25       1.0  0.98690  0.16050  0.68690  1.0000 -0.1357981654
C   C26       1.0  0.83950  0.01310  0.18690  1.0000 -0.1357981654
C   C27       1.0  0.02850  0.26470  0.67640  1.0000 -0.1034218518
C   C28       1.0  0.73530  0.97150  0.17640  1.0000 -0.1034218518
C   C29       1.0  0.97250  0.31250  0.76260  1.0000 -0.1781862991
C   C30       1.0  0.68750  0.02750  0.26260  1.0000 -0.1781862991
C   C31       1.0  0.02240  0.08800  0.60980  1.0000 0.5711468218
C   C32       1.0  0.91200  0.97760  0.10980  1.0000 0.5711468218
C   C33       1.0  0.77710  0.49550  0.12710  1.0000 -0.0274480673
C   C34       1.0  0.50450  0.22290  0.62710  1.0000 -0.0274480673
C   C35       1.0  0.85420  0.67160  0.20470  1.0000 -0.1034218518
C   C36       1.0  0.32840  0.14580  0.70470  1.0000 -0.1034218518
C   C37       1.0  0.76350  0.62610  0.27770  1.0000 -0.1095534058
C   C38       1.0  0.37390  0.23650  0.77770  1.0000 -0.1095534058
C   C39       1.0  0.71920  0.52540  0.23240  1.0000 -0.1700999977
C   C40       1.0  0.47460  0.28080  0.73240  1.0000 -0.1700999977
C   C41       1.0  0.92510  0.77370  0.24110  1.0000 0.5842202661
C   C42       1.0  0.22630  0.07490  0.74110  1.0000 0.5842202661
C   C43       1.0  0.22830  0.80470  0.28350  1.0000 0.2915322242
C   C44       1.0  0.19530  0.77170  0.78350  1.0000 0.2915322242
C   C45       1.0  0.33920  0.74060  0.13630  1.0000 -0.3576996865
C   C46       1.0  0.25940  0.66080  0.63630  1.0000 -0.3576996865
C   C47       1.0  0.40430  0.87770  0.34740  1.0000 -0.3491068574
C   C48       1.0  0.12230  0.59570  0.84740  1.0000 -0.3491068574
S   S1        1.0  0.45201  0.17027  0.16620  1.0000 0.1172058826
S   S2        1.0  0.82973  0.54799  0.66620  1.0000 0.1172058826
S   S3        1.0  0.87954  0.12400  0.80310  1.0000 0.1624939797
S   S4        1.0  0.87600  0.12046  0.30310  1.0000 0.1624939797
S   S5        1.0  0.88530  0.59296  0.08030  1.0000 0.1386687026
S   S6        1.0  0.40704  0.11470  0.58030  1.0000 0.1386687026
N   N1        1.0  0.31930  0.80710  0.25950  1.0000 0.0310300721
N   N2        1.0  0.19290  0.68070  0.75950  1.0000 0.0310300721
O   O1        1.0  0.18540  0.96360  0.11040  1.0000 -0.6667373421
O   O2        1.0  0.03640  0.81460  0.61040  1.0000 -0.6667373421
O   O3        1.0  0.24140  0.08180  0.29580  1.0000 -0.5660876276
O   O4        1.0  0.91820  0.75860  0.79580  1.0000 -0.5660876276
O   O5        1.0  0.08420  0.11520  0.49540  1.0000 -0.5487626436
O   O6        1.0  0.88480  0.91580  0.99540  1.0000 -0.5487626436
O   O7        1.0  0.98830  0.99470  0.65820  1.0000 -0.6908695938
O   O8        1.0  0.00530  0.01170  0.15820  1.0000 -0.6908695938
O   O9        1.0  0.90520  0.82600  0.34940  1.0000 -0.5487626436
O   O10       1.0  0.17400  0.09480  0.84940  1.0000 -0.5487626436
O   O11       1.0  0.00910  0.80730  0.16390  1.0000 -0.6970530989
O   O12       1.0  0.19270  0.99090  0.66390  1.0000 -0.6970530989
O   O13       1.0  0.20730  0.85570  0.39410  1.0000 -0.5448764207
O   O14       1.0  0.14430  0.79270  0.89410  1.0000 -0.5448764207
