# DDEC6 charges by PACMAN v1.1 (https://github.com/mtap-research/PACMAN-charge/)
data_2013[Cd][nan]3[FSR]9
_chemical_formula_sum              "Cd6 H96 C124 O40"
_cell_length_a       15.438
_cell_length_b       11.075
_cell_length_c       19.18
_cell_angle_alpha    90
_cell_angle_beta     95.796
_cell_angle_gamma    90

_symmetry_space_group_name_H-M    "P 1"
_symmetry_Int_Tables_number       1

loop_
  _symmetry_equiv_pos_as_xyz
  'x, y, z'

loop_
  _atom_site_type_symbol
  _atom_site_label
  _atom_site_symmetry_multiplicity
  _atom_site_fract_x
  _atom_site_fract_y
  _atom_site_fract_z
  _atom_site_occupancy
  _atom_site_charge
Cd  Cd1       1.0  0.50000  0.54504  0.75000  1.0000 1.1189324146
Cd  Cd2       1.0  0.50000  0.45496  0.25000  1.0000 1.1189324146
Cd  Cd3       1.0  0.45605  0.44237  0.57774  1.0000 1.0110165363
Cd  Cd4       1.0  0.54395  0.44237  0.92226  1.0000 1.0110165363
Cd  Cd5       1.0  0.54395  0.55763  0.42226  1.0000 1.0110165363
Cd  Cd6       1.0  0.45605  0.55763  0.07774  1.0000 1.0110165363
H   H1        1.0  0.70610  0.76650  0.99000  1.0000 0.130697388
H   H2        1.0  0.29390  0.76650  0.51000  1.0000 0.130697388
H   H3        1.0  0.29390  0.23350  0.01000  1.0000 0.130697388
H   H4        1.0  0.70610  0.23350  0.49000  1.0000 0.130697388
H   H5        1.0  0.80750  0.92080  0.01180  1.0000 0.1404223969
H   H6        1.0  0.19250  0.92080  0.48820  1.0000 0.1404223969
H   H7        1.0  0.19250  0.07920  0.98820  1.0000 0.1404223969
H   H8        1.0  0.80750  0.07920  0.51180  1.0000 0.1404223969
H   H9        1.0  0.77390  0.01510  0.80990  1.0000 0.1404223969
H   H10       1.0  0.22610  0.01510  0.69010  1.0000 0.1404223969
H   H11       1.0  0.22610  0.98490  0.19010  1.0000 0.1404223969
H   H12       1.0  0.77390  0.98490  0.30990  1.0000 0.1404223969
H   H13       1.0  0.67250  0.86240  0.78830  1.0000 0.1212585533
H   H14       1.0  0.32750  0.86240  0.71170  1.0000 0.1212585533
H   H15       1.0  0.32750  0.13760  0.21170  1.0000 0.1212585533
H   H16       1.0  0.67250  0.13760  0.28830  1.0000 0.1212585533
H   H17       1.0  0.97850  0.22740  0.91500  1.0000 0.1687884962
H   H18       1.0  0.02150  0.22740  0.58500  1.0000 0.1687884962
H   H19       1.0  0.02150  0.77260  0.08500  1.0000 0.1687884962
H   H20       1.0  0.97850  0.77260  0.41500  1.0000 0.1687884962
H   H21       1.0  0.15800  0.02100  0.83200  1.0000 0.1586220728
H   H22       1.0  0.84200  0.02100  0.66800  1.0000 0.1586220728
H   H23       1.0  0.84200  0.97900  0.16800  1.0000 0.1586220728
H   H24       1.0  0.15800  0.97900  0.33200  1.0000 0.1586220728
H   H25       1.0  0.93240  0.87120  0.87650  1.0000 0.1586220728
H   H26       1.0  0.06760  0.87120  0.62350  1.0000 0.1586220728
H   H27       1.0  0.06760  0.12880  0.12350  1.0000 0.1586220728
H   H28       1.0  0.93240  0.12880  0.37650  1.0000 0.1586220728
H   H29       1.0  0.28910  0.28700  0.89040  1.0000 0.1497320568
H   H30       1.0  0.71090  0.28700  0.60960  1.0000 0.1497320568
H   H31       1.0  0.71090  0.71300  0.10960  1.0000 0.1497320568
H   H32       1.0  0.28910  0.71300  0.39040  1.0000 0.1497320568
H   H33       1.0  0.38110  0.32910  0.80580  1.0000 0.130697388
H   H34       1.0  0.61890  0.32910  0.69420  1.0000 0.130697388
H   H35       1.0  0.61890  0.67090  0.19420  1.0000 0.130697388
H   H36       1.0  0.38110  0.67090  0.30580  1.0000 0.130697388
H   H37       1.0  0.18460  0.28130  0.65560  1.0000 0.1212585533
H   H38       1.0  0.81540  0.28130  0.84440  1.0000 0.1212585533
H   H39       1.0  0.81540  0.71870  0.34440  1.0000 0.1212585533
H   H40       1.0  0.18460  0.71870  0.15560  1.0000 0.1212585533
H   H41       1.0  0.09330  0.23390  0.74010  1.0000 0.130697388
H   H42       1.0  0.90670  0.23390  0.75990  1.0000 0.130697388
H   H43       1.0  0.90670  0.76610  0.25990  1.0000 0.130697388
H   H44       1.0  0.09330  0.76610  0.24010  1.0000 0.130697388
H   H45       1.0  0.16580  0.71310  0.74610  1.0000 0.1404223969
H   H46       1.0  0.83420  0.71310  0.75390  1.0000 0.1404223969
H   H47       1.0  0.83420  0.28690  0.25390  1.0000 0.1404223969
H   H48       1.0  0.16580  0.28690  0.24610  1.0000 0.1404223969
H   H49       1.0  0.29270  0.60420  0.77660  1.0000 0.1212585533
H   H50       1.0  0.70730  0.60420  0.72340  1.0000 0.1212585533
H   H51       1.0  0.70730  0.39580  0.22340  1.0000 0.1212585533
H   H52       1.0  0.29270  0.39580  0.27660  1.0000 0.1212585533
H   H53       1.0  0.28690  0.70410  0.97740  1.0000 0.130697388
H   H54       1.0  0.71310  0.70410  0.52260  1.0000 0.130697388
H   H55       1.0  0.71310  0.29590  0.02260  1.0000 0.130697388
H   H56       1.0  0.28690  0.29590  0.47740  1.0000 0.130697388
H   H57       1.0  0.15760  0.80750  0.94710  1.0000 0.1404223969
H   H58       1.0  0.84240  0.80750  0.55290  1.0000 0.1404223969
H   H59       1.0  0.84240  0.19250  0.05290  1.0000 0.1404223969
H   H60       1.0  0.15760  0.19250  0.44710  1.0000 0.1404223969
H   H61       1.0  0.43440  0.19250  0.51250  1.0000 0.0903227849
H   H62       1.0  0.56560  0.19250  0.98750  1.0000 0.0903227849
H   H63       1.0  0.56560  0.80750  0.48750  1.0000 0.0903227849
H   H64       1.0  0.43440  0.80750  0.01250  1.0000 0.0903227849
H   H65       1.0  0.52080  0.13010  0.49650  1.0000 0.0903227849
H   H66       1.0  0.47920  0.13010  0.00350  1.0000 0.0903227849
H   H67       1.0  0.47920  0.86990  0.50350  1.0000 0.0903227849
H   H68       1.0  0.52080  0.86990  0.99650  1.0000 0.0903227849
H   H69       1.0  0.46100  0.13630  0.62460  1.0000 0.1212585533
H   H70       1.0  0.53900  0.13630  0.87540  1.0000 0.1212585533
H   H71       1.0  0.53900  0.86370  0.37540  1.0000 0.1212585533
H   H72       1.0  0.46100  0.86370  0.12460  1.0000 0.1212585533
H   H73       1.0  0.44360  0.03100  0.57110  1.0000 0.1099914869
H   H74       1.0  0.55640  0.03100  0.92890  1.0000 0.1099914869
H   H75       1.0  0.55640  0.96900  0.42890  1.0000 0.1099914869
H   H76       1.0  0.44360  0.96900  0.07110  1.0000 0.1099914869
H   H77       1.0  0.58560  0.10330  0.64030  1.0000 0.1099914869
H   H78       1.0  0.41440  0.10330  0.85970  1.0000 0.1099914869
H   H79       1.0  0.41440  0.89670  0.35970  1.0000 0.1099914869
H   H80       1.0  0.58560  0.89670  0.14030  1.0000 0.1099914869
H   H81       1.0  0.58610  0.02410  0.57540  1.0000 0.0997889003
H   H82       1.0  0.41390  0.02410  0.92460  1.0000 0.0997889003
H   H83       1.0  0.41390  0.97590  0.42460  1.0000 0.0997889003
H   H84       1.0  0.58610  0.97590  0.07540  1.0000 0.0997889003
H   H85       1.0  0.65710  0.92790  0.63800  1.0000 0.1099914869
H   H86       1.0  0.34290  0.92790  0.86200  1.0000 0.1099914869
H   H87       1.0  0.34290  0.07210  0.36200  1.0000 0.1099914869
H   H88       1.0  0.65710  0.07210  0.13800  1.0000 0.1099914869
H   H89       1.0  0.61660  0.97330  0.70500  1.0000 0.1212585533
H   H90       1.0  0.38340  0.97330  0.79500  1.0000 0.1212585533
H   H91       1.0  0.38340  0.02670  0.29500  1.0000 0.1212585533
H   H92       1.0  0.61660  0.02670  0.20500  1.0000 0.1212585533
H   H93       1.0  0.56950  0.87250  0.65790  1.0000 0.1404223969
H   H94       1.0  0.43050  0.87250  0.84210  1.0000 0.1404223969
H   H95       1.0  0.43050  0.12750  0.34210  1.0000 0.1404223969
H   H96       1.0  0.56950  0.12750  0.15790  1.0000 0.1404223969
C   C1        1.0  0.61710  0.69400  0.87110  1.0000 0.5845623051
C   C2        1.0  0.38290  0.69400  0.62890  1.0000 0.5845623051
C   C3        1.0  0.38290  0.30600  0.12890  1.0000 0.5845623051
C   C4        1.0  0.61710  0.30600  0.37110  1.0000 0.5845623051
C   C5        1.0  0.67900  0.80020  0.88720  1.0000 -0.0327253623
C   C6        1.0  0.32100  0.80020  0.61280  1.0000 -0.0327253623
C   C7        1.0  0.32100  0.19980  0.11280  1.0000 -0.0327253623
C   C8        1.0  0.67900  0.19980  0.38720  1.0000 -0.0327253623
C   C9        1.0  0.71960  0.81660  0.95370  1.0000 -0.0694796687
C   C10       1.0  0.28040  0.81660  0.54630  1.0000 -0.0694796687
C   C11       1.0  0.28040  0.18340  0.04630  1.0000 -0.0694796687
C   C12       1.0  0.71960  0.18340  0.45370  1.0000 -0.0694796687
C   C13       1.0  0.78080  0.90830  0.96670  1.0000 -0.2011554653
C   C14       1.0  0.21920  0.90830  0.53330  1.0000 -0.2011554653
C   C15       1.0  0.21920  0.09170  0.03330  1.0000 -0.2011554653
C   C16       1.0  0.78080  0.09170  0.46670  1.0000 -0.2011554653
C   C17       1.0  0.80120  0.97970  0.91290  1.0000 0.237138897
C   C18       1.0  0.19880  0.97970  0.58710  1.0000 0.237138897
C   C19       1.0  0.19880  0.02030  0.08710  1.0000 0.237138897
C   C20       1.0  0.80120  0.02030  0.41290  1.0000 0.237138897
C   C21       1.0  0.76050  0.96460  0.84600  1.0000 -0.2011554653
C   C22       1.0  0.23950  0.96460  0.65400  1.0000 -0.2011554653
C   C23       1.0  0.23950  0.03540  0.15400  1.0000 -0.2011554653
C   C24       1.0  0.76050  0.03540  0.34600  1.0000 -0.2011554653
C   C25       1.0  0.69970  0.87390  0.83330  1.0000 -0.078289278
C   C26       1.0  0.30030  0.87390  0.66667  1.0000 -0.078289278
C   C27       1.0  0.30030  0.12610  0.16670  1.0000 -0.078289278
C   C28       1.0  0.69970  0.12610  0.33333  1.0000 -0.078289278
C   C29       1.0  0.94330  0.05070  0.90010  1.0000 0.3087862467
C   C30       1.0  0.05670  0.05070  0.59990  1.0000 0.3087862467
C   C31       1.0  0.05670  0.94930  0.09990  1.0000 0.3087862467
C   C32       1.0  0.94330  0.94930  0.40010  1.0000 0.3087862467
C   C33       1.0  0.99600  0.15300  0.89880  1.0000 -0.3321169989
C   C34       1.0  0.00400  0.15300  0.60120  1.0000 -0.3321169989
C   C35       1.0  0.00400  0.84700  0.10120  1.0000 -0.3321169989
C   C36       1.0  0.99600  0.84700  0.39880  1.0000 -0.3321169989
C   C37       1.0  0.07520  0.13860  0.87250  1.0000 0.2797423078
C   C38       1.0  0.92480  0.13860  0.62750  1.0000 0.2797423078
C   C39       1.0  0.92480  0.86140  0.12750  1.0000 0.2797423078
C   C40       1.0  0.07520  0.86140  0.37250  1.0000 0.2797423078
C   C41       1.0  0.10390  0.02870  0.84880  1.0000 -0.3563988025
C   C42       1.0  0.89610  0.02870  0.65120  1.0000 -0.3563988025
C   C43       1.0  0.89610  0.97130  0.15120  1.0000 -0.3563988025
C   C44       1.0  0.10390  0.97130  0.34880  1.0000 -0.3563988025
C   C45       1.0  0.04870  0.93170  0.85130  1.0000 0.2797423078
C   C46       1.0  0.95130  0.93170  0.64870  1.0000 0.2797423078
C   C47       1.0  0.95130  0.06830  0.14870  1.0000 0.2797423078
C   C48       1.0  0.04870  0.06830  0.35130  1.0000 0.2797423078
C   C49       1.0  0.96850  0.93840  0.87590  1.0000 -0.3321169989
C   C50       1.0  0.03150  0.93840  0.62410  1.0000 -0.3321169989
C   C51       1.0  0.03150  0.06160  0.12410  1.0000 -0.3321169989
C   C52       1.0  0.96850  0.06160  0.37590  1.0000 -0.3321169989
C   C53       1.0  0.18160  0.25920  0.82270  1.0000 0.2513674999
C   C54       1.0  0.81840  0.25920  0.67730  1.0000 0.2513674999
C   C55       1.0  0.81840  0.74080  0.17730  1.0000 0.2513674999
C   C56       1.0  0.18160  0.74080  0.32270  1.0000 0.2513674999
C   C57       1.0  0.26820  0.28630  0.84320  1.0000 -0.1911877656
C   C58       1.0  0.73180  0.28630  0.65680  1.0000 -0.1911877656
C   C59       1.0  0.73180  0.71370  0.15680  1.0000 -0.1911877656
C   C60       1.0  0.26820  0.71370  0.34320  1.0000 -0.1911877656
C   C61       1.0  0.32280  0.31230  0.79240  1.0000 -0.0694796687
C   C62       1.0  0.67720  0.31230  0.70760  1.0000 -0.0694796687
C   C63       1.0  0.67720  0.68770  0.20760  1.0000 -0.0694796687
C   C64       1.0  0.32280  0.68770  0.29240  1.0000 -0.0694796687
C   C65       1.0  0.29260  0.31370  0.72220  1.0000 -0.0455555238
C   C66       1.0  0.70740  0.31370  0.77780  1.0000 -0.0455555238
C   C67       1.0  0.70740  0.68630  0.27780  1.0000 -0.0455555238
C   C68       1.0  0.29260  0.68630  0.22220  1.0000 -0.0455555238
C   C69       1.0  0.20580  0.28310  0.70280  1.0000 -0.078289278
C   C70       1.0  0.79420  0.28310  0.79720  1.0000 -0.078289278
C   C71       1.0  0.79420  0.71690  0.29720  1.0000 -0.078289278
C   C72       1.0  0.20580  0.71690  0.20280  1.0000 -0.078289278
C   C73       1.0  0.15090  0.25530  0.75330  1.0000 -0.2116875204
C   C74       1.0  0.84910  0.25530  0.74670  1.0000 -0.2116875204
C   C75       1.0  0.84910  0.74470  0.24670  1.0000 -0.2116875204
C   C76       1.0  0.15090  0.74470  0.25330  1.0000 -0.2116875204
C   C77       1.0  0.35150  0.35220  0.66940  1.0000 0.5608584171
C   C78       1.0  0.64850  0.35220  0.83060  1.0000 0.5608584171
C   C79       1.0  0.64850  0.64780  0.33060  1.0000 0.5608584171
C   C80       1.0  0.35150  0.64780  0.16940  1.0000 0.5608584171
C   C81       1.0  0.15020  0.77010  0.84430  1.0000 0.2513674999
C   C82       1.0  0.84980  0.77010  0.65570  1.0000 0.2513674999
C   C83       1.0  0.84980  0.22990  0.15570  1.0000 0.2513674999
C   C84       1.0  0.15020  0.22990  0.34430  1.0000 0.2513674999
C   C85       1.0  0.18980  0.71010  0.79250  1.0000 -0.2116875204
C   C86       1.0  0.81020  0.71010  0.70750  1.0000 -0.2116875204
C   C87       1.0  0.81020  0.28990  0.20750  1.0000 -0.2116875204
C   C88       1.0  0.18980  0.28990  0.29250  1.0000 -0.2116875204
C   C89       1.0  0.26610  0.64520  0.81100  1.0000 -0.0694796687
C   C90       1.0  0.73390  0.64520  0.68900  1.0000 -0.0694796687
C   C91       1.0  0.73390  0.35480  0.18900  1.0000 -0.0694796687
C   C92       1.0  0.26610  0.35480  0.31100  1.0000 -0.0694796687
C   C93       1.0  0.30300  0.64100  0.88030  1.0000 -0.0555054957
C   C94       1.0  0.69700  0.64100  0.61970  1.0000 -0.0555054957
C   C95       1.0  0.69700  0.35900  0.11970  1.0000 -0.0555054957
C   C96       1.0  0.30300  0.35900  0.38030  1.0000 -0.0555054957
C   C97       1.0  0.26230  0.70420  0.93110  1.0000 -0.0694796687
C   C98       1.0  0.73770  0.70420  0.56890  1.0000 -0.0694796687
C   C99       1.0  0.73770  0.29580  0.06890  1.0000 -0.0694796687
C   C100      1.0  0.26230  0.29580  0.43110  1.0000 -0.0694796687
C   C101      1.0  0.18520  0.76740  0.91290  1.0000 -0.2170508246
C   C102      1.0  0.81480  0.76740  0.58710  1.0000 -0.2170508246
C   C103      1.0  0.81480  0.23260  0.08710  1.0000 -0.2170508246
C   C104      1.0  0.18520  0.23260  0.41290  1.0000 -0.2170508246
C   C105      1.0  0.38500  0.57210  0.89740  1.0000 0.5980034953
C   C106      1.0  0.61500  0.57210  0.60260  1.0000 0.5980034953
C   C107      1.0  0.61500  0.42790  0.10260  1.0000 0.5980034953
C   C108      1.0  0.38500  0.42790  0.39740  1.0000 0.5980034953
C   C109      1.0  0.49290  0.17270  0.53240  1.0000 -0.0079725452
C   C110      1.0  0.50710  0.17270  0.96760  1.0000 -0.0079725452
C   C111      1.0  0.50710  0.82730  0.46760  1.0000 -0.0079725452
C   C112      1.0  0.49290  0.82730  0.03240  1.0000 -0.0079725452
C   C113      1.0  0.48600  0.09200  0.58770  1.0000 -0.2011554653
C   C114      1.0  0.51400  0.09200  0.91230  1.0000 -0.2011554653
C   C115      1.0  0.51400  0.90800  0.41230  1.0000 -0.2011554653
C   C116      1.0  0.48600  0.90800  0.08770  1.0000 -0.2011554653
C   C117      1.0  0.55700  0.03400  0.61800  1.0000 -0.0957864656
C   C118      1.0  0.44300  0.03400  0.88200  1.0000 -0.0957864656
C   C119      1.0  0.44300  0.96600  0.38200  1.0000 -0.0957864656
C   C120      1.0  0.55700  0.96600  0.11800  1.0000 -0.0957864656
C   C121      1.0  0.60400  0.94500  0.65780  1.0000 -0.3752498815
C   C122      1.0  0.39600  0.94500  0.84220  1.0000 -0.3752498815
C   C123      1.0  0.39600  0.05500  0.34220  1.0000 -0.3752498815
C   C124      1.0  0.60400  0.05500  0.15780  1.0000 -0.3752498815
O   O1        1.0  0.59160  0.67340  0.80840  1.0000 -0.5768308604
O   O2        1.0  0.40840  0.67340  0.69160  1.0000 -0.5768308604
O   O3        1.0  0.40840  0.32660  0.19160  1.0000 -0.5768308604
O   O4        1.0  0.59160  0.32660  0.30840  1.0000 -0.5768308604
O   O5        1.0  0.59810  0.63190  0.92400  1.0000 -0.539014172
O   O6        1.0  0.40190  0.63190  0.57600  1.0000 -0.539014172
O   O7        1.0  0.40190  0.36810  0.07600  1.0000 -0.539014172
O   O8        1.0  0.59810  0.36810  0.42400  1.0000 -0.539014172
O   O9        1.0  0.86370  0.06950  0.92680  1.0000 -0.2265971976
O   O10       1.0  0.13630  0.06950  0.57320  1.0000 -0.2265971976
O   O11       1.0  0.13630  0.93050  0.07320  1.0000 -0.2265971976
O   O12       1.0  0.86370  0.93050  0.42680  1.0000 -0.2265971976
O   O13       1.0  0.06980  0.81960  0.82370  1.0000 -0.2116875204
O   O14       1.0  0.93020  0.81960  0.67630  1.0000 -0.2116875204
O   O15       1.0  0.93020  0.18040  0.17630  1.0000 -0.2116875204
O   O16       1.0  0.06980  0.18040  0.32370  1.0000 -0.2116875204
O   O17       1.0  0.12810  0.23980  0.87570  1.0000 -0.2170508246
O   O18       1.0  0.87190  0.23980  0.62430  1.0000 -0.2170508246
O   O19       1.0  0.87190  0.76020  0.12430  1.0000 -0.2170508246
O   O20       1.0  0.12810  0.76020  0.37570  1.0000 -0.2170508246
O   O21       1.0  0.42660  0.53260  0.84870  1.0000 -0.586589616
O   O22       1.0  0.57340  0.53260  0.65130  1.0000 -0.586589616
O   O23       1.0  0.57340  0.46740  0.15130  1.0000 -0.586589616
O   O24       1.0  0.42660  0.46740  0.34870  1.0000 -0.586589616
O   O25       1.0  0.41320  0.55240  0.96020  1.0000 -0.5144048447
O   O26       1.0  0.58680  0.55240  0.53980  1.0000 -0.5144048447
O   O27       1.0  0.58680  0.44760  0.03980  1.0000 -0.5144048447
O   O28       1.0  0.41320  0.44760  0.46020  1.0000 -0.5144048447
O   O29       1.0  0.32770  0.34850  0.60540  1.0000 -0.5144048447
O   O30       1.0  0.67230  0.34850  0.89460  1.0000 -0.5144048447
O   O31       1.0  0.67230  0.65150  0.39460  1.0000 -0.5144048447
O   O32       1.0  0.32770  0.65150  0.10540  1.0000 -0.5144048447
O   O33       1.0  0.42720  0.38920  0.69100  1.0000 -0.5768308604
O   O34       1.0  0.57280  0.38920  0.80900  1.0000 -0.5768308604
O   O35       1.0  0.57280  0.61080  0.30900  1.0000 -0.5768308604
O   O36       1.0  0.42720  0.61080  0.19100  1.0000 -0.5768308604
O   O37       1.0  0.53970  0.28580  0.54640  1.0000 -0.53300358
O   O38       1.0  0.46030  0.28580  0.95360  1.0000 -0.53300358
O   O39       1.0  0.46030  0.71420  0.45360  1.0000 -0.53300358
O   O40       1.0  0.53970  0.71420  0.04640  1.0000 -0.53300358
