# DDEC6 charges by PACMAN v1.1 (https://github.com/mtap-research/PACMAN-charge/)
data_2013[Co][tfz]3[FSR]1
_chemical_formula_sum              "Co3 H34 C36 N10 O18"
_cell_length_a       10.504
_cell_length_b       12.106
_cell_length_c       12.411
_cell_angle_alpha    66.78
_cell_angle_beta     70.34
_cell_angle_gamma    65.04

_symmetry_space_group_name_H-M    "P 1"
_symmetry_Int_Tables_number       1

loop_
  _symmetry_equiv_pos_as_xyz
  'x, y, z'

loop_
  _atom_site_type_symbol
  _atom_site_label
  _atom_site_symmetry_multiplicity
  _atom_site_fract_x
  _atom_site_fract_y
  _atom_site_fract_z
  _atom_site_occupancy
  _atom_site_charge
Co  Co1       1.0  0.84096  0.40953  0.90888  1.0000 0.842999316
Co  Co2       1.0  0.15904  0.59047  0.09112  1.0000 0.842999316
Co  Co3       1.0  0.50000  0.50000  0.00000  1.0000 1.007872916
H   H1        1.0  0.49390  0.18910  0.01110  1.0000 0.14004303
H   H2        1.0  0.50610  0.81090  0.98890  1.0000 0.14004303
H   H3        1.0  0.10390  0.51150  0.84480  1.0000 0.14004303
H   H4        1.0  0.89610  0.48850  0.15520  1.0000 0.14004303
H   H5        1.0  0.89430  0.09030  0.26120  1.0000 0.1005216035
H   H6        1.0  0.10570  0.90970  0.73880  1.0000 0.1005216035
H   H7        1.0  0.88660  0.22200  0.26170  1.0000 0.1005216035
H   H8        1.0  0.11340  0.77800  0.73830  1.0000 0.1005216035
H   H9        1.0  0.34760  0.37460  0.87170  1.0000 0.14004303
H   H10       1.0  0.65240  0.62540  0.12830  1.0000 0.14004303
H   H11       1.0  0.61410  0.34650  0.67380  1.0000 0.14004303
H   H12       1.0  0.38590  0.65350  0.32620  1.0000 0.14004303
H   H13       1.0  0.62690  0.22160  0.78220  1.0000 0.1293818248
H   H14       1.0  0.37310  0.77840  0.21780  1.0000 0.1293818248
H   H15       1.0  0.31240  0.99700  0.94330  1.0000 0.14004303
H   H16       1.0  0.68760  0.00300  0.05670  1.0000 0.14004303
H   H17       1.0  0.09940  0.16120  0.99540  1.0000 0.1293818248
H   H18       1.0  0.90060  0.83880  0.00460  1.0000 0.1293818248
H   H19       1.0  0.86200  0.28440  0.60900  1.0000 0.1121047877
H   H20       1.0  0.13800  0.71560  0.39100  1.0000 0.1121047877
H   H21       1.0  0.88260  0.16560  0.72320  1.0000 0.1121047877
H   H22       1.0  0.11740  0.83440  0.27680  1.0000 0.1121047877
H   H23       1.0  0.64830  0.16430  0.27040  1.0000 0.1490419872
H   H24       1.0  0.35170  0.83570  0.72960  1.0000 0.1490419872
H   H25       1.0  0.63280  0.29430  0.28290  1.0000 0.1490419872
H   H26       1.0  0.36720  0.70570  0.71710  1.0000 0.1490419872
H   H27       1.0  0.61760  0.86490  0.76230  1.0000 0.1293818248
H   H28       1.0  0.38240  0.13510  0.23770  1.0000 0.1293818248
H   H29       1.0  0.63400  0.81250  0.65940  1.0000 0.1490419872
H   H30       1.0  0.36600  0.18750  0.34060  1.0000 0.1490419872
H   H31       1.0  0.87680  0.78150  0.73180  1.0000 0.1005216035
H   H32       1.0  0.12320  0.21850  0.26820  1.0000 0.1005216035
H   H33       1.0  0.87670  0.76230  0.61410  1.0000 0.1121047877
H   H34       1.0  0.12330  0.23770  0.38590  1.0000 0.1121047877
C   C1        1.0  0.81250  0.01990  0.66770  1.0000 0.5296065279
C   C2        1.0  0.18750  0.98010  0.33230  1.0000 0.5296065279
C   C3        1.0  0.81090  0.19550  0.48140  1.0000 0.5361059673
C   C4        1.0  0.18910  0.80450  0.51860  1.0000 0.5361059673
C   C5        1.0  0.81680  0.99130  0.48220  1.0000 0.5296065279
C   C6        1.0  0.18320  0.00870  0.51780  1.0000 0.5296065279
C   C7        1.0  0.49630  0.11340  0.00660  1.0000 -0.1451413564
C   C8        1.0  0.50370  0.88660  0.99340  1.0000 -0.1451413564
C   C9        1.0  0.38550  0.11090  0.97290  1.0000 0.1588577844
C   C10       1.0  0.61450  0.88910  0.02710  1.0000 0.1588577844
C   C11       1.0  0.68080  0.35200  0.80840  1.0000 0.648962117
C   C12       1.0  0.31920  0.64800  0.19160  1.0000 0.648962117
C   C13       1.0  0.13390  0.42340  0.87860  1.0000 -0.0231317084
C   C14       1.0  0.86610  0.57660  0.12140  1.0000 -0.0231317084
C   C15       1.0  0.83550  0.16160  0.29330  1.0000 -0.0425528835
C   C16       1.0  0.16450  0.83840  0.70670  1.0000 -0.0425528835
C   C17       1.0  0.26880  0.34840  0.89270  1.0000 -0.0895175494
C   C18       1.0  0.73120  0.65160  0.10730  1.0000 -0.0895175494
C   C19       1.0  0.67270  0.28490  0.73180  1.0000 -0.3428119652
C   C20       1.0  0.32730  0.71510  0.26820  1.0000 -0.3428119652
C   C21       1.0  0.73860  0.27580  0.11430  1.0000 0.6332065828
C   C22       1.0  0.26140  0.72420  0.88570  1.0000 0.6332065828
C   C23       1.0  0.38760  0.99820  0.96600  1.0000 -0.140585535
C   C24       1.0  0.61240  0.00180  0.03400  1.0000 -0.140585535
C   C25       1.0  0.13030  0.23140  0.96080  1.0000 0.1196435683
C   C26       1.0  0.86970  0.76860  0.03920  1.0000 0.1196435683
C   C27       1.0  0.82070  0.22000  0.66600  1.0000 -0.0307027383
C   C28       1.0  0.17930  0.78000  0.33400  1.0000 -0.0307027383
C   C29       1.0  0.69650  0.22530  0.24880  1.0000 -0.3324442289
C   C30       1.0  0.30350  0.77470  0.75120  1.0000 -0.3324442289
C   C31       1.0  0.67790  0.79970  0.72270  1.0000 -0.346498125
C   C32       1.0  0.32210  0.20030  0.27730  1.0000 -0.346498125
C   C33       1.0  0.68580  0.67010  0.81200  1.0000 0.648962117
C   C34       1.0  0.31420  0.32990  0.18800  1.0000 0.648962117
C   C35       1.0  0.82430  0.81390  0.66850  1.0000 -0.0307027383
C   C36       1.0  0.17570  0.18610  0.33150  1.0000 -0.0307027383
N   N1        1.0  0.26660  0.22530  0.94430  1.0000 0.0092758995
N   N2        1.0  0.73340  0.77470  0.05570  1.0000 0.0092758995
N   N3        1.0  0.04700  0.34920  0.92200  1.0000 -0.310773053
N   N4        1.0  0.95300  0.65080  0.07800  1.0000 -0.310773053
N   N5        1.0  0.81800  0.94710  0.60280  1.0000 -0.2430909283
N   N6        1.0  0.18200  0.05290  0.39720  1.0000 -0.2430909283
N   N7        1.0  0.81450  0.14250  0.60190  1.0000 -0.2430909283
N   N8        1.0  0.18550  0.85750  0.39810  1.0000 -0.2430909283
N   N9        1.0  0.81890  0.11480  0.42440  1.0000 -0.2457712523
N   N10       1.0  0.18110  0.88520  0.57560  1.0000 -0.2457712523
O   O1        1.0  0.81080  0.59100  0.82300  1.0000 -0.548752927
O   O2        1.0  0.18920  0.40900  0.17700  1.0000 -0.548752927
O   O3        1.0  0.82200  0.20450  0.05380  1.0000 -0.5129174225
O   O4        1.0  0.17800  0.79550  0.94620  1.0000 -0.5129174225
O   O5        1.0  0.69710  0.39900  0.06480  1.0000 -0.6030653946
O   O6        1.0  0.30290  0.60100  0.93520  1.0000 -0.6030653946
O   O7        1.0  0.80190  0.35800  0.79650  1.0000 -0.5407366983
O   O8        1.0  0.19810  0.64200  0.20350  1.0000 -0.5407366983
O   O9        1.0  0.56830  0.39480  0.87890  1.0000 -0.5891946486
O   O10       1.0  0.43170  0.60520  0.12110  1.0000 -0.5891946486
O   O11       1.0  0.57140  0.64790  0.87020  1.0000 -0.5891946486
O   O12       1.0  0.42860  0.35210  0.12980  1.0000 -0.5891946486
O   O13       1.0  0.82010  0.92430  0.42960  1.0000 -0.4587349303
O   O14       1.0  0.17990  0.07570  0.57040  1.0000 -0.4587349303
O   O15       1.0  0.81020  0.97950  0.77370  1.0000 -0.4587349303
O   O16       1.0  0.18980  0.02050  0.22630  1.0000 -0.4587349303
O   O17       1.0  0.80510  0.30550  0.42790  1.0000 -0.4663820348
O   O18       1.0  0.19490  0.69450  0.57210  1.0000 -0.4663820348
