# DDEC6 charges by PACMAN v1.1 (https://github.com/mtap-research/PACMAN-charge/)
data_2013[Zn][nan]3[FSR]34
_chemical_formula_sum              "Zn5 H26 C42 O20"
_cell_length_a       6.3108
_cell_length_b       12.639
_cell_length_c       15.631
_cell_angle_alpha    95.723
_cell_angle_beta     99.878
_cell_angle_gamma    97.86

_symmetry_space_group_name_H-M    "P 1"
_symmetry_Int_Tables_number       1

loop_
  _symmetry_equiv_pos_as_xyz
  'x, y, z'

loop_
  _atom_site_type_symbol
  _atom_site_label
  _atom_site_symmetry_multiplicity
  _atom_site_fract_x
  _atom_site_fract_y
  _atom_site_fract_z
  _atom_site_occupancy
  _atom_site_charge
Zn  Zn1       1.0  0.00000  0.00000  0.00000  1.0000 0.965144296
Zn  Zn2       1.0  0.52004  0.95418  0.10055  1.0000 0.7970546678
Zn  Zn3       1.0  0.47996  0.04582  0.89945  1.0000 0.7970546678
Zn  Zn4       1.0  0.05857  0.96194  0.18627  1.0000 0.9526561096
Zn  Zn5       1.0  0.94143  0.03806  0.81373  1.0000 0.9526561096
H   H1        1.0  0.18370  0.73010  0.35580  1.0000 0.1498519972
H   H2        1.0  0.81630  0.26990  0.64420  1.0000 0.1498519972
H   H3        1.0  0.57710  0.51320  0.41120  1.0000 0.1587123469
H   H4        1.0  0.42290  0.48680  0.58880  1.0000 0.1587123469
H   H5        1.0  0.64390  0.68290  0.21180  1.0000 0.1587123469
H   H6        1.0  0.35610  0.31710  0.78820  1.0000 0.1587123469
H   H7        1.0  0.46770  0.42340  0.20420  1.0000 0.132357736
H   H8        1.0  0.53230  0.57660  0.79580  1.0000 0.132357736
H   H9        1.0  0.45570  0.27100  0.10810  1.0000 0.132357736
H   H10       1.0  0.54430  0.72900  0.89190  1.0000 0.132357736
H   H11       1.0  0.10540  0.30610  0.15810  1.0000 0.122002554
H   H12       1.0  0.89460  0.69390  0.84190  1.0000 0.122002554
H   H13       1.0  0.11880  0.45800  0.25490  1.0000 0.1403802082
H   H14       1.0  0.88120  0.54200  0.74510  1.0000 0.1403802082
H   H15       1.0  0.54930  0.74720  0.54230  1.0000 0.132357736
H   H16       1.0  0.45070  0.25280  0.45770  1.0000 0.132357736
H   H17       1.0  0.52220  0.87150  0.65610  1.0000 0.132357736
H   H18       1.0  0.47780  0.12850  0.34390  1.0000 0.132357736
H   H19       1.0  0.89610  0.74550  0.63550  1.0000 0.122002554
H   H20       1.0  0.10390  0.25450  0.36450  1.0000 0.122002554
H   H21       1.0  0.93250  0.61610  0.52670  1.0000 0.1403802082
H   H22       1.0  0.06750  0.38390  0.47330  1.0000 0.1403802082
H   H23       1.0  0.28860  0.08590  0.12410  1.0000 0.3795033291
H   H24       1.0  0.71140  0.91410  0.87590  1.0000 0.3795033291
H   H25       1.0  0.70080  0.94500  0.09280  1.0000 0.2034023151
H   H26       1.0  0.29920  0.05500  0.90720  1.0000 0.2034023151
C   C1        1.0  0.33060  0.80432  0.22001  1.0000 0.5864205554
C   C2        1.0  0.66940  0.19568  0.77999  1.0000 0.5864205554
C   C3        1.0  0.40220  0.72022  0.27567  1.0000 0.0258425184
C   C4        1.0  0.59780  0.27978  0.72433  1.0000 0.0258425184
C   C5        1.0  0.29840  0.69553  0.34412  1.0000 -0.2274965351
C   C6        1.0  0.70160  0.30447  0.65588  1.0000 -0.2274965351
C   C7        1.0  0.36720  0.61936  0.39440  1.0000 0.2562400296
C   C8        1.0  0.63280  0.38064  0.60560  1.0000 0.2562400296
C   C9        1.0  0.53390  0.56572  0.37740  1.0000 -0.2960014149
C   C10       1.0  0.46610  0.43428  0.62260  1.0000 -0.2960014149
C   C11       1.0  0.63510  0.59130  0.30963  1.0000 0.2497013107
C   C12       1.0  0.36490  0.40870  0.69037  1.0000 0.2497013107
C   C13       1.0  0.57370  0.66708  0.25775  1.0000 -0.2274965351
C   C14       1.0  0.42630  0.33292  0.74225  1.0000 -0.2274965351
C   C15       1.0  0.79370  0.45542  0.23895  1.0000 0.2721006468
C   C16       1.0  0.20630  0.54458  0.76105  1.0000 0.2721006468
C   C17       1.0  0.59620  0.39973  0.19517  1.0000 -0.2274965351
C   C18       1.0  0.40380  0.60027  0.80483  1.0000 -0.2274965351
C   C19       1.0  0.58960  0.30846  0.13766  1.0000 -0.0706073746
C   C20       1.0  0.41040  0.69154  0.86234  1.0000 -0.0706073746
C   C21       1.0  0.77950  0.27185  0.12328  1.0000 -0.0501524649
C   C22       1.0  0.22050  0.72815  0.87672  1.0000 -0.0501524649
C   C23       1.0  0.97660  0.32925  0.16747  1.0000 -0.0706073746
C   C24       1.0  0.02340  0.67075  0.83253  1.0000 -0.0706073746
C   C25       1.0  0.98510  0.42030  0.22524  1.0000 -0.2085889881
C   C26       1.0  0.01490  0.57970  0.77476  1.0000 -0.2085889881
C   C27       1.0  0.77490  0.17277  0.06336  1.0000 0.5723874763
C   C28       1.0  0.22510  0.82723  0.93664  1.0000 0.5723874763
C   C29       1.0  0.24410  0.67052  0.52438  1.0000 0.2435368195
C   C30       1.0  0.75590  0.32948  0.47562  1.0000 0.2435368195
C   C31       1.0  0.41830  0.74630  0.56205  1.0000 -0.2085889881
C   C32       1.0  0.58170  0.25370  0.43795  1.0000 -0.2085889881
C   C33       1.0  0.40120  0.82150  0.62913  1.0000 -0.0706073746
C   C34       1.0  0.59880  0.17850  0.37087  1.0000 -0.0706073746
C   C35       1.0  0.20440  0.82335  0.65701  1.0000 -0.0366823777
C   C36       1.0  0.79560  0.17665  0.34299  1.0000 -0.0366823777
C   C37       1.0  0.02920  0.74570  0.61759  1.0000 -0.0818227634
C   C38       1.0  0.97080  0.25430  0.38241  1.0000 -0.0818227634
C   C39       1.0  0.05010  0.66890  0.55206  1.0000 -0.1988615051
C   C40       1.0  0.94990  0.33110  0.44794  1.0000 -0.1988615051
C   C41       1.0  0.18250  0.90632  0.72842  1.0000 0.5765553907
C   C42       1.0  0.81750  0.09368  0.27158  1.0000 0.5765553907
O   O1        1.0  0.25010  0.01876  0.10783  1.0000 -0.7899496362
O   O2        1.0  0.74990  0.98124  0.89217  1.0000 -0.7899496362
O   O3        1.0  0.81390  0.91791  0.08609  1.0000 -0.7899496362
O   O4        1.0  0.18610  0.08209  0.91391  1.0000 -0.7899496362
O   O5        1.0  0.42030  0.81939  0.15633  1.0000 -0.5037438825
O   O6        1.0  0.57970  0.18061  0.84367  1.0000 -0.5037438825
O   O7        1.0  0.18260  0.85181  0.24266  1.0000 -0.5296752557
O   O8        1.0  0.81740  0.14819  0.75734  1.0000 -0.5296752557
O   O9        1.0  0.81810  0.54571  0.29734  1.0000 -0.2085889881
O   O10       1.0  0.18190  0.45429  0.70266  1.0000 -0.2085889881
O   O11       1.0  0.95180  0.15059  0.04763  1.0000 -0.5037438825
O   O12       1.0  0.04820  0.84941  0.95237  1.0000 -0.5037438825
O   O13       1.0  0.59100  0.11498  0.03212  1.0000 -0.5296752557
O   O14       1.0  0.40900  0.88502  0.96788  1.0000 -0.5296752557
O   O15       1.0  0.26030  0.58908  0.46097  1.0000 -0.2183492586
O   O16       1.0  0.73970  0.41092  0.53903  1.0000 -0.2183492586
O   O17       1.0  0.35280  0.95406  0.77722  1.0000 -0.5296752557
O   O18       1.0  0.64720  0.04594  0.22278  1.0000 -0.5296752557
O   O19       1.0  0.99280  0.92210  0.73462  1.0000 -0.541085194
O   O20       1.0  0.00720  0.07790  0.26538  1.0000 -0.541085194
