# DDEC6 charges by PACMAN v1.1 (https://github.com/mtap-research/PACMAN-charge/)
data_2013[Co][dia]3[FSR]2
_chemical_formula_sum              "Co8 H128 C192 N16 O32"
_cell_length_a       22.6904
_cell_length_b       22.6904
_cell_length_c       12.695
_cell_angle_alpha    90
_cell_angle_beta     90
_cell_angle_gamma    90

_symmetry_space_group_name_H-M    "P 1"
_symmetry_Int_Tables_number       1

loop_
  _symmetry_equiv_pos_as_xyz
  'x, y, z'

loop_
  _atom_site_type_symbol
  _atom_site_label
  _atom_site_symmetry_multiplicity
  _atom_site_fract_x
  _atom_site_fract_y
  _atom_site_fract_z
  _atom_site_occupancy
  _atom_site_charge
Co  Co1       1.0  0.73208  0.25914  0.25335  1.0000 0.7358492277
Co  Co2       1.0  0.26792  0.74086  0.25335  1.0000 0.7358492277
Co  Co3       1.0  0.23208  0.24086  0.74665  1.0000 0.7358492277
Co  Co4       1.0  0.76792  0.75914  0.74665  1.0000 0.7358492277
Co  Co5       1.0  0.24086  0.23208  0.25335  1.0000 0.7358492277
Co  Co6       1.0  0.75914  0.76792  0.25335  1.0000 0.7358492277
Co  Co7       1.0  0.74086  0.26792  0.74665  1.0000 0.7358492277
Co  Co8       1.0  0.25914  0.73208  0.74665  1.0000 0.7358492277
H   H1        1.0  0.28640  0.20840  0.53870  1.0000 0.1080239299
H   H2        1.0  0.71360  0.79160  0.53870  1.0000 0.1080239299
H   H3        1.0  0.78640  0.29160  0.46130  1.0000 0.1080239299
H   H4        1.0  0.21360  0.70840  0.46130  1.0000 0.1080239299
H   H5        1.0  0.37250  0.22250  0.43940  1.0000 0.1436098515
H   H6        1.0  0.62750  0.77750  0.43940  1.0000 0.1436098515
H   H7        1.0  0.87250  0.27750  0.56060  1.0000 0.1436098515
H   H8        1.0  0.12750  0.72250  0.56060  1.0000 0.1436098515
H   H9        1.0  0.42940  0.33450  0.66560  1.0000 0.1268419265
H   H10       1.0  0.57060  0.66550  0.66560  1.0000 0.1268419265
H   H11       1.0  0.92940  0.16550  0.33440  1.0000 0.1268419265
H   H12       1.0  0.07060  0.83450  0.33440  1.0000 0.1268419265
H   H13       1.0  0.34460  0.31270  0.76130  1.0000 0.1080239299
H   H14       1.0  0.65540  0.68730  0.76130  1.0000 0.1080239299
H   H15       1.0  0.84460  0.18730  0.23870  1.0000 0.1080239299
H   H16       1.0  0.15540  0.81270  0.23870  1.0000 0.1080239299
H   H17       1.0  0.43300  0.27540  0.33640  1.0000 0.11979089
H   H18       1.0  0.56700  0.72460  0.33640  1.0000 0.11979089
H   H19       1.0  0.93300  0.22460  0.66360  1.0000 0.11979089
H   H20       1.0  0.06700  0.77540  0.66360  1.0000 0.11979089
H   H21       1.0  0.52200  0.27530  0.24880  1.0000 0.11979089
H   H22       1.0  0.47800  0.72470  0.24880  1.0000 0.11979089
H   H23       1.0  0.02200  0.22470  0.75120  1.0000 0.11979089
H   H24       1.0  0.97800  0.77530  0.75120  1.0000 0.11979089
H   H25       1.0  0.60790  0.30760  0.51830  1.0000 0.11979089
H   H26       1.0  0.39210  0.69240  0.51830  1.0000 0.11979089
H   H27       1.0  0.10790  0.19240  0.48170  1.0000 0.11979089
H   H28       1.0  0.89210  0.80760  0.48170  1.0000 0.11979089
H   H29       1.0  0.51750  0.30880  0.61030  1.0000 0.1032384223
H   H30       1.0  0.48250  0.69120  0.61030  1.0000 0.1032384223
H   H31       1.0  0.01750  0.19120  0.38970  1.0000 0.1032384223
H   H32       1.0  0.98250  0.80880  0.38970  1.0000 0.1032384223
H   H33       1.0  0.75060  0.88960  0.69270  1.0000 0.1032384223
H   H34       1.0  0.24940  0.11040  0.69270  1.0000 0.1032384223
H   H35       1.0  0.25060  0.61040  0.30730  1.0000 0.1032384223
H   H36       1.0  0.74940  0.38960  0.30730  1.0000 0.1032384223
H   H37       1.0  0.74050  0.97870  0.77700  1.0000 0.1268419265
H   H38       1.0  0.25950  0.02130  0.77700  1.0000 0.1268419265
H   H39       1.0  0.24050  0.52130  0.22300  1.0000 0.1268419265
H   H40       1.0  0.75950  0.47870  0.22300  1.0000 0.1268419265
H   H41       1.0  0.72410  0.89250  0.05120  1.0000 0.1436098515
H   H42       1.0  0.27590  0.10750  0.05120  1.0000 0.1436098515
H   H43       1.0  0.22410  0.60750  0.94880  1.0000 0.1436098515
H   H44       1.0  0.77590  0.39250  0.94880  1.0000 0.1436098515
H   H45       1.0  0.73470  0.80360  0.95930  1.0000 0.1080239299
H   H46       1.0  0.26530  0.19640  0.95930  1.0000 0.1080239299
H   H47       1.0  0.23470  0.69640  0.04070  1.0000 0.1080239299
H   H48       1.0  0.76530  0.30360  0.04070  1.0000 0.1080239299
H   H49       1.0  0.78110  0.04980  0.88730  1.0000 0.1080239299
H   H50       1.0  0.21890  0.95020  0.88730  1.0000 0.1080239299
H   H51       1.0  0.28110  0.45020  0.11270  1.0000 0.1080239299
H   H52       1.0  0.71890  0.54980  0.11270  1.0000 0.1080239299
H   H53       1.0  0.77720  0.13800  0.98000  1.0000 0.11979089
H   H54       1.0  0.22280  0.86200  0.98000  1.0000 0.11979089
H   H55       1.0  0.27720  0.36200  0.02000  1.0000 0.11979089
H   H56       1.0  0.72280  0.63800  0.02000  1.0000 0.11979089
H   H57       1.0  0.67060  0.06070  0.19550  1.0000 0.11979089
H   H58       1.0  0.32940  0.93930  0.19550  1.0000 0.11979089
H   H59       1.0  0.17060  0.43930  0.80450  1.0000 0.11979089
H   H60       1.0  0.82940  0.56070  0.80450  1.0000 0.11979089
H   H61       1.0  0.67500  0.97180  0.10040  1.0000 0.1268419265
H   H62       1.0  0.32500  0.02820  0.10040  1.0000 0.1268419265
H   H63       1.0  0.17500  0.52820  0.89960  1.0000 0.11979089
H   H64       1.0  0.82500  0.47180  0.89960  1.0000 0.11979089
H   H65       1.0  0.29160  0.78640  0.53870  1.0000 0.1080239299
H   H66       1.0  0.70840  0.21360  0.53870  1.0000 0.1080239299
H   H67       1.0  0.79160  0.71360  0.46130  1.0000 0.1080239299
H   H68       1.0  0.20840  0.28640  0.46130  1.0000 0.1080239299
H   H69       1.0  0.27750  0.87250  0.43940  1.0000 0.1436098515
H   H70       1.0  0.72250  0.12750  0.43940  1.0000 0.1436098515
H   H71       1.0  0.77750  0.62750  0.56060  1.0000 0.1436098515
H   H72       1.0  0.22250  0.37250  0.56060  1.0000 0.1436098515
H   H73       1.0  0.16550  0.92940  0.66560  1.0000 0.1268419265
H   H74       1.0  0.83450  0.07060  0.66560  1.0000 0.1268419265
H   H75       1.0  0.66550  0.57060  0.33440  1.0000 0.1268419265
H   H76       1.0  0.33450  0.42940  0.33440  1.0000 0.1268419265
H   H77       1.0  0.18730  0.84460  0.76130  1.0000 0.1080239299
H   H78       1.0  0.81270  0.15540  0.76130  1.0000 0.1080239299
H   H79       1.0  0.68730  0.65540  0.23870  1.0000 0.1080239299
H   H80       1.0  0.31270  0.34460  0.23870  1.0000 0.1080239299
H   H81       1.0  0.22460  0.93300  0.33640  1.0000 0.11979089
H   H82       1.0  0.77540  0.06700  0.33640  1.0000 0.11979089
H   H83       1.0  0.72460  0.56700  0.66360  1.0000 0.11979089
H   H84       1.0  0.27540  0.43300  0.66360  1.0000 0.11979089
H   H85       1.0  0.22470  0.02200  0.24880  1.0000 0.11979089
H   H86       1.0  0.77530  0.97800  0.24880  1.0000 0.11979089
H   H87       1.0  0.72470  0.47800  0.75120  1.0000 0.11979089
H   H88       1.0  0.27530  0.52200  0.75120  1.0000 0.11979089
H   H89       1.0  0.19240  0.10790  0.51830  1.0000 0.11979089
H   H90       1.0  0.80760  0.89210  0.51830  1.0000 0.11979089
H   H91       1.0  0.69240  0.39210  0.48170  1.0000 0.11979089
H   H92       1.0  0.30760  0.60790  0.48170  1.0000 0.11979089
H   H93       1.0  0.19120  0.01750  0.61030  1.0000 0.1032384223
H   H94       1.0  0.80880  0.98250  0.61030  1.0000 0.1032384223
H   H95       1.0  0.69120  0.48250  0.38970  1.0000 0.1032384223
H   H96       1.0  0.30880  0.51750  0.38970  1.0000 0.1032384223
H   H97       1.0  0.61040  0.25060  0.69270  1.0000 0.1032384223
H   H98       1.0  0.38960  0.74940  0.69270  1.0000 0.1032384223
H   H99       1.0  0.11040  0.24940  0.30730  1.0000 0.1032384223
H   H100      1.0  0.88960  0.75060  0.30730  1.0000 0.1032384223
H   H101      1.0  0.52130  0.24050  0.77700  1.0000 0.1268419265
H   H102      1.0  0.47870  0.75950  0.77700  1.0000 0.1268419265
H   H103      1.0  0.02130  0.25950  0.22300  1.0000 0.1268419265
H   H104      1.0  0.97870  0.74050  0.22300  1.0000 0.1268419265
H   H105      1.0  0.60750  0.22410  0.05120  1.0000 0.1436098515
H   H106      1.0  0.39250  0.77590  0.05120  1.0000 0.1436098515
H   H107      1.0  0.10750  0.27590  0.94880  1.0000 0.1436098515
H   H108      1.0  0.89250  0.72410  0.94880  1.0000 0.1436098515
H   H109      1.0  0.69640  0.23470  0.95930  1.0000 0.1080239299
H   H110      1.0  0.30360  0.76530  0.95930  1.0000 0.1080239299
H   H111      1.0  0.19640  0.26530  0.04070  1.0000 0.1080239299
H   H112      1.0  0.80360  0.73470  0.04070  1.0000 0.1080239299
H   H113      1.0  0.45020  0.28110  0.88730  1.0000 0.1080239299
H   H114      1.0  0.54980  0.71890  0.88730  1.0000 0.1080239299
H   H115      1.0  0.95020  0.21890  0.11270  1.0000 0.1080239299
H   H116      1.0  0.04980  0.78110  0.11270  1.0000 0.1080239299
H   H117      1.0  0.36200  0.27720  0.98000  1.0000 0.11979089
H   H118      1.0  0.63800  0.72280  0.98000  1.0000 0.11979089
H   H119      1.0  0.86200  0.22280  0.02000  1.0000 0.11979089
H   H120      1.0  0.13800  0.77720  0.02000  1.0000 0.11979089
H   H121      1.0  0.43930  0.17060  0.19550  1.0000 0.11979089
H   H122      1.0  0.56070  0.82940  0.19550  1.0000 0.11979089
H   H123      1.0  0.93930  0.32940  0.80450  1.0000 0.11979089
H   H124      1.0  0.06070  0.67060  0.80450  1.0000 0.11979089
H   H125      1.0  0.52820  0.17500  0.10040  1.0000 0.1268419265
H   H126      1.0  0.47180  0.82500  0.10040  1.0000 0.1268419265
H   H127      1.0  0.02820  0.32500  0.89960  1.0000 0.11979089
H   H128      1.0  0.97180  0.67500  0.89960  1.0000 0.11979089
C   C1        1.0  0.31650  0.23290  0.56680  1.0000 0.1080239299
C   C2        1.0  0.68350  0.76710  0.56680  1.0000 0.1080239299
C   C3        1.0  0.81650  0.26710  0.43320  1.0000 0.1080239299
C   C4        1.0  0.18350  0.73290  0.43320  1.0000 0.1080239299
C   C5        1.0  0.36750  0.24210  0.50500  1.0000 -0.1892917865
C   C6        1.0  0.63250  0.75790  0.50500  1.0000 -0.1892917865
C   C7        1.0  0.86750  0.25790  0.49500  1.0000 -0.1892917865
C   C8        1.0  0.13250  0.74210  0.49500  1.0000 -0.1892917865
C   C9        1.0  0.40980  0.28050  0.54300  1.0000 0.11979089
C   C10       1.0  0.59020  0.71950  0.54300  1.0000 0.11979089
C   C11       1.0  0.90980  0.21950  0.45700  1.0000 0.11979089
C   C12       1.0  0.09020  0.78050  0.45700  1.0000 0.11979089
C   C13       1.0  0.40120  0.30740  0.63850  1.0000 -0.2011173368
C   C14       1.0  0.59880  0.69260  0.63850  1.0000 -0.2011173368
C   C15       1.0  0.90120  0.19260  0.36150  1.0000 -0.2011173368
C   C16       1.0  0.09880  0.80740  0.36150  1.0000 -0.2011173368
C   C17       1.0  0.35030  0.29410  0.69490  1.0000 0.0557458977
C   C18       1.0  0.64970  0.70590  0.69490  1.0000 0.0557458977
C   C19       1.0  0.85030  0.20590  0.30510  1.0000 0.0557458977
C   C20       1.0  0.14970  0.79410  0.30510  1.0000 0.0546989254
C   C21       1.0  0.46610  0.28740  0.48380  1.0000 0.0701448538
C   C22       1.0  0.53390  0.71260  0.48380  1.0000 0.0701448538
C   C23       1.0  0.96610  0.21260  0.51620  1.0000 0.0701448538
C   C24       1.0  0.03390  0.78740  0.51620  1.0000 0.0701448538
C   C25       1.0  0.46850  0.28070  0.37500  1.0000 -0.1426956487
C   C26       1.0  0.53150  0.71930  0.37500  1.0000 -0.1426956487
C   C27       1.0  0.96850  0.21930  0.62500  1.0000 -0.1426956487
C   C28       1.0  0.03150  0.78070  0.62500  1.0000 -0.1426956487
C   C29       1.0  0.52120  0.28160  0.32270  1.0000 -0.1006024866
C   C30       1.0  0.47880  0.71840  0.32270  1.0000 -0.1006024866
C   C31       1.0  0.02120  0.21840  0.67730  1.0000 -0.0949688667
C   C32       1.0  0.97880  0.78160  0.67730  1.0000 -0.0949688667
C   C33       1.0  0.57280  0.29160  0.37610  1.0000 0.0053897423
C   C34       1.0  0.42720  0.70840  0.37610  1.0000 0.0053897423
C   C35       1.0  0.07280  0.20840  0.62390  1.0000 0.0053897423
C   C36       1.0  0.92720  0.79160  0.62390  1.0000 0.0053897423
C   C37       1.0  0.57210  0.30080  0.48160  1.0000 -0.1075823341
C   C38       1.0  0.42790  0.69920  0.48160  1.0000 -0.1075823341
C   C39       1.0  0.07210  0.19920  0.51840  1.0000 -0.1075823341
C   C40       1.0  0.92790  0.80080  0.51840  1.0000 -0.1075823341
C   C41       1.0  0.51830  0.30030  0.53700  1.0000 -0.1590531358
C   C42       1.0  0.48170  0.69970  0.53700  1.0000 -0.1590531358
C   C43       1.0  0.01830  0.19970  0.46300  1.0000 -0.1590531358
C   C44       1.0  0.98170  0.80030  0.46300  1.0000 -0.1590531358
C   C45       1.0  0.63270  0.28550  0.31980  1.0000 0.5333327911
C   C46       1.0  0.36730  0.71450  0.31980  1.0000 0.5333327911
C   C47       1.0  0.13270  0.21450  0.68020  1.0000 0.5333327911
C   C48       1.0  0.86730  0.78550  0.68020  1.0000 0.5333327911
C   C49       1.0  0.74600  0.89000  0.76700  1.0000 0.0701448538
C   C50       1.0  0.25400  0.11000  0.76700  1.0000 0.0701448538
C   C51       1.0  0.24600  0.61000  0.23300  1.0000 0.0701448538
C   C52       1.0  0.75400  0.39000  0.23300  1.0000 0.0701448538
C   C53       1.0  0.73990  0.94330  0.81690  1.0000 -0.2011173368
C   C54       1.0  0.26010  0.05670  0.81690  1.0000 -0.2011173368
C   C55       1.0  0.23990  0.55670  0.18310  1.0000 -0.2011173368
C   C56       1.0  0.76010  0.44330  0.18310  1.0000 -0.2011173368
C   C57       1.0  0.73300  0.94570  0.92480  1.0000 0.11979089
C   C58       1.0  0.26700  0.05430  0.92480  1.0000 0.11979089
C   C59       1.0  0.23300  0.55430  0.07520  1.0000 0.11979089
C   C60       1.0  0.76700  0.44570  0.07520  1.0000 0.11979089
C   C61       1.0  0.73030  0.89310  0.97720  1.0000 -0.1781113633
C   C62       1.0  0.26970  0.10690  0.97720  1.0000 -0.1781113633
C   C63       1.0  0.23030  0.60690  0.02280  1.0000 -0.1781113633
C   C64       1.0  0.76970  0.39310  0.02280  1.0000 -0.1781113633
C   C65       1.0  0.73680  0.83980  0.92180  1.0000 0.1080239299
C   C66       1.0  0.26320  0.16020  0.92180  1.0000 0.1080239299
C   C67       1.0  0.23680  0.66020  0.07820  1.0000 0.1080239299
C   C68       1.0  0.76320  0.33980  0.07820  1.0000 0.1080239299
C   C69       1.0  0.72760  0.00170  0.98440  1.0000 0.0701448538
C   C70       1.0  0.27240  0.99830  0.98440  1.0000 0.0701448538
C   C71       1.0  0.22760  0.49830  0.01560  1.0000 0.0701448538
C   C72       1.0  0.77240  0.50170  0.01560  1.0000 0.0701448538
C   C73       1.0  0.75850  0.05200  0.95010  1.0000 -0.1503129621
C   C74       1.0  0.24150  0.94800  0.95010  1.0000 -0.1503129621
C   C75       1.0  0.25850  0.44800  0.04990  1.0000 -0.1503129621
C   C76       1.0  0.74150  0.55200  0.04990  1.0000 -0.1503129621
C   C77       1.0  0.75660  0.10440  0.00540  1.0000 -0.1006024866
C   C78       1.0  0.24340  0.89560  0.00540  1.0000 -0.1006024866
C   C79       1.0  0.25660  0.39560  0.99460  1.0000 -0.1075823341
C   C80       1.0  0.74340  0.60440  0.99460  1.0000 -0.1075823341
C   C81       1.0  0.72470  0.10760  0.09810  1.0000 -0.026903315
C   C82       1.0  0.27530  0.89240  0.09810  1.0000 -0.026903315
C   C83       1.0  0.22470  0.39240  0.90190  1.0000 -0.026903315
C   C84       1.0  0.77530  0.60760  0.90190  1.0000 -0.026903315
C   C85       1.0  0.69350  0.05840  0.13300  1.0000 -0.1075823341
C   C86       1.0  0.30650  0.94160  0.13300  1.0000 -0.1075823341
C   C87       1.0  0.19350  0.44160  0.86700  1.0000 -0.1075823341
C   C88       1.0  0.80650  0.55840  0.86700  1.0000 -0.1075823341
C   C89       1.0  0.69580  0.00540  0.07550  1.0000 -0.1426956487
C   C90       1.0  0.30420  0.99460  0.07550  1.0000 -0.1426956487
C   C91       1.0  0.19580  0.49460  0.92450  1.0000 -0.1426956487
C   C92       1.0  0.80420  0.50540  0.92450  1.0000 -0.1426956487
C   C93       1.0  0.72530  0.16280  0.16220  1.0000 0.5186803005
C   C94       1.0  0.27470  0.83720  0.16220  1.0000 0.5186803005
C   C95       1.0  0.22530  0.33720  0.83780  1.0000 0.5186803005
C   C96       1.0  0.77470  0.66280  0.83780  1.0000 0.5186803005
C   C97       1.0  0.26710  0.81650  0.56680  1.0000 0.1080239299
C   C98       1.0  0.73290  0.18350  0.56680  1.0000 0.1080239299
C   C99       1.0  0.76710  0.68350  0.43320  1.0000 0.1080239299
C   C100      1.0  0.23290  0.31650  0.43320  1.0000 0.1080239299
C   C101      1.0  0.25790  0.86750  0.50500  1.0000 -0.1892917865
C   C102      1.0  0.74210  0.13250  0.50500  1.0000 -0.1892917865
C   C103      1.0  0.75790  0.63250  0.49500  1.0000 -0.1892917865
C   C104      1.0  0.24210  0.36750  0.49500  1.0000 -0.1892917865
C   C105      1.0  0.21950  0.90980  0.54300  1.0000 0.11979089
C   C106      1.0  0.78050  0.09020  0.54300  1.0000 0.11979089
C   C107      1.0  0.71950  0.59020  0.45700  1.0000 0.11979089
C   C108      1.0  0.28050  0.40980  0.45700  1.0000 0.11979089
C   C109      1.0  0.19260  0.90120  0.63850  1.0000 -0.2011173368
C   C110      1.0  0.80740  0.09880  0.63850  1.0000 -0.2011173368
C   C111      1.0  0.69260  0.59880  0.36150  1.0000 -0.2011173368
C   C112      1.0  0.30740  0.40120  0.36150  1.0000 -0.2011173368
C   C113      1.0  0.20590  0.85030  0.69490  1.0000 0.0557458977
C   C114      1.0  0.79410  0.14970  0.69490  1.0000 0.0557458977
C   C115      1.0  0.70590  0.64970  0.30510  1.0000 0.0557458977
C   C116      1.0  0.29410  0.35030  0.30510  1.0000 0.0546989254
C   C117      1.0  0.21260  0.96610  0.48380  1.0000 0.0701448538
C   C118      1.0  0.78740  0.03390  0.48380  1.0000 0.0701448538
C   C119      1.0  0.71260  0.53390  0.51620  1.0000 0.0701448538
C   C120      1.0  0.28740  0.46610  0.51620  1.0000 0.0701448538
C   C121      1.0  0.21930  0.96850  0.37500  1.0000 -0.1426956487
C   C122      1.0  0.78070  0.03150  0.37500  1.0000 -0.1426956487
C   C123      1.0  0.71930  0.53150  0.62500  1.0000 -0.1426956487
C   C124      1.0  0.28070  0.46850  0.62500  1.0000 -0.1426956487
C   C125      1.0  0.21840  0.02120  0.32270  1.0000 -0.1006024866
C   C126      1.0  0.78160  0.97880  0.32270  1.0000 -0.1006024866
C   C127      1.0  0.71840  0.47880  0.67730  1.0000 -0.0949688667
C   C128      1.0  0.28160  0.52120  0.67730  1.0000 -0.0949688667
C   C129      1.0  0.20840  0.07280  0.37610  1.0000 0.0053897423
C   C130      1.0  0.79160  0.92720  0.37610  1.0000 0.0053897423
C   C131      1.0  0.70840  0.42720  0.62390  1.0000 0.0053897423
C   C132      1.0  0.29160  0.57280  0.62390  1.0000 0.0047845681
C   C133      1.0  0.19920  0.07210  0.48160  1.0000 -0.1075823341
C   C134      1.0  0.80080  0.92790  0.48160  1.0000 -0.1075823341
C   C135      1.0  0.69920  0.42790  0.51840  1.0000 -0.1075823341
C   C136      1.0  0.30080  0.57210  0.51840  1.0000 -0.1075823341
C   C137      1.0  0.19970  0.01830  0.53700  1.0000 -0.1590531358
C   C138      1.0  0.80030  0.98170  0.53700  1.0000 -0.1590531358
C   C139      1.0  0.69970  0.48170  0.46300  1.0000 -0.1590531358
C   C140      1.0  0.30030  0.51830  0.46300  1.0000 -0.1590531358
C   C141      1.0  0.21450  0.13270  0.31980  1.0000 0.5333327911
C   C142      1.0  0.78550  0.86730  0.31980  1.0000 0.5333327911
C   C143      1.0  0.71450  0.36730  0.68020  1.0000 0.5333327911
C   C144      1.0  0.28550  0.63270  0.68020  1.0000 0.5333327911
C   C145      1.0  0.61000  0.24600  0.76700  1.0000 0.0701448538
C   C146      1.0  0.39000  0.75400  0.76700  1.0000 0.0701448538
C   C147      1.0  0.11000  0.25400  0.23300  1.0000 0.0701448538
C   C148      1.0  0.89000  0.74600  0.23300  1.0000 0.0701448538
C   C149      1.0  0.55670  0.23990  0.81690  1.0000 -0.2011173368
C   C150      1.0  0.44330  0.76010  0.81690  1.0000 -0.2011173368
C   C151      1.0  0.05670  0.26010  0.18310  1.0000 -0.2011173368
C   C152      1.0  0.94330  0.73990  0.18310  1.0000 -0.2011173368
C   C153      1.0  0.55430  0.23300  0.92480  1.0000 0.11979089
C   C154      1.0  0.44570  0.76700  0.92480  1.0000 0.11979089
C   C155      1.0  0.05430  0.26700  0.07520  1.0000 0.11979089
C   C156      1.0  0.94570  0.73300  0.07520  1.0000 0.11979089
C   C157      1.0  0.60690  0.23030  0.97720  1.0000 -0.1781113633
C   C158      1.0  0.39310  0.76970  0.97720  1.0000 -0.1781113633
C   C159      1.0  0.10690  0.26970  0.02280  1.0000 -0.1781113633
C   C160      1.0  0.89310  0.73030  0.02280  1.0000 -0.1781113633
C   C161      1.0  0.66020  0.23680  0.92180  1.0000 0.1080239299
C   C162      1.0  0.33980  0.76320  0.92180  1.0000 0.1080239299
C   C163      1.0  0.16020  0.26320  0.07820  1.0000 0.1080239299
C   C164      1.0  0.83980  0.73680  0.07820  1.0000 0.1080239299
C   C165      1.0  0.49830  0.22760  0.98440  1.0000 0.0701448538
C   C166      1.0  0.50170  0.77240  0.98440  1.0000 0.0701448538
C   C167      1.0  0.99830  0.27240  0.01560  1.0000 0.0701448538
C   C168      1.0  0.00170  0.72760  0.01560  1.0000 0.0701448538
C   C169      1.0  0.44800  0.25850  0.95010  1.0000 -0.1503129621
C   C170      1.0  0.55200  0.74150  0.95010  1.0000 -0.1503129621
C   C171      1.0  0.94800  0.24150  0.04990  1.0000 -0.1503129621
C   C172      1.0  0.05200  0.75850  0.04990  1.0000 -0.1503129621
C   C173      1.0  0.39560  0.25660  0.00540  1.0000 -0.1006024866
C   C174      1.0  0.60440  0.74340  0.00540  1.0000 -0.1006024866
C   C175      1.0  0.89560  0.24340  0.99460  1.0000 -0.1006024866
C   C176      1.0  0.10440  0.75660  0.99460  1.0000 -0.1075823341
C   C177      1.0  0.39240  0.22470  0.09810  1.0000 -0.026903315
C   C178      1.0  0.60760  0.77530  0.09810  1.0000 -0.026903315
C   C179      1.0  0.89240  0.27530  0.90190  1.0000 -0.026903315
C   C180      1.0  0.10760  0.72470  0.90190  1.0000 -0.026903315
C   C181      1.0  0.44160  0.19350  0.13300  1.0000 -0.1075823341
C   C182      1.0  0.55840  0.80650  0.13300  1.0000 -0.1075823341
C   C183      1.0  0.94160  0.30650  0.86700  1.0000 -0.1075823341
C   C184      1.0  0.05840  0.69350  0.86700  1.0000 -0.1075823341
C   C185      1.0  0.49460  0.19580  0.07550  1.0000 -0.1426956487
C   C186      1.0  0.50540  0.80420  0.07550  1.0000 -0.1426956487
C   C187      1.0  0.99460  0.30420  0.92450  1.0000 -0.1426956487
C   C188      1.0  0.00540  0.69580  0.92450  1.0000 -0.1426956487
C   C189      1.0  0.33720  0.22530  0.16220  1.0000 0.5186803005
C   C190      1.0  0.66280  0.77470  0.16220  1.0000 0.5186803005
C   C191      1.0  0.83720  0.27470  0.83780  1.0000 0.5186803005
C   C192      1.0  0.16280  0.72530  0.83780  1.0000 0.5186803005
N   N1        1.0  0.30800  0.25590  0.66010  1.0000 -0.2578671315
N   N2        1.0  0.69200  0.74410  0.66010  1.0000 -0.2578671315
N   N3        1.0  0.80800  0.24410  0.33990  1.0000 -0.2578671315
N   N4        1.0  0.19200  0.75590  0.33990  1.0000 -0.2578671315
N   N5        1.0  0.74570  0.83870  0.81870  1.0000 -0.2392291167
N   N6        1.0  0.25430  0.16130  0.81870  1.0000 -0.2392291167
N   N7        1.0  0.24570  0.66130  0.18130  1.0000 -0.2392291167
N   N8        1.0  0.75430  0.33870  0.18130  1.0000 -0.2392291167
N   N9        1.0  0.24410  0.80800  0.66010  1.0000 -0.2578671315
N   N10       1.0  0.75590  0.19200  0.66010  1.0000 -0.2578671315
N   N11       1.0  0.74410  0.69200  0.33990  1.0000 -0.2578671315
N   N12       1.0  0.25590  0.30800  0.33990  1.0000 -0.2578671315
N   N13       1.0  0.66130  0.24570  0.81870  1.0000 -0.2392291167
N   N14       1.0  0.33870  0.75430  0.81870  1.0000 -0.2392291167
N   N15       1.0  0.16130  0.25430  0.18130  1.0000 -0.2392291167
N   N16       1.0  0.83870  0.74570  0.18130  1.0000 -0.2392291167
O   O1        1.0  0.67862  0.28596  0.37490  1.0000 -0.5327590941
O   O2        1.0  0.32138  0.71404  0.37490  1.0000 -0.5327590941
O   O3        1.0  0.17862  0.21404  0.62510  1.0000 -0.5327590941
O   O4        1.0  0.82138  0.78596  0.62510  1.0000 -0.5327590941
O   O5        1.0  0.63335  0.27880  0.22270  1.0000 -0.5327590941
O   O6        1.0  0.36665  0.72120  0.22270  1.0000 -0.5327590941
O   O7        1.0  0.13335  0.22120  0.77730  1.0000 -0.5327590941
O   O8        1.0  0.86665  0.77880  0.77730  1.0000 -0.5327590941
O   O9        1.0  0.70619  0.16346  0.25320  1.0000 -0.5136294105
O   O10       1.0  0.29381  0.83654  0.25320  1.0000 -0.5136294105
O   O11       1.0  0.20619  0.33654  0.74680  1.0000 -0.5136294105
O   O12       1.0  0.79381  0.66346  0.74680  1.0000 -0.5136294105
O   O13       1.0  0.75058  0.20794  0.12300  1.0000 -0.5327590941
O   O14       1.0  0.24942  0.79206  0.12300  1.0000 -0.5327590941
O   O15       1.0  0.25058  0.29206  0.87700  1.0000 -0.5327590941
O   O16       1.0  0.74942  0.70794  0.87700  1.0000 -0.5327590941
O   O17       1.0  0.21404  0.17862  0.37490  1.0000 -0.5327590941
O   O18       1.0  0.78596  0.82138  0.37490  1.0000 -0.5327590941
O   O19       1.0  0.71404  0.32138  0.62510  1.0000 -0.5327590941
O   O20       1.0  0.28596  0.67862  0.62510  1.0000 -0.5327590941
O   O21       1.0  0.22120  0.13335  0.22270  1.0000 -0.5327590941
O   O22       1.0  0.77880  0.86665  0.22270  1.0000 -0.5327590941
O   O23       1.0  0.72120  0.36665  0.77730  1.0000 -0.5327590941
O   O24       1.0  0.27880  0.63335  0.77730  1.0000 -0.5327590941
O   O25       1.0  0.33654  0.20619  0.25320  1.0000 -0.5136294105
O   O26       1.0  0.66346  0.79381  0.25320  1.0000 -0.5136294105
O   O27       1.0  0.83654  0.29381  0.74680  1.0000 -0.5136294105
O   O28       1.0  0.16346  0.70619  0.74680  1.0000 -0.5136294105
O   O29       1.0  0.29206  0.25058  0.12300  1.0000 -0.5327590941
O   O30       1.0  0.70794  0.74942  0.12300  1.0000 -0.5327590941
O   O31       1.0  0.79206  0.24942  0.87700  1.0000 -0.5327590941
O   O32       1.0  0.20794  0.75058  0.87700  1.0000 -0.5327590941
