# DDEC6 charges by PACMAN v1.1 (https://github.com/mtap-research/PACMAN-charge/)
data_2013[Co][mog]3[FSR]1
_chemical_formula_sum              "Co6 H72 C60 N4 O48"
_cell_length_a       12.3435
_cell_length_b       17.86
_cell_length_c       12.5175
_cell_angle_alpha    90
_cell_angle_beta     112.601
_cell_angle_gamma    90

_symmetry_space_group_name_H-M    "P 1"
_symmetry_Int_Tables_number       1

loop_
  _symmetry_equiv_pos_as_xyz
  'x, y, z'

loop_
  _atom_site_type_symbol
  _atom_site_label
  _atom_site_symmetry_multiplicity
  _atom_site_fract_x
  _atom_site_fract_y
  _atom_site_fract_z
  _atom_site_occupancy
  _atom_site_charge
Co  Co1       1.0  0.50000  0.00000  0.00000  1.0000 0.8921268793
Co  Co2       1.0  0.00000  0.50000  0.00000  1.0000 0.8921268793
Co  Co3       1.0  0.84260  0.70447  0.43751  1.0000 1.079446009
Co  Co4       1.0  0.65740  0.20447  0.56249  1.0000 1.079446009
Co  Co5       1.0  0.15740  0.29553  0.56249  1.0000 1.079446009
Co  Co6       1.0  0.34260  0.79553  0.43751  1.0000 1.079446009
H   H1        1.0  0.55800  0.02200  0.84770  1.0000 0.3381253543
H   H2        1.0  0.94200  0.52200  0.15230  1.0000 0.3381253543
H   H3        1.0  0.44200  0.97800  0.15230  1.0000 0.3381253543
H   H4        1.0  0.05800  0.47800  0.84770  1.0000 0.3381253543
H   H5        1.0  0.47910  0.08210  0.80860  1.0000 0.3694183242
H   H6        1.0  0.02090  0.58210  0.19140  1.0000 0.3694183242
H   H7        1.0  0.52090  0.91790  0.19140  1.0000 0.3694183242
H   H8        1.0  0.97910  0.41790  0.80860  1.0000 0.3694183242
H   H9        1.0  0.75130  0.82130  0.12120  1.0000 0.1197958576
H   H10       1.0  0.74870  0.32130  0.87880  1.0000 0.1197958576
H   H11       1.0  0.24870  0.17870  0.87880  1.0000 0.1197958576
H   H12       1.0  0.25130  0.67870  0.12120  1.0000 0.1197958576
H   H13       1.0  0.02810  0.71550  0.08780  1.0000 0.1300742042
H   H14       1.0  0.47190  0.21550  0.91220  1.0000 0.1300742042
H   H15       1.0  0.97190  0.28450  0.91220  1.0000 0.1300742042
H   H16       1.0  0.52810  0.78450  0.08780  1.0000 0.1300742042
H   H17       1.0  0.84880  0.87480  0.85640  1.0000 0.1300742042
H   H18       1.0  0.65120  0.37480  0.14360  1.0000 0.1300742042
H   H19       1.0  0.15120  0.12520  0.14360  1.0000 0.1300742042
H   H20       1.0  0.34880  0.62520  0.85640  1.0000 0.1300742042
H   H21       1.0  0.06420  0.73250  0.91120  1.0000 0.1078493806
H   H22       1.0  0.43580  0.23250  0.08880  1.0000 0.1078493806
H   H23       1.0  0.93580  0.26750  0.08880  1.0000 0.1078493806
H   H24       1.0  0.56420  0.76750  0.91120  1.0000 0.1078493806
H   H25       1.0  0.98860  0.79230  0.81540  1.0000 0.1078493806
H   H26       1.0  0.51140  0.29230  0.18460  1.0000 0.1078493806
H   H27       1.0  0.01140  0.20770  0.18460  1.0000 0.1078493806
H   H28       1.0  0.48860  0.70770  0.81540  1.0000 0.1078493806
H   H29       1.0  0.28750  0.92650  0.01570  1.0000 0.1197958576
H   H30       1.0  0.21250  0.42650  0.98430  1.0000 0.1197958576
H   H31       1.0  0.71250  0.07350  0.98430  1.0000 0.1197958576
H   H32       1.0  0.78750  0.57350  0.01570  1.0000 0.1197958576
H   H33       1.0  0.42870  0.89340  0.78590  1.0000 0.1197958576
H   H34       1.0  0.07130  0.39340  0.21410  1.0000 0.1197958576
H   H35       1.0  0.57130  0.10660  0.21410  1.0000 0.1197958576
H   H36       1.0  0.92870  0.60660  0.78590  1.0000 0.1197958576
H   H37       1.0  0.14730  0.76880  0.76910  1.0000 0.1300742042
H   H38       1.0  0.35270  0.26880  0.23090  1.0000 0.1300742042
H   H39       1.0  0.85270  0.23120  0.23090  1.0000 0.1300742042
H   H40       1.0  0.64730  0.73120  0.76910  1.0000 0.1300742042
H   H41       1.0  0.97980  0.62280  0.38850  1.0000 0.3694183242
H   H42       1.0  0.52020  0.12280  0.61150  1.0000 0.3694183242
H   H43       1.0  0.02020  0.37720  0.61150  1.0000 0.3694183242
H   H44       1.0  0.47980  0.87720  0.38850  1.0000 0.3694183242
H   H45       1.0  0.92570  0.56260  0.43090  1.0000 0.3889231744
H   H46       1.0  0.57430  0.06260  0.56910  1.0000 0.3889231744
H   H47       1.0  0.07430  0.43740  0.56910  1.0000 0.3889231744
H   H48       1.0  0.42570  0.93740  0.43090  1.0000 0.3889231744
H   H49       1.0  0.67320  0.79930  0.36190  1.0000 0.4001951429
H   H50       1.0  0.82680  0.29930  0.63810  1.0000 0.4001951429
H   H51       1.0  0.32680  0.20070  0.63810  1.0000 0.4001951429
H   H52       1.0  0.17320  0.70070  0.36190  1.0000 0.4001951429
H   H53       1.0  0.73090  0.80150  0.48870  1.0000 0.3694183242
H   H54       1.0  0.76910  0.30150  0.51130  1.0000 0.3694183242
H   H55       1.0  0.26910  0.19850  0.51130  1.0000 0.3694183242
H   H56       1.0  0.23090  0.69850  0.48870  1.0000 0.3694183242
H   H57       1.0  0.66570  0.61570  0.30110  1.0000 0.4001951429
H   H58       1.0  0.83430  0.11570  0.69890  1.0000 0.4001951429
H   H59       1.0  0.33430  0.38430  0.69890  1.0000 0.4001951429
H   H60       1.0  0.16570  0.88430  0.30110  1.0000 0.4001951429
H   H61       1.0  0.66130  0.62010  0.41650  1.0000 0.3811154577
H   H62       1.0  0.83870  0.12010  0.58350  1.0000 0.3811154577
H   H63       1.0  0.33870  0.37990  0.58350  1.0000 0.3811154577
H   H64       1.0  0.16130  0.87990  0.41650  1.0000 0.3811154577
H   H65       1.0  0.00280  0.81440  0.50000  1.0000 0.4001951429
H   H66       1.0  0.49720  0.31440  0.50000  1.0000 0.4001951429
H   H67       1.0  0.99720  0.18560  0.50000  1.0000 0.4001951429
H   H68       1.0  0.50280  0.68560  0.50000  1.0000 0.4001951429
H   H69       1.0  0.06800  0.74450  0.54350  1.0000 0.4001951429
H   H70       1.0  0.43200  0.24450  0.45650  1.0000 0.4001951429
H   H71       1.0  0.93200  0.25550  0.45650  1.0000 0.4001951429
H   H72       1.0  0.56800  0.75550  0.54350  1.0000 0.4001951429
C   C1        1.0  0.69210  0.91671  0.94450  1.0000 0.5612453433
C   C2        1.0  0.80790  0.41671  0.05550  1.0000 0.5612453433
C   C3        1.0  0.30790  0.08329  0.05550  1.0000 0.5612453433
C   C4        1.0  0.19210  0.58329  0.94450  1.0000 0.5612453433
C   C5        1.0  0.78720  0.85786  0.98390  1.0000 -0.0198033427
C   C6        1.0  0.71280  0.35786  0.01610  1.0000 -0.0198033427
C   C7        1.0  0.21280  0.14214  0.01610  1.0000 -0.0198033427
C   C8        1.0  0.28720  0.64214  0.98390  1.0000 -0.0198033427
C   C9        1.0  0.80270  0.81479  0.08160  1.0000 -0.140043938
C   C10       1.0  0.69730  0.31479  0.91840  1.0000 -0.140043938
C   C11       1.0  0.19730  0.18521  0.91840  1.0000 -0.140043938
C   C12       1.0  0.30270  0.68521  0.08160  1.0000 -0.140043938
C   C13       1.0  0.89320  0.76210  0.12180  1.0000 -0.0411009193
C   C14       1.0  0.60680  0.26210  0.87820  1.0000 -0.0411009193
C   C15       1.0  0.10680  0.23790  0.87820  1.0000 -0.0411009193
C   C16       1.0  0.39320  0.73790  0.12180  1.0000 -0.0411009193
C   C17       1.0  0.96680  0.75141  0.06140  1.0000 -0.1685749678
C   C18       1.0  0.53320  0.25141  0.93860  1.0000 -0.1685749678
C   C19       1.0  0.03320  0.24859  0.93860  1.0000 -0.1685749678
C   C20       1.0  0.46680  0.74859  0.06140  1.0000 -0.1685749678
C   C21       1.0  0.94980  0.79360  0.96230  1.0000 0.0879464658
C   C22       1.0  0.55020  0.29360  0.03770  1.0000 0.0879464658
C   C23       1.0  0.05020  0.20640  0.03770  1.0000 0.0879464658
C   C24       1.0  0.44980  0.70640  0.96230  1.0000 0.0879464658
C   C25       1.0  0.86030  0.84634  0.92400  1.0000 -0.1614924552
C   C26       1.0  0.63970  0.34634  0.07600  1.0000 -0.1614924552
C   C27       1.0  0.13970  0.15366  0.07600  1.0000 -0.1614924552
C   C28       1.0  0.36030  0.65366  0.92400  1.0000 -0.1614924552
C   C29       1.0  0.90930  0.71735  0.22840  1.0000 0.5823245259
C   C30       1.0  0.59070  0.21735  0.77160  1.0000 0.5823245259
C   C31       1.0  0.09070  0.28265  0.77160  1.0000 0.5823245259
C   C32       1.0  0.40930  0.78265  0.22840  1.0000 0.5823245259
C   C33       1.0  0.03080  0.78363  0.89940  1.0000 -0.0732833532
C   C34       1.0  0.46920  0.28363  0.10060  1.0000 -0.0732833532
C   C35       1.0  0.96920  0.21637  0.10060  1.0000 -0.0732833532
C   C36       1.0  0.53080  0.71637  0.89940  1.0000 -0.0732833532
C   C37       1.0  0.20180  0.84726  0.89820  1.0000 0.2237989517
C   C38       1.0  0.29820  0.34726  0.10180  1.0000 0.2237989517
C   C39       1.0  0.79820  0.15274  0.10180  1.0000 0.2237989517
C   C40       1.0  0.70180  0.65274  0.89820  1.0000 0.2237989517
C   C41       1.0  0.28790  0.90076  0.94940  1.0000 -0.0411009193
C   C42       1.0  0.21210  0.40076  0.05060  1.0000 -0.0411009193
C   C43       1.0  0.71210  0.09924  0.05060  1.0000 -0.0411009193
C   C44       1.0  0.78790  0.59924  0.94940  1.0000 -0.0411009193
C   C45       1.0  0.37070  0.88116  0.81560  1.0000 0.0371799242
C   C46       1.0  0.12930  0.38116  0.18440  1.0000 0.0371799242
C   C47       1.0  0.62930  0.11884  0.18440  1.0000 0.0371799242
C   C48       1.0  0.87070  0.61884  0.81560  1.0000 0.0371799242
C   C49       1.0  0.28850  0.82620  0.76030  1.0000 -0.0411009193
C   C50       1.0  0.21150  0.32620  0.23970  1.0000 -0.0411009193
C   C51       1.0  0.71150  0.17380  0.23970  1.0000 -0.0411009193
C   C52       1.0  0.78850  0.67380  0.76030  1.0000 -0.0411009193
C   C53       1.0  0.20270  0.80740  0.80340  1.0000 -0.203292766
C   C54       1.0  0.29730  0.30740  0.19660  1.0000 -0.203292766
C   C55       1.0  0.79730  0.19260  0.19660  1.0000 -0.203292766
C   C56       1.0  0.70270  0.69260  0.80340  1.0000 -0.203292766
C   C57       1.0  0.28920  0.78713  0.65330  1.0000 0.5612453433
C   C58       1.0  0.21080  0.28713  0.34670  1.0000 0.5612453433
C   C59       1.0  0.71080  0.21287  0.34670  1.0000 0.5612453433
C   C60       1.0  0.78920  0.71287  0.65330  1.0000 0.5612453433
N   N1        1.0  0.37114  0.91765  0.90965  1.0000 -0.2237302152
N   N2        1.0  0.12886  0.41765  0.09035  1.0000 -0.2237302152
N   N3        1.0  0.62886  0.08235  0.09035  1.0000 -0.2237302152
N   N4        1.0  0.87114  0.58235  0.90965  1.0000 -0.2237302152
O   O1        1.0  0.49234  0.03838  0.83738  1.0000 -0.6700771836
O   O2        1.0  0.00766  0.53838  0.16262  1.0000 -0.6700771836
O   O3        1.0  0.50766  0.96162  0.16262  1.0000 -0.6700771836
O   O4        1.0  0.99234  0.46162  0.83738  1.0000 -0.6700771836
O   O5        1.0  0.62805  0.92250  0.00178  1.0000 -0.5802659778
O   O6        1.0  0.87195  0.42250  0.99822  1.0000 -0.5802659778
O   O7        1.0  0.37195  0.07750  0.99822  1.0000 -0.5802659778
O   O8        1.0  0.12805  0.57750  0.00178  1.0000 -0.5802659778
O   O9        1.0  0.68410  0.95741  0.85842  1.0000 -0.5723076848
O   O10       1.0  0.81590  0.45741  0.14158  1.0000 -0.5723076848
O   O11       1.0  0.31590  0.04259  0.14158  1.0000 -0.5723076848
O   O12       1.0  0.18410  0.54259  0.85842  1.0000 -0.5723076848
O   O13       1.0  0.99561  0.67177  0.26617  1.0000 -0.6057848123
O   O14       1.0  0.50439  0.17177  0.73383  1.0000 -0.6057848123
O   O15       1.0  0.00439  0.32823  0.73383  1.0000 -0.6057848123
O   O16       1.0  0.49561  0.82823  0.26617  1.0000 -0.6057848123
O   O17       1.0  0.83616  0.72828  0.27418  1.0000 -0.5930329648
O   O18       1.0  0.66384  0.22828  0.72582  1.0000 -0.5930329648
O   O19       1.0  0.16384  0.27172  0.72582  1.0000 -0.5930329648
O   O20       1.0  0.33616  0.77172  0.27418  1.0000 -0.5930329648
O   O21       1.0  0.12227  0.83890  0.94890  1.0000 -0.1614924552
O   O22       1.0  0.37773  0.33890  0.05110  1.0000 -0.1614924552
O   O23       1.0  0.87773  0.16110  0.05110  1.0000 -0.1614924552
O   O24       1.0  0.62227  0.66110  0.94890  1.0000 -0.1614924552
O   O25       1.0  0.34791  0.81806  0.60263  1.0000 -0.5930329648
O   O26       1.0  0.15209  0.31806  0.39737  1.0000 -0.5930329648
O   O27       1.0  0.65209  0.18194  0.39737  1.0000 -0.5930329648
O   O28       1.0  0.84791  0.68194  0.60263  1.0000 -0.5930329648
O   O29       1.0  0.23119  0.72750  0.62387  1.0000 -0.5553669719
O   O30       1.0  0.26881  0.22750  0.37613  1.0000 -0.5553669719
O   O31       1.0  0.76881  0.27250  0.37613  1.0000 -0.5553669719
O   O32       1.0  0.73119  0.77250  0.62387  1.0000 -0.5553669719
O   O33       1.0  0.95313  0.60989  0.44349  1.0000 -0.7296162633
O   O34       1.0  0.54687  0.10989  0.55651  1.0000 -0.7296162633
O   O35       1.0  0.04687  0.39011  0.55651  1.0000 -0.7296162633
O   O36       1.0  0.45313  0.89011  0.44349  1.0000 -0.7296162633
O   O37       1.0  0.74267  0.80368  0.42198  1.0000 -0.7368167428
O   O38       1.0  0.75733  0.30368  0.57802  1.0000 -0.7368167428
O   O39       1.0  0.25733  0.19632  0.57802  1.0000 -0.7368167428
O   O40       1.0  0.24267  0.69632  0.42198  1.0000 -0.7368167428
O   O41       1.0  0.68730  0.64279  0.36673  1.0000 -0.7296162633
O   O42       1.0  0.81270  0.14279  0.63327  1.0000 -0.7296162633
O   O43       1.0  0.31270  0.35721  0.63327  1.0000 -0.7296162633
O   O44       1.0  0.18730  0.85721  0.36673  1.0000 -0.7296162633
O   O45       1.0  0.99660  0.76590  0.51570  1.0000 -0.7208243994
O   O46       1.0  0.50340  0.26590  0.48430  1.0000 -0.7208243994
O   O47       1.0  0.00340  0.23410  0.48430  1.0000 -0.7208243994
O   O48       1.0  0.49660  0.73410  0.51570  1.0000 -0.7208243994
