# DDEC6 charges by PACMAN v1.1 (https://github.com/mtap-research/PACMAN-charge/)
data_2013[Cd][rtl]3[FSR]2
_chemical_formula_sum              "Cd4 H32 C76 N8 O24"
_cell_length_a       4.9738
_cell_length_b       24.836
_cell_length_c       20.7499
_cell_angle_alpha    90
_cell_angle_beta     97.891
_cell_angle_gamma    90

_symmetry_space_group_name_H-M    "P 1"
_symmetry_Int_Tables_number       1

loop_
  _symmetry_equiv_pos_as_xyz
  'x, y, z'

loop_
  _atom_site_type_symbol
  _atom_site_label
  _atom_site_symmetry_multiplicity
  _atom_site_fract_x
  _atom_site_fract_y
  _atom_site_fract_z
  _atom_site_occupancy
  _atom_site_charge
Cd  Cd1       1.0  0.88230  0.95764  0.55950  1.0000 1.018715139
Cd  Cd2       1.0  0.11770  0.45764  0.94050  1.0000 1.018715139
Cd  Cd3       1.0  0.11770  0.04236  0.44050  1.0000 1.018715139
Cd  Cd4       1.0  0.88230  0.54236  0.05950  1.0000 1.018715139
H   H1        1.0  0.68800  0.39530  0.84460  1.0000 0.1202641814
H   H2        1.0  0.31200  0.89530  0.65540  1.0000 0.1202641814
H   H3        1.0  0.31200  0.60470  0.15540  1.0000 0.1202641814
H   H4        1.0  0.68800  0.10470  0.34460  1.0000 0.1202641814
H   H5        1.0  0.61140  0.31560  0.78700  1.0000 0.1535507324
H   H6        1.0  0.38860  0.81560  0.71300  1.0000 0.1535507324
H   H7        1.0  0.38860  0.68440  0.21300  1.0000 0.1551010865
H   H8        1.0  0.61140  0.18440  0.28700  1.0000 0.1551010865
H   H9        1.0  0.27840  0.25400  0.89190  1.0000 0.1535507324
H   H10       1.0  0.72160  0.75400  0.60810  1.0000 0.1535507324
H   H11       1.0  0.72160  0.74600  0.10810  1.0000 0.1535507324
H   H12       1.0  0.27840  0.24600  0.39190  1.0000 0.1535507324
H   H13       1.0  0.34080  0.33650  0.94490  1.0000 0.113157514
H   H14       1.0  0.65920  0.83650  0.55510  1.0000 0.113157514
H   H15       1.0  0.65920  0.66350  0.05510  1.0000 0.113157514
H   H16       1.0  0.34080  0.16350  0.44490  1.0000 0.113157514
H   H17       1.0  0.39160  0.11180  0.82270  1.0000 0.1202641814
H   H18       1.0  0.60840  0.61180  0.67730  1.0000 0.1202641814
H   H19       1.0  0.60840  0.88820  0.17730  1.0000 0.1202641814
H   H20       1.0  0.39160  0.38820  0.32270  1.0000 0.1202641814
H   H21       1.0  0.25290  0.04120  0.75060  1.0000 0.1290536332
H   H22       1.0  0.74710  0.54120  0.74940  1.0000 0.1290536332
H   H23       1.0  0.74710  0.95880  0.24940  1.0000 0.1290536332
H   H24       1.0  0.25290  0.45880  0.25060  1.0000 0.1290536332
H   H25       1.0  0.03030  0.13950  0.54820  1.0000 0.1202641814
H   H26       1.0  0.96970  0.63950  0.95180  1.0000 0.1202641814
H   H27       1.0  0.96970  0.86050  0.45180  1.0000 0.1202641814
H   H28       1.0  0.03030  0.36050  0.04820  1.0000 0.1202641814
H   H29       1.0  0.19660  0.20260  0.62800  1.0000 0.1202641814
H   H30       1.0  0.80340  0.70260  0.87200  1.0000 0.1202641814
H   H31       1.0  0.80340  0.79740  0.37200  1.0000 0.1202641814
H   H32       1.0  0.19660  0.29740  0.12800  1.0000 0.1202641814
C   C1        1.0  0.81360  0.36660  0.85360  1.0000 0.0903255748
C   C2        1.0  0.18640  0.86660  0.64640  1.0000 0.0903255748
C   C3        1.0  0.18640  0.63340  0.14640  1.0000 0.0903255748
C   C4        1.0  0.81360  0.13340  0.35360  1.0000 0.0903255748
C   C5        1.0  0.76610  0.31930  0.81900  1.0000 -0.1977520534
C   C6        1.0  0.23390  0.81930  0.68100  1.0000 -0.1977520534
C   C7        1.0  0.23390  0.68070  0.18100  1.0000 -0.1977520534
C   C8        1.0  0.76610  0.18070  0.31900  1.0000 -0.1977520534
C   C9        1.0  0.94570  0.27810  0.83180  1.0000 0.2245778623
C   C10       1.0  0.05430  0.77810  0.66820  1.0000 0.2245778623
C   C11       1.0  0.05430  0.72190  0.16820  1.0000 0.2245778623
C   C12       1.0  0.94570  0.22190  0.33180  1.0000 0.2245778623
C   C13       1.0  0.15740  0.28300  0.88010  1.0000 -0.1977520534
C   C14       1.0  0.84260  0.78300  0.61990  1.0000 -0.1977520534
C   C15       1.0  0.84260  0.71700  0.11990  1.0000 -0.1977520534
C   C16       1.0  0.15740  0.21700  0.38010  1.0000 -0.1977520534
C   C17       1.0  0.19020  0.33240  0.91170  1.0000 0.0903255748
C   C18       1.0  0.80980  0.83240  0.58830  1.0000 0.0903255748
C   C19       1.0  0.80980  0.66760  0.08830  1.0000 0.0903255748
C   C20       1.0  0.19020  0.16760  0.41170  1.0000 0.0903255748
C   C21       1.0  0.72040  0.19130  0.81270  1.0000 0.4532769355
C   C22       1.0  0.27960  0.69130  0.68730  1.0000 0.4532769355
C   C23       1.0  0.27960  0.80870  0.18730  1.0000 0.4532769355
C   C24       1.0  0.72040  0.30870  0.31270  1.0000 0.4532769355
C   C25       1.0  0.64840  0.14600  0.76720  1.0000 -0.0812285603
C   C26       1.0  0.35160  0.64600  0.73280  1.0000 -0.0812285603
C   C27       1.0  0.35160  0.85400  0.23280  1.0000 -0.0812285603
C   C28       1.0  0.64840  0.35400  0.26720  1.0000 -0.0812285603
C   C29       1.0  0.75530  0.14263  0.70770  1.0000 0.0379901151
C   C30       1.0  0.24470  0.64263  0.79230  1.0000 0.0379901151
C   C31       1.0  0.24470  0.85737  0.29230  1.0000 0.0379901151
C   C32       1.0  0.75530  0.35737  0.20770  1.0000 0.0379901151
C   C33       1.0  0.95110  0.18080  0.69330  1.0000 -0.0812285603
C   C34       1.0  0.04890  0.68080  0.80670  1.0000 -0.0812285603
C   C35       1.0  0.04890  0.81920  0.30670  1.0000 -0.0812285603
C   C36       1.0  0.95110  0.31920  0.19330  1.0000 -0.0812285603
C   C37       1.0  0.03820  0.22440  0.73890  1.0000 0.4397620218
C   C38       1.0  0.96180  0.72440  0.76110  1.0000 0.4397620218
C   C39       1.0  0.96180  0.77560  0.26110  1.0000 0.4397620218
C   C40       1.0  0.03820  0.27560  0.23890  1.0000 0.4397620218
C   C41       1.0  0.46350  0.10900  0.78270  1.0000 -0.0812285603
C   C42       1.0  0.53650  0.60900  0.71730  1.0000 -0.0812285603
C   C43       1.0  0.53650  0.89100  0.21730  1.0000 -0.0812285603
C   C44       1.0  0.46350  0.39100  0.28270  1.0000 -0.0812285603
C   C45       1.0  0.38040  0.06690  0.73940  1.0000 -0.1120571071
C   C46       1.0  0.61960  0.56690  0.76060  1.0000 -0.1120571071
C   C47       1.0  0.61960  0.93310  0.26060  1.0000 -0.1120571071
C   C48       1.0  0.38040  0.43310  0.23940  1.0000 -0.1120571071
C   C49       1.0  0.48030  0.06200  0.68040  1.0000 -0.0341082849
C   C50       1.0  0.51970  0.56200  0.81960  1.0000 -0.0341082849
C   C51       1.0  0.51970  0.93800  0.31960  1.0000 -0.0341082849
C   C52       1.0  0.48030  0.43800  0.18040  1.0000 -0.0341082849
C   C53       1.0  0.66650  0.10150  0.66160  1.0000 0.0379901151
C   C54       1.0  0.33350  0.60150  0.83840  1.0000 0.0379901151
C   C55       1.0  0.33350  0.89850  0.33840  1.0000 0.0379901151
C   C56       1.0  0.66650  0.39850  0.16160  1.0000 0.0379901151
C   C57       1.0  0.76680  0.10281  0.60030  1.0000 -0.0341082849
C   C58       1.0  0.23320  0.60281  0.89970  1.0000 -0.0341082849
C   C59       1.0  0.23320  0.89719  0.39970  1.0000 -0.0341082849
C   C60       1.0  0.76680  0.39719  0.10030  1.0000 -0.0341082849
C   C61       1.0  0.96110  0.13990  0.58870  1.0000 -0.1120571071
C   C62       1.0  0.03890  0.63990  0.91130  1.0000 -0.1120571071
C   C63       1.0  0.03890  0.86010  0.41130  1.0000 -0.1120571071
C   C64       1.0  0.96110  0.36010  0.08870  1.0000 -0.1120571071
C   C65       1.0  0.05730  0.17830  0.63590  1.0000 -0.0706978706
C   C66       1.0  0.94270  0.67830  0.86410  1.0000 -0.0706978706
C   C67       1.0  0.94270  0.82170  0.36410  1.0000 -0.0706978706
C   C68       1.0  0.05730  0.32170  0.13590  1.0000 -0.0706978706
C   C69       1.0  0.38960  0.01195  0.64240  1.0000 0.5944431978
C   C70       1.0  0.61040  0.51195  0.85760  1.0000 0.5944431978
C   C71       1.0  0.61040  0.98805  0.35760  1.0000 0.5944431978
C   C72       1.0  0.38960  0.48805  0.14240  1.0000 0.5944431978
C   C73       1.0  0.64320  0.07073  0.54200  1.0000 0.6066107112
C   C74       1.0  0.35680  0.57073  0.95800  1.0000 0.6066107112
C   C75       1.0  0.35680  0.92927  0.45800  1.0000 0.6066107112
C   C76       1.0  0.64320  0.42927  0.04200  1.0000 0.6066107112
N   N1        1.0  0.02650  0.37373  0.89870  1.0000 -0.255479802
N   N2        1.0  0.97350  0.87373  0.60130  1.0000 -0.255479802
N   N3        1.0  0.97350  0.62627  0.10130  1.0000 -0.255479802
N   N4        1.0  0.02650  0.12627  0.39870  1.0000 -0.255479802
N   N5        1.0  0.90350  0.22919  0.79410  1.0000 -0.2246830208
N   N6        1.0  0.09650  0.72919  0.70590  1.0000 -0.2246830208
N   N7        1.0  0.09650  0.77081  0.20590  1.0000 -0.2267904771
N   N8        1.0  0.90350  0.27081  0.29410  1.0000 -0.2246830208
O   O1        1.0  0.56507  0.98257  0.62187  1.0000 -0.5765054268
O   O2        1.0  0.43493  0.48257  0.87813  1.0000 -0.5765054268
O   O3        1.0  0.43493  0.01743  0.37813  1.0000 -0.5765054268
O   O4        1.0  0.56507  0.51743  0.12187  1.0000 -0.5765054268
O   O5        1.0  0.14049  0.00155  0.63789  1.0000 -0.5534015787
O   O6        1.0  0.85951  0.50155  0.86211  1.0000 -0.5534015787
O   O7        1.0  0.85951  0.99845  0.36211  1.0000 -0.5534015787
O   O8        1.0  0.14049  0.49845  0.13789  1.0000 -0.5534015787
O   O9        1.0  0.79425  0.04105  0.51205  1.0000 -0.6009396208
O   O10       1.0  0.20575  0.54105  0.98795  1.0000 -0.6009396208
O   O11       1.0  0.20575  0.95895  0.48795  1.0000 -0.6009396208
O   O12       1.0  0.79425  0.45895  0.01205  1.0000 -0.6009396208
O   O13       1.0  0.39545  0.07872  0.52405  1.0000 -0.5399646801
O   O14       1.0  0.60455  0.57872  0.97595  1.0000 -0.5399646801
O   O15       1.0  0.60455  0.92128  0.47595  1.0000 -0.5399646801
O   O16       1.0  0.39545  0.42128  0.02405  1.0000 -0.5399646801
O   O17       1.0  0.62710  0.19706  0.86340  1.0000 -0.431929831
O   O18       1.0  0.37290  0.69706  0.63660  1.0000 -0.431929831
O   O19       1.0  0.37290  0.80294  0.13660  1.0000 -0.431929831
O   O20       1.0  0.62710  0.30294  0.36340  1.0000 -0.431929831
O   O21       1.0  0.21340  0.25722  0.73030  1.0000 -0.4395124954
O   O22       1.0  0.78660  0.75722  0.76970  1.0000 -0.4395124954
O   O23       1.0  0.78660  0.74278  0.26970  1.0000 -0.4395124954
O   O24       1.0  0.21340  0.24278  0.23030  1.0000 -0.4395124954
