# DDEC6 charges by PACMAN v1.1 (https://github.com/mtap-research/PACMAN-charge/)
data_2013[ZnCr][lon]3[FSR]1
_chemical_formula_sum              "Zn12 Cr6 H96 C168 N12 O80"
_cell_length_a       18.9479
_cell_length_b       18.9479
_cell_length_c       35.9127
_cell_angle_alpha    90
_cell_angle_beta     90
_cell_angle_gamma    120

_symmetry_space_group_name_H-M    "P 1"
_symmetry_Int_Tables_number       1

loop_
  _symmetry_equiv_pos_as_xyz
  'x, y, z'

loop_
  _atom_site_type_symbol
  _atom_site_label
  _atom_site_symmetry_multiplicity
  _atom_site_fract_x
  _atom_site_fract_y
  _atom_site_fract_z
  _atom_site_occupancy
  _atom_site_charge
Zn  Zn1       1.0  0.47531  0.52469  0.46640  1.0000 0.8236201162
Zn  Zn2       1.0  0.47531  0.95062  0.46640  1.0000 0.8236201162
Zn  Zn3       1.0  0.04938  0.52469  0.46640  1.0000 0.8236201162
Zn  Zn4       1.0  0.52469  0.47531  0.96640  1.0000 0.8236201162
Zn  Zn5       1.0  0.52469  0.04938  0.96640  1.0000 0.8236201162
Zn  Zn6       1.0  0.95062  0.47531  0.96640  1.0000 0.8236201162
Zn  Zn7       1.0  0.52469  0.47531  0.53360  1.0000 0.8236201162
Zn  Zn8       1.0  0.95062  0.47531  0.53360  1.0000 0.8236201162
Zn  Zn9       1.0  0.52469  0.04938  0.53360  1.0000 0.8236201162
Zn  Zn10      1.0  0.47531  0.52469  0.03360  1.0000 0.8236201162
Zn  Zn11      1.0  0.04938  0.52469  0.03360  1.0000 0.8236201162
Zn  Zn12      1.0  0.47531  0.95062  0.03360  1.0000 0.8236201162
Cr  Cr1       1.0  0.27504  0.55008  0.25000  1.0000 1.559973906
Cr  Cr2       1.0  0.44992  0.72496  0.25000  1.0000 1.559973906
Cr  Cr3       1.0  0.27504  0.72496  0.25000  1.0000 1.559973906
Cr  Cr4       1.0  0.72496  0.44992  0.75000  1.0000 1.559973906
Cr  Cr5       1.0  0.55008  0.27504  0.75000  1.0000 1.559973906
Cr  Cr6       1.0  0.72496  0.27504  0.75000  1.0000 1.559973906
H   H1        1.0  0.38060  0.29590  0.40990  1.0000 0.1281186689
H   H2        1.0  0.70410  0.08470  0.40990  1.0000 0.1281186689
H   H3        1.0  0.91530  0.61940  0.40990  1.0000 0.1281186689
H   H4        1.0  0.61940  0.70410  0.90990  1.0000 0.1281186689
H   H5        1.0  0.29590  0.91530  0.90990  1.0000 0.1281186689
H   H6        1.0  0.08470  0.38060  0.90990  1.0000 0.1281186689
H   H7        1.0  0.29590  0.38060  0.59010  1.0000 0.1281186689
H   H8        1.0  0.08470  0.70410  0.59010  1.0000 0.1281186689
H   H9        1.0  0.61940  0.91530  0.59010  1.0000 0.1281186689
H   H10       1.0  0.70410  0.61940  0.09010  1.0000 0.1281186689
H   H11       1.0  0.91530  0.29590  0.09010  1.0000 0.1281186689
H   H12       1.0  0.38060  0.08470  0.09010  1.0000 0.1281186689
H   H13       1.0  0.61940  0.70410  0.59010  1.0000 0.1281186689
H   H14       1.0  0.29590  0.91530  0.59010  1.0000 0.1281186689
H   H15       1.0  0.08470  0.38060  0.59010  1.0000 0.1281186689
H   H16       1.0  0.38060  0.29590  0.09010  1.0000 0.1281186689
H   H17       1.0  0.70410  0.08470  0.09010  1.0000 0.1281186689
H   H18       1.0  0.91530  0.61940  0.09010  1.0000 0.1281186689
H   H19       1.0  0.70410  0.61940  0.40990  1.0000 0.1281186689
H   H20       1.0  0.91530  0.29590  0.40990  1.0000 0.1281186689
H   H21       1.0  0.38060  0.08470  0.40990  1.0000 0.1281186689
H   H22       1.0  0.29590  0.38060  0.90990  1.0000 0.1281186689
H   H23       1.0  0.08470  0.70410  0.90990  1.0000 0.1281186689
H   H24       1.0  0.61940  0.91530  0.90990  1.0000 0.1281186689
H   H25       1.0  0.47460  0.23730  0.49700  1.0000 0.1362509385
H   H26       1.0  0.76270  0.23730  0.49700  1.0000 0.1362509385
H   H27       1.0  0.76270  0.52540  0.49700  1.0000 0.1362509385
H   H28       1.0  0.52540  0.76270  0.99700  1.0000 0.1362509385
H   H29       1.0  0.23730  0.76270  0.99700  1.0000 0.1362509385
H   H30       1.0  0.23730  0.47460  0.99700  1.0000 0.1362509385
H   H31       1.0  0.23730  0.47460  0.50300  1.0000 0.1362509385
H   H32       1.0  0.23730  0.76270  0.50300  1.0000 0.1362509385
H   H33       1.0  0.52540  0.76270  0.50300  1.0000 0.1362509385
H   H34       1.0  0.76270  0.52540  0.00300  1.0000 0.1362509385
H   H35       1.0  0.76270  0.23730  0.00300  1.0000 0.1362509385
H   H36       1.0  0.47460  0.23730  0.00300  1.0000 0.1362509385
H   H37       1.0  0.33620  0.16810  0.38430  1.0000 0.1170040468
H   H38       1.0  0.83190  0.16810  0.38430  1.0000 0.1170040468
H   H39       1.0  0.83190  0.66380  0.38430  1.0000 0.1170040468
H   H40       1.0  0.66380  0.83190  0.88430  1.0000 0.1170040468
H   H41       1.0  0.16810  0.83190  0.88430  1.0000 0.1170040468
H   H42       1.0  0.16810  0.33620  0.88430  1.0000 0.1170040468
H   H43       1.0  0.16810  0.33620  0.61570  1.0000 0.1170040468
H   H44       1.0  0.16810  0.83190  0.61570  1.0000 0.1170040468
H   H45       1.0  0.66380  0.83190  0.61570  1.0000 0.1170040468
H   H46       1.0  0.83190  0.66380  0.11570  1.0000 0.1170040468
H   H47       1.0  0.83190  0.16810  0.11570  1.0000 0.1170040468
H   H48       1.0  0.33620  0.16810  0.11570  1.0000 0.1170040468
H   H49       1.0  0.55480  0.64950  0.40870  1.0000 0.1281186689
H   H50       1.0  0.35050  0.90530  0.40870  1.0000 0.1281186689
H   H51       1.0  0.09470  0.44520  0.40870  1.0000 0.1281186689
H   H52       1.0  0.44520  0.35050  0.90870  1.0000 0.1281186689
H   H53       1.0  0.64950  0.09470  0.90870  1.0000 0.1281186689
H   H54       1.0  0.90530  0.55480  0.90870  1.0000 0.1281186689
H   H55       1.0  0.64950  0.55480  0.59130  1.0000 0.1281186689
H   H56       1.0  0.90530  0.35050  0.59130  1.0000 0.1281186689
H   H57       1.0  0.44520  0.09470  0.59130  1.0000 0.1281186689
H   H58       1.0  0.35050  0.44520  0.09130  1.0000 0.1281186689
H   H59       1.0  0.09470  0.64950  0.09130  1.0000 0.1281186689
H   H60       1.0  0.55480  0.90530  0.09130  1.0000 0.1281186689
H   H61       1.0  0.44520  0.35050  0.59130  1.0000 0.1281186689
H   H62       1.0  0.64950  0.09470  0.59130  1.0000 0.1281186689
H   H63       1.0  0.90530  0.55480  0.59130  1.0000 0.1281186689
H   H64       1.0  0.55480  0.64950  0.09130  1.0000 0.1281186689
H   H65       1.0  0.35050  0.90530  0.09130  1.0000 0.1281186689
H   H66       1.0  0.09470  0.44520  0.09130  1.0000 0.1281186689
H   H67       1.0  0.35050  0.44520  0.40870  1.0000 0.1281186689
H   H68       1.0  0.09470  0.64950  0.40870  1.0000 0.1281186689
H   H69       1.0  0.55480  0.90530  0.40870  1.0000 0.1281186689
H   H70       1.0  0.64950  0.55480  0.90870  1.0000 0.1281186689
H   H71       1.0  0.90530  0.35050  0.90870  1.0000 0.1281186689
H   H72       1.0  0.44520  0.09470  0.90870  1.0000 0.1281186689
H   H73       1.0  0.53330  0.67650  0.34820  1.0000 0.1529089839
H   H74       1.0  0.32350  0.85680  0.34820  1.0000 0.1529089839
H   H75       1.0  0.14320  0.46670  0.34820  1.0000 0.1529089839
H   H76       1.0  0.46670  0.32350  0.84820  1.0000 0.1529089839
H   H77       1.0  0.67650  0.14320  0.84820  1.0000 0.1529089839
H   H78       1.0  0.85680  0.53330  0.84820  1.0000 0.1529089839
H   H79       1.0  0.67650  0.53330  0.65180  1.0000 0.1529089839
H   H80       1.0  0.85680  0.32350  0.65180  1.0000 0.1529089839
H   H81       1.0  0.46670  0.14320  0.65180  1.0000 0.1529089839
H   H82       1.0  0.32350  0.46670  0.15180  1.0000 0.1529089839
H   H83       1.0  0.14320  0.67650  0.15180  1.0000 0.1529089839
H   H84       1.0  0.53330  0.85680  0.15180  1.0000 0.1529089839
H   H85       1.0  0.46670  0.32350  0.65180  1.0000 0.1529089839
H   H86       1.0  0.67650  0.14320  0.65180  1.0000 0.1529089839
H   H87       1.0  0.85680  0.53330  0.65180  1.0000 0.1529089839
H   H88       1.0  0.53330  0.67650  0.15180  1.0000 0.1529089839
H   H89       1.0  0.32350  0.85680  0.15180  1.0000 0.1529089839
H   H90       1.0  0.14320  0.46670  0.15180  1.0000 0.1529089839
H   H91       1.0  0.32350  0.46670  0.34820  1.0000 0.1529089839
H   H92       1.0  0.14320  0.67650  0.34820  1.0000 0.1529089839
H   H93       1.0  0.53330  0.85680  0.34820  1.0000 0.1529089839
H   H94       1.0  0.67650  0.53330  0.84820  1.0000 0.1529089839
H   H95       1.0  0.85680  0.32350  0.84820  1.0000 0.1529089839
H   H96       1.0  0.46670  0.14320  0.84820  1.0000 0.1529089839
C   C1        1.0  0.42940  0.27800  0.45638  1.0000 -0.0358189958
C   C2        1.0  0.72200  0.15140  0.45638  1.0000 -0.0348548375
C   C3        1.0  0.84860  0.57060  0.45638  1.0000 -0.0348548375
C   C4        1.0  0.57060  0.72200  0.95638  1.0000 -0.0358189958
C   C5        1.0  0.27800  0.84860  0.95638  1.0000 -0.0358189958
C   C6        1.0  0.15140  0.42940  0.95638  1.0000 -0.0358189958
C   C7        1.0  0.27800  0.42940  0.54362  1.0000 -0.0358189958
C   C8        1.0  0.15140  0.72200  0.54362  1.0000 -0.0358189958
C   C9        1.0  0.57060  0.84860  0.54362  1.0000 -0.0358189958
C   C10       1.0  0.72200  0.57060  0.04362  1.0000 -0.0358189958
C   C11       1.0  0.84860  0.27800  0.04362  1.0000 -0.0358189958
C   C12       1.0  0.42940  0.15140  0.04362  1.0000 -0.0358189958
C   C13       1.0  0.57060  0.72200  0.54362  1.0000 -0.0358189958
C   C14       1.0  0.27800  0.84860  0.54362  1.0000 -0.0358189958
C   C15       1.0  0.15140  0.42940  0.54362  1.0000 -0.0358189958
C   C16       1.0  0.42940  0.27800  0.04362  1.0000 -0.0358189958
C   C17       1.0  0.72200  0.15140  0.04362  1.0000 -0.0358189958
C   C18       1.0  0.84860  0.57060  0.04362  1.0000 -0.0358189958
C   C19       1.0  0.72200  0.57060  0.45638  1.0000 -0.0348548375
C   C20       1.0  0.84860  0.27800  0.45638  1.0000 -0.0358189958
C   C21       1.0  0.42940  0.15140  0.45638  1.0000 -0.0358189958
C   C22       1.0  0.27800  0.42940  0.95638  1.0000 -0.0358189958
C   C23       1.0  0.15140  0.72200  0.95638  1.0000 -0.0358189958
C   C24       1.0  0.57060  0.84860  0.95638  1.0000 -0.0358189958
C   C25       1.0  0.45390  0.35810  0.47405  1.0000 0.5877949402
C   C26       1.0  0.64190  0.09580  0.47405  1.0000 0.5877949402
C   C27       1.0  0.90420  0.54610  0.47405  1.0000 0.5877949402
C   C28       1.0  0.54610  0.64190  0.97405  1.0000 0.5877949402
C   C29       1.0  0.35810  0.90420  0.97405  1.0000 0.5877949402
C   C30       1.0  0.09580  0.45390  0.97405  1.0000 0.5877949402
C   C31       1.0  0.35810  0.45390  0.52595  1.0000 0.5877949402
C   C32       1.0  0.09580  0.64190  0.52595  1.0000 0.5877949402
C   C33       1.0  0.54610  0.90420  0.52595  1.0000 0.5877949402
C   C34       1.0  0.64190  0.54610  0.02595  1.0000 0.5877949402
C   C35       1.0  0.90420  0.35810  0.02595  1.0000 0.5877949402
C   C36       1.0  0.45390  0.09580  0.02595  1.0000 0.5877949402
C   C37       1.0  0.54610  0.64190  0.52595  1.0000 0.5877949402
C   C38       1.0  0.35810  0.90420  0.52595  1.0000 0.5877949402
C   C39       1.0  0.09580  0.45390  0.52595  1.0000 0.5877949402
C   C40       1.0  0.45390  0.35810  0.02595  1.0000 0.5877949402
C   C41       1.0  0.64190  0.09580  0.02595  1.0000 0.5877949402
C   C42       1.0  0.90420  0.54610  0.02595  1.0000 0.5877949402
C   C43       1.0  0.64190  0.54610  0.47405  1.0000 0.5877949402
C   C44       1.0  0.90420  0.35810  0.47405  1.0000 0.5877949402
C   C45       1.0  0.45390  0.09580  0.47405  1.0000 0.5877949402
C   C46       1.0  0.35810  0.45390  0.97405  1.0000 0.5877949402
C   C47       1.0  0.09580  0.64190  0.97405  1.0000 0.5877949402
C   C48       1.0  0.54610  0.90420  0.97405  1.0000 0.5877949402
C   C49       1.0  0.39110  0.25800  0.42239  1.0000 -0.0966998591
C   C50       1.0  0.74200  0.13310  0.42239  1.0000 -0.0925840145
C   C51       1.0  0.86690  0.60890  0.42239  1.0000 -0.0966998591
C   C52       1.0  0.60890  0.74200  0.92239  1.0000 -0.0925840145
C   C53       1.0  0.25800  0.86690  0.92239  1.0000 -0.0925840145
C   C54       1.0  0.13310  0.39110  0.92239  1.0000 -0.0925840145
C   C55       1.0  0.25800  0.39110  0.57761  1.0000 -0.0925840145
C   C56       1.0  0.13310  0.74200  0.57761  1.0000 -0.0925840145
C   C57       1.0  0.60890  0.86690  0.57761  1.0000 -0.0925840145
C   C58       1.0  0.74200  0.60890  0.07761  1.0000 -0.0966998591
C   C59       1.0  0.86690  0.25800  0.07761  1.0000 -0.0966998591
C   C60       1.0  0.39110  0.13310  0.07761  1.0000 -0.0966998591
C   C61       1.0  0.60890  0.74200  0.57761  1.0000 -0.0966998591
C   C62       1.0  0.25800  0.86690  0.57761  1.0000 -0.0925840145
C   C63       1.0  0.13310  0.39110  0.57761  1.0000 -0.0925840145
C   C64       1.0  0.39110  0.25800  0.07761  1.0000 -0.0966998591
C   C65       1.0  0.74200  0.13310  0.07761  1.0000 -0.0966998591
C   C66       1.0  0.86690  0.60890  0.07761  1.0000 -0.0966998591
C   C67       1.0  0.74200  0.60890  0.42239  1.0000 -0.0966998591
C   C68       1.0  0.86690  0.25800  0.42239  1.0000 -0.0966998591
C   C69       1.0  0.39110  0.13310  0.42239  1.0000 -0.0925840145
C   C70       1.0  0.25800  0.39110  0.92239  1.0000 -0.0925840145
C   C71       1.0  0.13310  0.74200  0.92239  1.0000 -0.0925840145
C   C72       1.0  0.60890  0.86690  0.92239  1.0000 -0.0925840145
C   C73       1.0  0.44830  0.22415  0.47343  1.0000 -0.0966998591
C   C74       1.0  0.77585  0.22415  0.47343  1.0000 -0.0966998591
C   C75       1.0  0.77585  0.55170  0.47343  1.0000 -0.0966998591
C   C76       1.0  0.55170  0.77585  0.97343  1.0000 -0.0966998591
C   C77       1.0  0.22415  0.77585  0.97343  1.0000 -0.0966998591
C   C78       1.0  0.22415  0.44830  0.97343  1.0000 -0.0966998591
C   C79       1.0  0.22415  0.44830  0.52657  1.0000 -0.0966998591
C   C80       1.0  0.22415  0.77585  0.52657  1.0000 -0.0966998591
C   C81       1.0  0.55170  0.77585  0.52657  1.0000 -0.0966998591
C   C82       1.0  0.77585  0.55170  0.02657  1.0000 -0.0966998591
C   C83       1.0  0.77585  0.22415  0.02657  1.0000 -0.0966998591
C   C84       1.0  0.44830  0.22415  0.02657  1.0000 -0.0966998591
C   C85       1.0  0.36800  0.18400  0.40630  1.0000 -0.0925840145
C   C86       1.0  0.81600  0.18400  0.40630  1.0000 -0.0925840145
C   C87       1.0  0.81600  0.63200  0.40630  1.0000 -0.0925840145
C   C88       1.0  0.63200  0.81600  0.90630  1.0000 -0.0925840145
C   C89       1.0  0.18400  0.81600  0.90630  1.0000 -0.0925840145
C   C90       1.0  0.18400  0.36800  0.90630  1.0000 -0.0925840145
C   C91       1.0  0.18400  0.36800  0.59370  1.0000 -0.0925840145
C   C92       1.0  0.18400  0.81600  0.59370  1.0000 -0.0925840145
C   C93       1.0  0.63200  0.81600  0.59370  1.0000 -0.0925840145
C   C94       1.0  0.81600  0.63200  0.09370  1.0000 -0.0925840145
C   C95       1.0  0.81600  0.18400  0.09370  1.0000 -0.0925840145
C   C96       1.0  0.36800  0.18400  0.09370  1.0000 -0.0925840145
C   C97       1.0  0.50620  0.61150  0.39625  1.0000 0.0728622072
C   C98       1.0  0.38850  0.89470  0.39625  1.0000 0.0728622072
C   C99       1.0  0.10530  0.49380  0.39625  1.0000 0.0728622072
C   C100      1.0  0.49380  0.38850  0.89625  1.0000 0.0728622072
C   C101      1.0  0.61150  0.10530  0.89625  1.0000 0.0728622072
C   C102      1.0  0.89470  0.50620  0.89625  1.0000 0.0728622072
C   C103      1.0  0.61150  0.50620  0.60375  1.0000 0.0728622072
C   C104      1.0  0.89470  0.38850  0.60375  1.0000 0.0728622072
C   C105      1.0  0.49380  0.10530  0.60375  1.0000 0.0728622072
C   C106      1.0  0.38850  0.49380  0.10375  1.0000 0.0728622072
C   C107      1.0  0.10530  0.61150  0.10375  1.0000 0.0728622072
C   C108      1.0  0.50620  0.89470  0.10375  1.0000 0.0728622072
C   C109      1.0  0.49380  0.38850  0.60375  1.0000 0.0728622072
C   C110      1.0  0.61150  0.10530  0.60375  1.0000 0.0728622072
C   C111      1.0  0.89470  0.50620  0.60375  1.0000 0.0728622072
C   C112      1.0  0.50620  0.61150  0.10375  1.0000 0.0728622072
C   C113      1.0  0.38850  0.89470  0.10375  1.0000 0.0728622072
C   C114      1.0  0.10530  0.49380  0.10375  1.0000 0.0728622072
C   C115      1.0  0.38850  0.49380  0.39625  1.0000 0.0728622072
C   C116      1.0  0.10530  0.61150  0.39625  1.0000 0.0728622072
C   C117      1.0  0.50620  0.89470  0.39625  1.0000 0.0728622072
C   C118      1.0  0.61150  0.50620  0.89625  1.0000 0.0728622072
C   C119      1.0  0.89470  0.38850  0.89625  1.0000 0.0728622072
C   C120      1.0  0.49380  0.10530  0.89625  1.0000 0.0728622072
C   C121      1.0  0.49410  0.62770  0.36015  1.0000 -0.1602441179
C   C122      1.0  0.37230  0.86640  0.36015  1.0000 -0.1602441179
C   C123      1.0  0.13360  0.50590  0.36015  1.0000 -0.1602441179
C   C124      1.0  0.50590  0.37230  0.86015  1.0000 -0.1602441179
C   C125      1.0  0.62770  0.13360  0.86015  1.0000 -0.1602441179
C   C126      1.0  0.86640  0.49410  0.86015  1.0000 -0.1602441179
C   C127      1.0  0.62770  0.49410  0.63985  1.0000 -0.1602441179
C   C128      1.0  0.86640  0.37230  0.63985  1.0000 -0.1602441179
C   C129      1.0  0.50590  0.13360  0.63985  1.0000 -0.1602441179
C   C130      1.0  0.37230  0.50590  0.13985  1.0000 -0.1602441179
C   C131      1.0  0.13360  0.62770  0.13985  1.0000 -0.1602441179
C   C132      1.0  0.49410  0.86640  0.13985  1.0000 -0.1602441179
C   C133      1.0  0.50590  0.37230  0.63985  1.0000 -0.1602441179
C   C134      1.0  0.62770  0.13360  0.63985  1.0000 -0.1602441179
C   C135      1.0  0.86640  0.49410  0.63985  1.0000 -0.1602441179
C   C136      1.0  0.49410  0.62770  0.13985  1.0000 -0.1602441179
C   C137      1.0  0.37230  0.86640  0.13985  1.0000 -0.1602441179
C   C138      1.0  0.13360  0.50590  0.13985  1.0000 -0.1602441179
C   C139      1.0  0.37230  0.50590  0.36015  1.0000 -0.1602441179
C   C140      1.0  0.13360  0.62770  0.36015  1.0000 -0.1602441179
C   C141      1.0  0.49410  0.86640  0.36015  1.0000 -0.1602441179
C   C142      1.0  0.62770  0.49410  0.86015  1.0000 -0.1602441179
C   C143      1.0  0.86640  0.37230  0.86015  1.0000 -0.1602441179
C   C144      1.0  0.50590  0.13360  0.86015  1.0000 -0.1602441179
C   C145      1.0  0.40753  0.59247  0.30366  1.0000 0.5954523787
C   C146      1.0  0.40753  0.81506  0.30366  1.0000 0.5954523787
C   C147      1.0  0.18494  0.59247  0.30366  1.0000 0.5877949402
C   C148      1.0  0.59247  0.40753  0.80366  1.0000 0.5954523787
C   C149      1.0  0.59247  0.18494  0.80366  1.0000 0.5954523787
C   C150      1.0  0.81506  0.40753  0.80366  1.0000 0.5954523787
C   C151      1.0  0.59247  0.40753  0.69634  1.0000 0.5954523787
C   C152      1.0  0.81506  0.40753  0.69634  1.0000 0.5954523787
C   C153      1.0  0.59247  0.18494  0.69634  1.0000 0.5954523787
C   C154      1.0  0.40753  0.59247  0.19634  1.0000 0.5954523787
C   C155      1.0  0.18494  0.59247  0.19634  1.0000 0.5877949402
C   C156      1.0  0.40753  0.81506  0.19634  1.0000 0.5954523787
C   C157      1.0  0.42638  0.57362  0.34195  1.0000 0.0285951674
C   C158      1.0  0.42638  0.85276  0.34195  1.0000 0.0285951674
C   C159      1.0  0.14724  0.57362  0.34195  1.0000 0.0285951674
C   C160      1.0  0.57362  0.42638  0.84195  1.0000 0.0285951674
C   C161      1.0  0.57362  0.14724  0.84195  1.0000 0.0285951674
C   C162      1.0  0.85276  0.42638  0.84195  1.0000 0.0285951674
C   C163      1.0  0.57362  0.42638  0.65805  1.0000 0.0285951674
C   C164      1.0  0.85276  0.42638  0.65805  1.0000 0.0285951674
C   C165      1.0  0.57362  0.14724  0.65805  1.0000 0.0285951674
C   C166      1.0  0.42638  0.57362  0.15805  1.0000 0.0285951674
C   C167      1.0  0.14724  0.57362  0.15805  1.0000 0.0285951674
C   C168      1.0  0.42638  0.85276  0.15805  1.0000 0.0285951674
N   N1        1.0  0.45369  0.54631  0.41412  1.0000 -0.1690352653
N   N2        1.0  0.45369  0.90738  0.41412  1.0000 -0.1690352653
N   N3        1.0  0.09262  0.54631  0.41412  1.0000 -0.1690352653
N   N4        1.0  0.54631  0.45369  0.91412  1.0000 -0.1690352653
N   N5        1.0  0.54631  0.09262  0.91412  1.0000 -0.1690352653
N   N6        1.0  0.90738  0.45369  0.91412  1.0000 -0.1690352653
N   N7        1.0  0.54631  0.45369  0.58588  1.0000 -0.1690352653
N   N8        1.0  0.90738  0.45369  0.58588  1.0000 -0.1690352653
N   N9        1.0  0.54631  0.09262  0.58588  1.0000 -0.1690352653
N   N10       1.0  0.45369  0.54631  0.08588  1.0000 -0.1690352653
N   N11       1.0  0.09262  0.54631  0.08588  1.0000 -0.1690352653
N   N12       1.0  0.45369  0.90738  0.08588  1.0000 -0.1690352653
O   O1        1.0  0.33333  0.66667  0.25000  1.0000 -1.0753347769
O   O2        1.0  0.66667  0.33333  0.75000  1.0000 -1.0753347769
O   O3        1.0  0.21280  0.42560  0.25000  1.0000 -0.677660564
O   O4        1.0  0.57440  0.78720  0.25000  1.0000 -0.677660564
O   O5        1.0  0.21280  0.78720  0.25000  1.0000 -0.677660564
O   O6        1.0  0.78720  0.57440  0.75000  1.0000 -0.677660564
O   O7        1.0  0.42560  0.21280  0.75000  1.0000 -0.677660564
O   O8        1.0  0.78720  0.21280  0.75000  1.0000 -0.677660564
O   O9        1.0  0.48277  0.36915  0.50637  1.0000 -0.5267204786
O   O10       1.0  0.63085  0.11362  0.50637  1.0000 -0.5267204786
O   O11       1.0  0.88638  0.51723  0.50637  1.0000 -0.5267204786
O   O12       1.0  0.51723  0.63085  0.00637  1.0000 -0.5267204786
O   O13       1.0  0.36915  0.88638  0.00637  1.0000 -0.5267204786
O   O14       1.0  0.11362  0.48277  0.00637  1.0000 -0.5267204786
O   O15       1.0  0.36915  0.48277  0.49363  1.0000 -0.5267204786
O   O16       1.0  0.11362  0.63085  0.49363  1.0000 -0.5267204786
O   O17       1.0  0.51723  0.88638  0.49363  1.0000 -0.5267204786
O   O18       1.0  0.63085  0.51723  0.99363  1.0000 -0.5267204786
O   O19       1.0  0.88638  0.36915  0.99363  1.0000 -0.5267204786
O   O20       1.0  0.48277  0.11362  0.99363  1.0000 -0.5267204786
O   O21       1.0  0.51723  0.63085  0.49363  1.0000 -0.5267204786
O   O22       1.0  0.36915  0.88638  0.49363  1.0000 -0.5267204786
O   O23       1.0  0.11362  0.48277  0.49363  1.0000 -0.5267204786
O   O24       1.0  0.48277  0.36915  0.99363  1.0000 -0.5267204786
O   O25       1.0  0.63085  0.11362  0.99363  1.0000 -0.5267204786
O   O26       1.0  0.88638  0.51723  0.99363  1.0000 -0.5267204786
O   O27       1.0  0.63085  0.51723  0.50637  1.0000 -0.5267204786
O   O28       1.0  0.88638  0.36915  0.50637  1.0000 -0.5267204786
O   O29       1.0  0.48277  0.11362  0.50637  1.0000 -0.5267204786
O   O30       1.0  0.36915  0.48277  0.00637  1.0000 -0.5267204786
O   O31       1.0  0.11362  0.63085  0.00637  1.0000 -0.5267204786
O   O32       1.0  0.51723  0.88638  0.00637  1.0000 -0.5267204786
O   O33       1.0  0.44350  0.40820  0.45613  1.0000 -0.5404450441
O   O34       1.0  0.59180  0.03530  0.45613  1.0000 -0.5404450441
O   O35       1.0  0.96470  0.55650  0.45613  1.0000 -0.5404450441
O   O36       1.0  0.55650  0.59180  0.95613  1.0000 -0.5404450441
O   O37       1.0  0.40820  0.96470  0.95613  1.0000 -0.5404450441
O   O38       1.0  0.03530  0.44350  0.95613  1.0000 -0.5404450441
O   O39       1.0  0.40820  0.44350  0.54387  1.0000 -0.5404450441
O   O40       1.0  0.03530  0.59180  0.54387  1.0000 -0.5404450441
O   O41       1.0  0.55650  0.96470  0.54387  1.0000 -0.5404450441
O   O42       1.0  0.59180  0.55650  0.04387  1.0000 -0.5404450441
O   O43       1.0  0.96470  0.40820  0.04387  1.0000 -0.5404450441
O   O44       1.0  0.44350  0.03530  0.04387  1.0000 -0.5404450441
O   O45       1.0  0.55650  0.59180  0.54387  1.0000 -0.5404450441
O   O46       1.0  0.40820  0.96470  0.54387  1.0000 -0.5404450441
O   O47       1.0  0.03530  0.44350  0.54387  1.0000 -0.5404450441
O   O48       1.0  0.44350  0.40820  0.04387  1.0000 -0.5404450441
O   O49       1.0  0.59180  0.03530  0.04387  1.0000 -0.5404450441
O   O50       1.0  0.96470  0.55650  0.04387  1.0000 -0.5404450441
O   O51       1.0  0.59180  0.55650  0.45613  1.0000 -0.5404450441
O   O52       1.0  0.96470  0.40820  0.45613  1.0000 -0.5404450441
O   O53       1.0  0.44350  0.03530  0.45613  1.0000 -0.5404450441
O   O54       1.0  0.40820  0.44350  0.95613  1.0000 -0.5404450441
O   O55       1.0  0.03530  0.59180  0.95613  1.0000 -0.5404450441
O   O56       1.0  0.55650  0.96470  0.95613  1.0000 -0.5404450441
O   O57       1.0  0.34061  0.54067  0.28974  1.0000 -0.513855648
O   O58       1.0  0.45933  0.79994  0.28974  1.0000 -0.513855648
O   O59       1.0  0.20006  0.65939  0.28974  1.0000 -0.513855648
O   O60       1.0  0.65939  0.45933  0.78974  1.0000 -0.513855648
O   O61       1.0  0.54067  0.20006  0.78974  1.0000 -0.513855648
O   O62       1.0  0.79994  0.34061  0.78974  1.0000 -0.513855648
O   O63       1.0  0.54067  0.34061  0.71026  1.0000 -0.513855648
O   O64       1.0  0.79994  0.45933  0.71026  1.0000 -0.513855648
O   O65       1.0  0.65939  0.20006  0.71026  1.0000 -0.513855648
O   O66       1.0  0.45933  0.65939  0.21026  1.0000 -0.513855648
O   O67       1.0  0.20006  0.54067  0.21026  1.0000 -0.513855648
O   O68       1.0  0.34061  0.79994  0.21026  1.0000 -0.513855648
O   O69       1.0  0.65939  0.45933  0.71026  1.0000 -0.513855648
O   O70       1.0  0.54067  0.20006  0.71026  1.0000 -0.513855648
O   O71       1.0  0.79994  0.34061  0.71026  1.0000 -0.513855648
O   O72       1.0  0.34061  0.54067  0.21026  1.0000 -0.513855648
O   O73       1.0  0.45933  0.79994  0.21026  1.0000 -0.513855648
O   O74       1.0  0.20006  0.65939  0.21026  1.0000 -0.513855648
O   O75       1.0  0.45933  0.65939  0.28974  1.0000 -0.513855648
O   O76       1.0  0.20006  0.54067  0.28974  1.0000 -0.513855648
O   O77       1.0  0.34061  0.79994  0.28974  1.0000 -0.513855648
O   O78       1.0  0.54067  0.34061  0.78974  1.0000 -0.513855648
O   O79       1.0  0.79994  0.45933  0.78974  1.0000 -0.513855648
O   O80       1.0  0.65939  0.20006  0.78974  1.0000 -0.513855648
