# DDEC6 charges by PACMAN v1.1 (https://github.com/mtap-research/PACMAN-charge/)
data_2013[Y][nan]3[FSR]5
_chemical_formula_sum              "Y4 H54 C78 N6 O30"
_cell_length_a       12.725
_cell_length_b       13.57
_cell_length_c       14.12
_cell_angle_alpha    66.224
_cell_angle_beta     67.182
_cell_angle_gamma    77.113

_symmetry_space_group_name_H-M    "P 1"
_symmetry_Int_Tables_number       1

loop_
  _symmetry_equiv_pos_as_xyz
  'x, y, z'

loop_
  _atom_site_type_symbol
  _atom_site_label
  _atom_site_symmetry_multiplicity
  _atom_site_fract_x
  _atom_site_fract_y
  _atom_site_fract_z
  _atom_site_occupancy
  _atom_site_charge
Y   Y1        1.0  0.92862  0.38187  0.51132  1.0000 1.7108154588
Y   Y2        1.0  0.07138  0.61813  0.48868  1.0000 1.7108154588
Y   Y3        1.0  0.93186  0.32077  0.16515  1.0000 1.6223144823
Y   Y4        1.0  0.06814  0.67923  0.83485  1.0000 1.6223144823
H   H1        1.0  0.91250  0.24620  0.63820  1.0000 0.3415552818
H   H2        1.0  0.08750  0.75380  0.36180  1.0000 0.3415552818
H   H3        1.0  0.85280  0.16730  0.61250  1.0000 0.3518801474
H   H4        1.0  0.14720  0.83270  0.38750  1.0000 0.3518801474
H   H5        1.0  0.97780  0.48790  0.22650  1.0000 0.3779104047
H   H6        1.0  0.02220  0.51210  0.77350  1.0000 0.3779104047
H   H7        1.0  0.95750  0.46860  0.13580  1.0000 0.2696693831
H   H8        1.0  0.04250  0.53140  0.86420  1.0000 0.2696693831
H   H9        1.0  0.95030  0.18970  0.02570  1.0000 0.4035378092
H   H10       1.0  0.04970  0.81030  0.97430  1.0000 0.4035378092
H   H11       1.0  0.02210  0.27820  0.02860  1.0000 0.3518801474
H   H12       1.0  0.97790  0.72180  0.97140  1.0000 0.3518801474
H   H13       1.0  0.57640  0.37230  0.58420  1.0000 0.1095639088
H   H14       1.0  0.42360  0.62770  0.41580  1.0000 0.1095639088
H   H15       1.0  0.30490  0.36980  0.52470  1.0000 0.1009027653
H   H16       1.0  0.69510  0.63020  0.47530  1.0000 0.1009027653
H   H17       1.0  0.60770  0.36850  0.29310  1.0000 0.1189439501
H   H18       1.0  0.39230  0.63150  0.70690  1.0000 0.1189439501
H   H19       1.0  0.52510  0.26530  0.26190  1.0000 0.1189439501
H   H20       1.0  0.47490  0.73470  0.73810  1.0000 0.1189439501
H   H21       1.0  0.45230  0.23620  0.15070  1.0000 0.1095639088
H   H22       1.0  0.54770  0.76380  0.84930  1.0000 0.1095639088
H   H23       1.0  0.27510  0.31340  0.14180  1.0000 0.1189439501
H   H24       1.0  0.72490  0.68660  0.85820  1.0000 0.1189439501
H   H25       1.0  0.17160  0.42060  0.24330  1.0000 0.127912473
H   H26       1.0  0.82840  0.57940  0.75670  1.0000 0.127912473
H   H27       1.0  0.91670  0.84430  0.22590  1.0000 0.1095639088
H   H28       1.0  0.08330  0.15570  0.77410  1.0000 0.1095639088
H   H29       1.0  0.70600  0.88040  0.07550  1.0000 0.1009027653
H   H30       1.0  0.29400  0.11960  0.92450  1.0000 0.1009027653
H   H31       1.0  0.79930  0.58260  0.24950  1.0000 0.127912473
H   H32       1.0  0.20070  0.41740  0.75050  1.0000 0.127912473
H   H33       1.0  0.52000  0.76170  0.19670  1.0000 0.1189439501
H   H34       1.0  0.48000  0.23830  0.80330  1.0000 0.1189439501
H   H35       1.0  0.39320  0.67810  0.17820  1.0000 0.127912473
H   H36       1.0  0.60680  0.32190  0.82180  1.0000 0.127912473
H   H37       1.0  0.45510  0.54450  0.10600  1.0000 0.1095639088
H   H38       1.0  0.54490  0.45550  0.89400  1.0000 0.1095639088
H   H39       1.0  0.64740  0.48400  0.05790  1.0000 0.127912473
H   H40       1.0  0.35260  0.51600  0.94210  1.0000 0.127912473
H   H41       1.0  0.64330  0.12250  0.17780  1.0000 0.1189439501
H   H42       1.0  0.35670  0.87750  0.82220  1.0000 0.1189439501
H   H43       1.0  0.51570  0.99650  0.24900  1.0000 0.1095639088
H   H44       1.0  0.48430  0.00350  0.75100  1.0000 0.1095639088
H   H45       1.0  0.50730  0.85570  0.41570  1.0000 0.1009027653
H   H46       1.0  0.49270  0.14430  0.58430  1.0000 0.1009027653
H   H47       1.0  0.61950  0.85310  0.51230  1.0000 0.1095639088
H   H48       1.0  0.38050  0.14690  0.48770  1.0000 0.1095639088
H   H49       1.0  0.72330  0.13380  0.47310  1.0000 0.1095639088
H   H50       1.0  0.27670  0.86620  0.52690  1.0000 0.1095639088
H   H51       1.0  0.90810  0.97220  0.65650  1.0000 0.1189439501
H   H52       1.0  0.09190  0.02780  0.34350  1.0000 0.1189439501
H   H53       1.0  0.82480  0.82750  0.50300  1.0000 0.127912473
H   H54       1.0  0.17520  0.17250  0.49700  1.0000 0.127912473
C   C1        1.0  0.74150  0.36220  0.40220  1.0000 0.6263473921
C   C2        1.0  0.25850  0.63780  0.59780  1.0000 0.6263473921
C   C3        1.0  0.61340  0.36650  0.43530  1.0000 -0.078114134
C   C4        1.0  0.38660  0.63350  0.56470  1.0000 -0.078114134
C   C5        1.0  0.54310  0.37020  0.53700  1.0000 0.0570160678
C   C6        1.0  0.45690  0.62980  0.46300  1.0000 0.0570160678
C   C7        1.0  0.38400  0.36980  0.50100  1.0000 0.0322135569
C   C8        1.0  0.61600  0.63020  0.49900  1.0000 0.0322135569
C   C9        1.0  0.44520  0.36870  0.39580  1.0000 0.0207033654
C   C10       1.0  0.55480  0.63130  0.60420  1.0000 0.0207033654
C   C11       1.0  0.56250  0.36800  0.36320  1.0000 -0.1180475138
C   C12       1.0  0.43750  0.63200  0.63680  1.0000 -0.1180475138
C   C13       1.0  0.39220  0.35810  0.32480  1.0000 0.048993585
C   C14       1.0  0.60780  0.64190  0.67520  1.0000 0.048993585
C   C15       1.0  0.45270  0.29640  0.25990  1.0000 -0.1488798342
C   C16       1.0  0.54730  0.70360  0.74010  1.0000 -0.1488798342
C   C17       1.0  0.40960  0.27910  0.19230  1.0000 -0.0906507882
C   C18       1.0  0.59040  0.72090  0.80770  1.0000 -0.0906507882
C   C19       1.0  0.30480  0.32490  0.18680  1.0000 -0.0906507882
C   C20       1.0  0.69520  0.67510  0.81320  1.0000 -0.0906507882
C   C21       1.0  0.24280  0.38850  0.24820  1.0000 -0.0906507882
C   C22       1.0  0.75720  0.61150  0.75180  1.0000 -0.0906507882
C   C23       1.0  0.28400  0.40600  0.31710  1.0000 -0.0906507882
C   C24       1.0  0.71600  0.59400  0.68290  1.0000 -0.0906507882
C   C25       1.0  0.21000  0.47690  0.37720  1.0000 0.5816762739
C   C26       1.0  0.79000  0.52310  0.62280  1.0000 0.5816762739
C   C27       1.0  0.93560  0.63150  0.32460  1.0000 0.6222558313
C   C28       1.0  0.06440  0.36850  0.67540  1.0000 0.6222558313
C   C29       1.0  0.86890  0.70320  0.24970  1.0000 -0.0706277633
C   C30       1.0  0.13110  0.29680  0.75030  1.0000 -0.0706277633
C   C31       1.0  0.87130  0.81440  0.20800  1.0000 0.048993585
C   C32       1.0  0.12870  0.18560  0.79200  1.0000 0.048993585
C   C33       1.0  0.74830  0.83480  0.11980  1.0000 0.0207033654
C   C34       1.0  0.25170  0.16520  0.88020  1.0000 0.0207033654
C   C35       1.0  0.73950  0.72480  0.15540  1.0000 0.0412794842
C   C36       1.0  0.26050  0.27520  0.84460  1.0000 0.0412794842
C   C37       1.0  0.80210  0.65710  0.22290  1.0000 -0.1122128374
C   C38       1.0  0.19790  0.34290  0.77710  1.0000 -0.1122128374
C   C39       1.0  0.66230  0.67680  0.13150  1.0000 0.0570160678
C   C40       1.0  0.33770  0.32320  0.86850  1.0000 0.0570160678
C   C41       1.0  0.54660  0.70760  0.16650  1.0000 -0.1394001699
C   C42       1.0  0.45340  0.29240  0.83350  1.0000 -0.1394001699
C   C43       1.0  0.47080  0.65660  0.15600  1.0000 -0.0706277633
C   C44       1.0  0.52920  0.34340  0.84400  1.0000 -0.0706277633
C   C45       1.0  0.50730  0.57630  0.11390  1.0000 -0.0906507882
C   C46       1.0  0.49270  0.42370  0.88610  1.0000 -0.0906507882
C   C47       1.0  0.62230  0.54190  0.08270  1.0000 -0.1122128374
C   C48       1.0  0.37770  0.45810  0.91730  1.0000 -0.1122128374
C   C49       1.0  0.70010  0.59490  0.08900  1.0000 -0.078114134
C   C50       1.0  0.29990  0.40510  0.91100  1.0000 -0.078114134
C   C51       1.0  0.82500  0.56410  0.03590  1.0000 0.6222558313
C   C52       1.0  0.17500  0.43590  0.96410  1.0000 0.6222558313
C   C53       1.0  0.78410  0.15690  0.25010  1.0000 0.5502171212
C   C54       1.0  0.21590  0.84310  0.74990  1.0000 0.5502171212
C   C55       1.0  0.70540  0.06940  0.30270  1.0000 -0.0706277633
C   C56       1.0  0.29460  0.93060  0.69730  1.0000 -0.0706277633
C   C57       1.0  0.63720  0.06900  0.24600  1.0000 -0.1028371013
C   C58       1.0  0.36280  0.93100  0.75400  1.0000 -0.1028371013
C   C59       1.0  0.56260  0.99330  0.28710  1.0000 -0.0906507882
C   C60       1.0  0.43740  0.00670  0.71290  1.0000 -0.0906507882
C   C61       1.0  0.55640  0.90980  0.38780  1.0000 -0.078114134
C   C62       1.0  0.44360  0.09020  0.61220  1.0000 -0.078114134
C   C63       1.0  0.62360  0.90820  0.44540  1.0000 -0.1488798342
C   C64       1.0  0.37640  0.09180  0.55460  1.0000 -0.1488798342
C   C65       1.0  0.69840  0.98980  0.40320  1.0000 0.0570160678
C   C66       1.0  0.30160  0.01020  0.59680  1.0000 0.0570160678
C   C67       1.0  0.76340  0.98380  0.47460  1.0000 0.0412794842
C   C68       1.0  0.23660  0.01620  0.52540  1.0000 0.0412794842
C   C69       1.0  0.76280  0.06940  0.50290  1.0000 0.0322135569
C   C70       1.0  0.23720  0.93060  0.49710  1.0000 0.0322135569
C   C71       1.0  0.87010  0.97500  0.61080  1.0000 0.0412794842
C   C72       1.0  0.12990  0.02500  0.38920  1.0000 0.0412794842
C   C73       1.0  0.87570  0.88200  0.59050  1.0000 -0.078114134
C   C74       1.0  0.12430  0.11800  0.40950  1.0000 -0.078114134
C   C75       1.0  0.82180  0.88770  0.51990  1.0000 -0.1180475138
C   C76       1.0  0.17820  0.11230  0.48010  1.0000 -0.1180475138
C   C77       1.0  0.94020  0.78210  0.64150  1.0000 0.6222558313
C   C78       1.0  0.05980  0.21790  0.35850  1.0000 0.6222558313
N   N1        1.0  0.43010  0.37100  0.57040  1.0000 -0.2503345914
N   N2        1.0  0.56990  0.62900  0.42960  1.0000 -0.2503345914
N   N3        1.0  0.81230  0.88090  0.14370  1.0000 -0.2503345914
N   N4        1.0  0.18770  0.11910  0.85630  1.0000 -0.2503345914
N   N5        1.0  0.81430  0.06770  0.56950  1.0000 -0.2125648267
N   N6        1.0  0.18570  0.93230  0.43050  1.0000 -0.2125648267
O   O1        1.0  0.77950  0.35910  0.47200  1.0000 -0.5699745125
O   O2        1.0  0.22050  0.64090  0.52800  1.0000 -0.5699745125
O   O3        1.0  0.80050  0.35900  0.30910  1.0000 -0.6068015105
O   O4        1.0  0.19950  0.64100  0.69090  1.0000 -0.6068015105
O   O5        1.0  0.10810  0.45390  0.43880  1.0000 -0.642199964
O   O6        1.0  0.89190  0.54610  0.56120  1.0000 -0.642199964
O   O7        1.0  0.24240  0.56340  0.36520  1.0000 -0.5486113734
O   O8        1.0  0.75760  0.43660  0.63480  1.0000 -0.5486113734
O   O9        1.0  0.92930  0.53130  0.35440  1.0000 -0.6001356549
O   O10       1.0  0.07070  0.46870  0.64560  1.0000 -0.6001356549
O   O11       1.0  0.99170  0.67660  0.34910  1.0000 -0.5934547491
O   O12       1.0  0.00830  0.32340  0.65090  1.0000 -0.5934547491
O   O13       1.0  0.85710  0.46740  0.05040  1.0000 -0.5818967677
O   O14       1.0  0.14290  0.53260  0.94960  1.0000 -0.5818967677
O   O15       1.0  0.88820  0.63970  0.97680  1.0000 -0.5578543848
O   O16       1.0  0.11180  0.36030  0.02320  1.0000 -0.5578543848
O   O17       1.0  0.87900  0.13940  0.26480  1.0000 -0.5578543848
O   O18       1.0  0.12100  0.86060  0.73520  1.0000 -0.5578543848
O   O19       1.0  0.75910  0.24760  0.18720  1.0000 -0.5578543848
O   O20       1.0  0.24090  0.75240  0.81280  1.0000 -0.5578543848
O   O21       1.0  0.97450  0.71270  0.59640  1.0000 -0.6068015105
O   O22       1.0  0.02550  0.28730  0.40360  1.0000 -0.6068015105
O   O23       1.0  0.95340  0.77120  0.72950  1.0000 -0.5818967677
O   O24       1.0  0.04660  0.22880  0.27050  1.0000 -0.5818967677
O   O25       1.0  0.86900  0.21120  0.63250  1.0000 -0.7382909364
O   O26       1.0  0.13100  0.78880  0.36750  1.0000 -0.7382909364
O   O27       1.0  0.99850  0.46930  0.17070  1.0000 -0.7217739529
O   O28       1.0  0.00150  0.53070  0.82930  1.0000 -0.7217739529
O   O29       1.0  0.97770  0.23800  0.03140  1.0000 -0.72876373
O   O30       1.0  0.02230  0.76200  0.96860  1.0000 -0.72876373
