# DDEC6 charges by PACMAN v1.1 (https://github.com/mtap-research/PACMAN-charge/)
data_2013[Zn][nan]3[FSR]11
_chemical_formula_sum              "Zn8 H52 C68 N12 O36"
_cell_length_a       14.1355
_cell_length_b       12.2856
_cell_length_c       17.2984
_cell_angle_alpha    90
_cell_angle_beta     125.674
_cell_angle_gamma    90

_symmetry_space_group_name_H-M    "P 1"
_symmetry_Int_Tables_number       1

loop_
  _symmetry_equiv_pos_as_xyz
  'x, y, z'

loop_
  _atom_site_type_symbol
  _atom_site_label
  _atom_site_symmetry_multiplicity
  _atom_site_fract_x
  _atom_site_fract_y
  _atom_site_fract_z
  _atom_site_occupancy
  _atom_site_charge
Zn  Zn1       1.0  0.69440  0.02250  0.34110  1.0000 0.8915495857
Zn  Zn2       1.0  0.30560  0.52250  0.15890  1.0000 0.8915495857
Zn  Zn3       1.0  0.30560  0.97750  0.65890  1.0000 0.8915495857
Zn  Zn4       1.0  0.69440  0.47750  0.84110  1.0000 0.8915495857
Zn  Zn5       1.0  0.62310  0.24410  0.42280  1.0000 0.8808572873
Zn  Zn6       1.0  0.37690  0.74410  0.07720  1.0000 0.8808572873
Zn  Zn7       1.0  0.37690  0.75590  0.57720  1.0000 0.8808572873
Zn  Zn8       1.0  0.62310  0.25590  0.92280  1.0000 0.8808572873
H   H1        1.0  0.77410  0.66460  0.25760  1.0000 0.1387386456
H   H2        1.0  0.22590  0.16460  0.24240  1.0000 0.1387386456
H   H3        1.0  0.22590  0.33540  0.74240  1.0000 0.1387386456
H   H4        1.0  0.77410  0.83540  0.75760  1.0000 0.1387386456
H   H5        1.0  0.97450  0.66590  0.36040  1.0000 0.1387386456
H   H6        1.0  0.02550  0.16590  0.13960  1.0000 0.1387386456
H   H7        1.0  0.02550  0.33410  0.63960  1.0000 0.1387386456
H   H8        1.0  0.97450  0.83410  0.86040  1.0000 0.1387386456
H   H9        1.0  0.96140  0.97110  0.42850  1.0000 0.1115742963
H   H10       1.0  0.03860  0.47110  0.07150  1.0000 0.1115742963
H   H11       1.0  0.03860  0.02890  0.57150  1.0000 0.1115742963
H   H12       1.0  0.96140  0.52890  0.92850  1.0000 0.1115742963
H   H13       1.0  0.63930  0.95030  0.62140  1.0000 0.1387386456
H   H14       1.0  0.36070  0.45030  0.87860  1.0000 0.1387386456
H   H15       1.0  0.36070  0.04970  0.37860  1.0000 0.1387386456
H   H16       1.0  0.63930  0.54970  0.12140  1.0000 0.1387386456
H   H17       1.0  0.64560  0.04250  0.73720  1.0000 0.1290526847
H   H18       1.0  0.35440  0.54250  0.76280  1.0000 0.1290526847
H   H19       1.0  0.35440  0.95750  0.26280  1.0000 0.1290526847
H   H20       1.0  0.64560  0.45750  0.23720  1.0000 0.1290526847
H   H21       1.0  0.63210  0.31950  0.60860  1.0000 0.1212795361
H   H22       1.0  0.36790  0.81950  0.89140  1.0000 0.1212795361
H   H23       1.0  0.36790  0.68050  0.39140  1.0000 0.1212795361
H   H24       1.0  0.63210  0.18050  0.10860  1.0000 0.1212795361
H   H25       1.0  0.66140  0.74620  0.44760  1.0000 0.1526307374
H   H26       1.0  0.33860  0.24620  0.05240  1.0000 0.1526307374
H   H27       1.0  0.33860  0.25380  0.55240  1.0000 0.1526307374
H   H28       1.0  0.66140  0.75380  0.94760  1.0000 0.1526307374
H   H29       1.0  0.72310  0.67410  0.41440  1.0000 0.1290526847
H   H30       1.0  0.27690  0.17410  0.08560  1.0000 0.1290526847
H   H31       1.0  0.27690  0.32590  0.58560  1.0000 0.1290526847
H   H32       1.0  0.72310  0.82590  0.91440  1.0000 0.1290526847
H   H33       1.0  0.58690  0.68380  0.35040  1.0000 0.1290526847
H   H34       1.0  0.41310  0.18380  0.14960  1.0000 0.1290526847
H   H35       1.0  0.41310  0.31620  0.64960  1.0000 0.1290526847
H   H36       1.0  0.58690  0.81620  0.85040  1.0000 0.1290526847
H   H37       1.0  0.63490  0.47370  0.37870  1.0000 0.1000530686
H   H38       1.0  0.36510  0.97370  0.12130  1.0000 0.1000530686
H   H39       1.0  0.36510  0.52630  0.62130  1.0000 0.1000530686
H   H40       1.0  0.63490  0.02630  0.87870  1.0000 0.1000530686
H   H41       1.0  0.73380  0.57380  0.60370  1.0000 0.1387386456
H   H42       1.0  0.26620  0.07380  0.89630  1.0000 0.1387386456
H   H43       1.0  0.26620  0.42620  0.39630  1.0000 0.1387386456
H   H44       1.0  0.73380  0.92620  0.10370  1.0000 0.1387386456
H   H45       1.0  0.66570  0.68370  0.56250  1.0000 0.1387386456
H   H46       1.0  0.33430  0.18370  0.93750  1.0000 0.1387386456
H   H47       1.0  0.33430  0.31630  0.43750  1.0000 0.1387386456
H   H48       1.0  0.66570  0.81630  0.06250  1.0000 0.1387386456
H   H49       1.0  0.59820  0.57600  0.54910  1.0000 0.1387386456
H   H50       1.0  0.40180  0.07600  0.95090  1.0000 0.1387386456
H   H51       1.0  0.40180  0.42400  0.45090  1.0000 0.1387386456
H   H52       1.0  0.59820  0.92400  0.04910  1.0000 0.1387386456
C   C1        1.0  0.75320  0.81250  0.29540  1.0000 0.0884041212
C   C2        1.0  0.24680  0.31250  0.20460  1.0000 0.0884041212
C   C3        1.0  0.24680  0.18750  0.70460  1.0000 0.0884041212
C   C4        1.0  0.75320  0.68750  0.79540  1.0000 0.0884041212
C   C5        1.0  0.81320  0.72450  0.29640  1.0000 -0.1513776795
C   C6        1.0  0.18680  0.22450  0.20360  1.0000 -0.1513776795
C   C7        1.0  0.18680  0.27550  0.70360  1.0000 -0.1513776795
C   C8        1.0  0.81320  0.77550  0.79640  1.0000 -0.1513776795
C   C9        1.0  0.93250  0.72670  0.35610  1.0000 -0.0497433326
C   C10       1.0  0.06750  0.22670  0.14390  1.0000 -0.0497433326
C   C11       1.0  0.06750  0.27330  0.64390  1.0000 -0.0497433326
C   C12       1.0  0.93250  0.77330  0.85610  1.0000 -0.0497433326
C   C13       1.0  0.99000  0.81630  0.40890  1.0000 -0.0700009769
C   C14       1.0  0.01000  0.31630  0.09110  1.0000 -0.0700009769
C   C15       1.0  0.01000  0.18370  0.59110  1.0000 -0.0700009769
C   C16       1.0  0.99000  0.68370  0.90890  1.0000 -0.0700009769
C   C17       1.0  0.92350  0.90640  0.39850  1.0000 0.0884041212
C   C18       1.0  0.07650  0.40640  0.10150  1.0000 0.0884041212
C   C19       1.0  0.07650  0.09360  0.60150  1.0000 0.0884041212
C   C20       1.0  0.92350  0.59360  0.89850  1.0000 0.0884041212
C   C21       1.0  0.11910  0.81800  0.47710  1.0000 0.5793986156
C   C22       1.0  0.88090  0.31800  0.02290  1.0000 0.5793986156
C   C23       1.0  0.88090  0.18200  0.52290  1.0000 0.5793986156
C   C24       1.0  0.11910  0.68200  0.97710  1.0000 0.5793986156
C   C25       1.0  0.62320  0.81790  0.23350  1.0000 0.5314082786
C   C26       1.0  0.37680  0.31790  0.26650  1.0000 0.5314082786
C   C27       1.0  0.37680  0.18210  0.76650  1.0000 0.5314082786
C   C28       1.0  0.62320  0.68210  0.73350  1.0000 0.5314082786
C   C29       1.0  0.63930  0.07660  0.55140  1.0000 0.1000530686
C   C30       1.0  0.36070  0.57660  0.94860  1.0000 0.1000530686
C   C31       1.0  0.36070  0.92340  0.44860  1.0000 0.1000530686
C   C32       1.0  0.63930  0.42340  0.05140  1.0000 0.1000530686
C   C33       1.0  0.64020  0.02600  0.62080  1.0000 -0.1402277254
C   C34       1.0  0.35980  0.52600  0.87920  1.0000 -0.1402277254
C   C35       1.0  0.35980  0.97400  0.37920  1.0000 -0.1402277254
C   C36       1.0  0.64020  0.47400  0.12080  1.0000 -0.1402277254
C   C37       1.0  0.64230  0.07960  0.68880  1.0000 -0.0497433326
C   C38       1.0  0.35770  0.57960  0.81120  1.0000 -0.0497433326
C   C39       1.0  0.35770  0.92040  0.31120  1.0000 -0.0497433326
C   C40       1.0  0.64230  0.42040  0.18880  1.0000 -0.0497433326
C   C41       1.0  0.63950  0.19320  0.68530  1.0000 -0.0700009769
C   C42       1.0  0.36050  0.69320  0.81470  1.0000 -0.0700009769
C   C43       1.0  0.36050  0.80680  0.31470  1.0000 -0.0700009769
C   C44       1.0  0.63950  0.30680  0.18530  1.0000 -0.0700009769
C   C45       1.0  0.63420  0.24390  0.61170  1.0000 0.0782562702
C   C46       1.0  0.36580  0.74390  0.88830  1.0000 0.0782562702
C   C47       1.0  0.36580  0.75610  0.38830  1.0000 0.0782562702
C   C48       1.0  0.63420  0.25610  0.11170  1.0000 0.0782562702
C   C49       1.0  0.64670  0.25620  0.76190  1.0000 0.5958353266
C   C50       1.0  0.35330  0.75620  0.73810  1.0000 0.5958353266
C   C51       1.0  0.35330  0.74380  0.23810  1.0000 0.5958353266
C   C52       1.0  0.64670  0.24380  0.26190  1.0000 0.5958353266
C   C53       1.0  0.63770  0.01400  0.47360  1.0000 0.5384276047
C   C54       1.0  0.36230  0.51400  0.02640  1.0000 0.5384276047
C   C55       1.0  0.36230  0.98600  0.52640  1.0000 0.5384276047
C   C56       1.0  0.63770  0.48600  0.97360  1.0000 0.5384276047
C   C57       1.0  0.65560  0.68080  0.41470  1.0000 -0.3562696443
C   C58       1.0  0.34440  0.18080  0.08530  1.0000 -0.3562696443
C   C59       1.0  0.34440  0.31920  0.58530  1.0000 -0.3562696443
C   C60       1.0  0.65560  0.81920  0.91470  1.0000 -0.3562696443
C   C61       1.0  0.64020  0.48650  0.43410  1.0000 0.3092458531
C   C62       1.0  0.35980  0.98650  0.06590  1.0000 0.3092458531
C   C63       1.0  0.35980  0.51350  0.56590  1.0000 0.3092458531
C   C64       1.0  0.64020  0.01350  0.93410  1.0000 0.3092458531
C   C65       1.0  0.66280  0.60660  0.55220  1.0000 -0.3236070514
C   C66       1.0  0.33720  0.10660  0.94780  1.0000 -0.3236070514
C   C67       1.0  0.33720  0.39340  0.44780  1.0000 -0.3236070514
C   C68       1.0  0.66280  0.89340  0.05220  1.0000 -0.3236070514
N   N1        1.0  0.80720  0.90330  0.34700  1.0000 -0.26124032
N   N2        1.0  0.19280  0.40330  0.15300  1.0000 -0.26124032
N   N3        1.0  0.19280  0.09670  0.65300  1.0000 -0.26124032
N   N4        1.0  0.80720  0.59670  0.84700  1.0000 -0.26124032
N   N5        1.0  0.63190  0.18570  0.54290  1.0000 -0.2463127837
N   N6        1.0  0.36810  0.68570  0.95710  1.0000 -0.2463127837
N   N7        1.0  0.36810  0.81430  0.45710  1.0000 -0.2463127837
N   N8        1.0  0.63190  0.31430  0.04290  1.0000 -0.2463127837
N   N9        1.0  0.64870  0.58610  0.46340  1.0000 0.039416728
N   N10       1.0  0.35130  0.08610  0.03660  1.0000 0.039416728
N   N11       1.0  0.35130  0.41390  0.53660  1.0000 0.039416728
N   N12       1.0  0.64870  0.91390  0.96340  1.0000 0.039416728
O   O1        1.0  0.58180  0.90190  0.24650  1.0000 -0.5181200818
O   O2        1.0  0.41820  0.40190  0.25350  1.0000 -0.5181200818
O   O3        1.0  0.41820  0.09810  0.75350  1.0000 -0.5181200818
O   O4        1.0  0.58180  0.59810  0.74650  1.0000 -0.5181200818
O   O5        1.0  0.56170  0.75040  0.17280  1.0000 -0.4871995614
O   O6        1.0  0.43830  0.25040  0.32720  1.0000 -0.4871995614
O   O7        1.0  0.43830  0.24960  0.82720  1.0000 -0.4871995614
O   O8        1.0  0.56170  0.74960  0.67280  1.0000 -0.4871995614
O   O9        1.0  0.18190  0.75310  0.47280  1.0000 -0.5181200818
O   O10       1.0  0.81810  0.25310  0.02720  1.0000 -0.5181200818
O   O11       1.0  0.81810  0.24690  0.52720  1.0000 -0.5181200818
O   O12       1.0  0.18190  0.74690  0.97280  1.0000 -0.5181200818
O   O13       1.0  0.15300  0.89030  0.53870  1.0000 -0.5688435302
O   O14       1.0  0.84700  0.39030  0.96130  1.0000 -0.5688435302
O   O15       1.0  0.84700  0.10970  0.46130  1.0000 -0.5688435302
O   O16       1.0  0.15300  0.60970  0.03870  1.0000 -0.5688435302
O   O17       1.0  0.62170  0.07470  0.40790  1.0000 -0.5317318604
O   O18       1.0  0.37830  0.57470  0.09210  1.0000 -0.5317318604
O   O19       1.0  0.37830  0.92530  0.59210  1.0000 -0.5317318604
O   O20       1.0  0.62170  0.42530  0.90790  1.0000 -0.5317318604
O   O21       1.0  0.65380  0.91350  0.47730  1.0000 -0.5181200818
O   O22       1.0  0.34620  0.41350  0.02270  1.0000 -0.5181200818
O   O23       1.0  0.34620  0.08650  0.52270  1.0000 -0.5181200818
O   O24       1.0  0.65380  0.58650  0.97730  1.0000 -0.5181200818
O   O25       1.0  0.65370  0.20950  0.82940  1.0000 -0.5466407255
O   O26       1.0  0.34630  0.70950  0.67060  1.0000 -0.5466407255
O   O27       1.0  0.34630  0.79050  0.17060  1.0000 -0.5466407255
O   O28       1.0  0.65370  0.29050  0.32940  1.0000 -0.5466407255
O   O29       1.0  0.63940  0.36110  0.74910  1.0000 -0.5688435302
O   O30       1.0  0.36060  0.86110  0.75090  1.0000 -0.5688435302
O   O31       1.0  0.36060  0.63890  0.25090  1.0000 -0.5688435302
O   O32       1.0  0.63940  0.13890  0.24910  1.0000 -0.5688435302
O   O33       1.0  0.63910  0.40860  0.47910  1.0000 -0.45024115
O   O34       1.0  0.36090  0.90860  0.02090  1.0000 -0.45024115
O   O35       1.0  0.36090  0.59140  0.52090  1.0000 -0.45024115
O   O36       1.0  0.63910  0.09140  0.97910  1.0000 -0.45024115
