# DDEC6 charges by PACMAN v1.1 (https://github.com/mtap-research/PACMAN-charge/)
data_2013[Cu][nbo]3[FSR]6
_chemical_formula_sum              "Cu9 H66 C30 N18 O21"
_cell_length_a       14.6066
_cell_length_b       14.6066
_cell_length_c       14.6066
_cell_angle_alpha    113.289
_cell_angle_beta     113.289
_cell_angle_gamma    113.289

_symmetry_space_group_name_H-M    "P 1"
_symmetry_Int_Tables_number       1

loop_
  _symmetry_equiv_pos_as_xyz
  'x, y, z'

loop_
  _atom_site_type_symbol
  _atom_site_label
  _atom_site_symmetry_multiplicity
  _atom_site_fract_x
  _atom_site_fract_y
  _atom_site_fract_z
  _atom_site_occupancy
  _atom_site_charge
Cu  Cu1       1.0  0.08414  0.67945  0.08414  1.0000 0.7562632158
Cu  Cu2       1.0  0.67945  0.08414  0.08414  1.0000 0.7562632158
Cu  Cu3       1.0  0.08414  0.08414  0.67945  1.0000 0.7562632158
Cu  Cu4       1.0  0.91558  0.39890  0.79744  1.0000 0.7857491766
Cu  Cu5       1.0  0.39890  0.79744  0.91558  1.0000 0.7857491766
Cu  Cu6       1.0  0.79744  0.91558  0.39890  1.0000 0.7857491766
Cu  Cu7       1.0  0.91558  0.79744  0.39890  1.0000 0.7857491766
Cu  Cu8       1.0  0.79744  0.39890  0.91558  1.0000 0.7857491766
Cu  Cu9       1.0  0.39890  0.91558  0.79744  1.0000 0.7857491766
H   H1        1.0  0.86710  0.53720  0.86710  1.0000 0.3318904203
H   H2        1.0  0.53720  0.86710  0.86710  1.0000 0.3318904203
H   H3        1.0  0.86710  0.86710  0.53720  1.0000 0.3318904203
H   H4        1.0  0.08970  0.84560  0.03450  1.0000 0.3161393995
H   H5        1.0  0.84560  0.03450  0.08970  1.0000 0.3161393995
H   H6        1.0  0.03450  0.08970  0.84560  1.0000 0.3161393995
H   H7        1.0  0.08970  0.03450  0.84560  1.0000 0.3161393995
H   H8        1.0  0.03450  0.84560  0.08970  1.0000 0.3161393995
H   H9        1.0  0.84560  0.08970  0.03450  1.0000 0.3161393995
H   H10       1.0  0.78480  0.44980  0.65910  1.0000 0.3318904203
H   H11       1.0  0.44980  0.65910  0.78480  1.0000 0.3318904203
H   H12       1.0  0.65910  0.78480  0.44980  1.0000 0.3318904203
H   H13       1.0  0.78480  0.65910  0.44980  1.0000 0.3318904203
H   H14       1.0  0.65910  0.44980  0.78480  1.0000 0.3318904203
H   H15       1.0  0.44980  0.78480  0.65910  1.0000 0.3318904203
H   H16       1.0  0.75060  0.34370  0.54800  1.0000 0.3455793704
H   H17       1.0  0.34370  0.54800  0.75060  1.0000 0.3455793704
H   H18       1.0  0.54800  0.75060  0.34370  1.0000 0.3455793704
H   H19       1.0  0.75060  0.54800  0.34370  1.0000 0.3455793704
H   H20       1.0  0.54800  0.34370  0.75060  1.0000 0.3455793704
H   H21       1.0  0.34370  0.75060  0.54800  1.0000 0.3455793704
H   H22       1.0  0.33850  0.91970  0.19790  1.0000 0.1530866601
H   H23       1.0  0.91970  0.19790  0.33850  1.0000 0.1530866601
H   H24       1.0  0.19790  0.33850  0.91970  1.0000 0.1530866601
H   H25       1.0  0.33850  0.19790  0.91970  1.0000 0.1530866601
H   H26       1.0  0.19790  0.91970  0.33850  1.0000 0.1530866601
H   H27       1.0  0.91970  0.33850  0.19790  1.0000 0.1530866601
H   H28       1.0  0.44890  0.92170  0.19770  1.0000 0.1616584266
H   H29       1.0  0.92170  0.19770  0.44890  1.0000 0.1616584266
H   H30       1.0  0.19770  0.44890  0.92170  1.0000 0.1616584266
H   H31       1.0  0.44890  0.19770  0.92170  1.0000 0.1616584266
H   H32       1.0  0.19770  0.92170  0.44890  1.0000 0.1616584266
H   H33       1.0  0.92170  0.44890  0.19770  1.0000 0.1616584266
H   H34       1.0  0.37620  0.95640  0.12140  1.0000 0.1616584266
H   H35       1.0  0.95640  0.12140  0.37620  1.0000 0.1616584266
H   H36       1.0  0.12140  0.37620  0.95640  1.0000 0.1616584266
H   H37       1.0  0.37620  0.12140  0.95640  1.0000 0.1616584266
H   H38       1.0  0.12140  0.95640  0.37620  1.0000 0.1616584266
H   H39       1.0  0.95640  0.37620  0.12140  1.0000 0.1616584266
H   H40       1.0  0.17350  0.46560  0.72200  1.0000 0.1407074029
H   H41       1.0  0.46560  0.72200  0.17350  1.0000 0.1407074029
H   H42       1.0  0.72200  0.17350  0.46560  1.0000 0.1407074029
H   H43       1.0  0.17350  0.72200  0.46560  1.0000 0.1407074029
H   H44       1.0  0.72200  0.46560  0.17350  1.0000 0.1407074029
H   H45       1.0  0.46560  0.17350  0.72200  1.0000 0.1407074029
H   H46       1.0  0.02290  0.39800  0.65220  1.0000 0.1530866601
H   H47       1.0  0.39800  0.65220  0.02290  1.0000 0.1530866601
H   H48       1.0  0.65220  0.02290  0.39800  1.0000 0.1530866601
H   H49       1.0  0.02290  0.65220  0.39800  1.0000 0.1530866601
H   H50       1.0  0.65220  0.39800  0.02290  1.0000 0.1530866601
H   H51       1.0  0.39800  0.02290  0.65220  1.0000 0.1530866601
H   H52       1.0  0.11020  0.51420  0.65930  1.0000 0.1616584266
H   H53       1.0  0.51420  0.65930  0.11020  1.0000 0.1616584266
H   H54       1.0  0.65930  0.11020  0.51420  1.0000 0.1686874524
H   H55       1.0  0.11020  0.65930  0.51420  1.0000 0.1686874524
H   H56       1.0  0.65930  0.51420  0.11020  1.0000 0.1686874524
H   H57       1.0  0.51420  0.11020  0.65930  1.0000 0.1616584266
H   H58       1.0  0.47330  0.92950  0.47330  1.0000 0.1686874524
H   H59       1.0  0.92950  0.47330  0.47330  1.0000 0.1686874524
H   H60       1.0  0.47330  0.47330  0.92950  1.0000 0.1686874524
H   H61       1.0  0.48410  0.82160  0.41980  1.0000 0.1530866601
H   H62       1.0  0.82160  0.41980  0.48410  1.0000 0.1530866601
H   H63       1.0  0.41980  0.48410  0.82160  1.0000 0.1530866601
H   H64       1.0  0.48410  0.41980  0.82160  1.0000 0.1530866601
H   H65       1.0  0.41980  0.82160  0.48410  1.0000 0.1530866601
H   H66       1.0  0.82160  0.48410  0.41980  1.0000 0.1530866601
C   C1        1.0  0.36530  0.90160  0.14570  1.0000 -0.553732505
C   C2        1.0  0.90160  0.14570  0.36530  1.0000 -0.553732505
C   C3        1.0  0.14570  0.36530  0.90160  1.0000 -0.553732505
C   C4        1.0  0.36530  0.14570  0.90160  1.0000 -0.553732505
C   C5        1.0  0.14570  0.90160  0.36530  1.0000 -0.553732505
C   C6        1.0  0.90160  0.36530  0.14570  1.0000 -0.553732505
C   C7        1.0  0.26190  0.75970  0.02380  1.0000 0.4065413669
C   C8        1.0  0.75970  0.02380  0.26190  1.0000 0.4065413669
C   C9        1.0  0.02380  0.26190  0.75970  1.0000 0.4065413669
C   C10       1.0  0.26190  0.02380  0.75970  1.0000 0.4065413669
C   C11       1.0  0.02380  0.75970  0.26190  1.0000 0.4065413669
C   C12       1.0  0.75970  0.26190  0.02380  1.0000 0.4065413669
C   C13       1.0  0.15340  0.58000  0.83470  1.0000 0.4040618435
C   C14       1.0  0.58000  0.83470  0.15340  1.0000 0.4040618435
C   C15       1.0  0.83470  0.15340  0.58000  1.0000 0.4040618435
C   C16       1.0  0.15340  0.83470  0.58000  1.0000 0.4040618435
C   C17       1.0  0.83470  0.58000  0.15340  1.0000 0.4040618435
C   C18       1.0  0.58000  0.15340  0.83470  1.0000 0.4040618435
C   C19       1.0  0.11130  0.48090  0.70590  1.0000 -0.553732505
C   C20       1.0  0.48090  0.70590  0.11130  1.0000 -0.553732505
C   C21       1.0  0.70590  0.11130  0.48090  1.0000 -0.553732505
C   C22       1.0  0.11130  0.70590  0.48090  1.0000 -0.553732505
C   C23       1.0  0.70590  0.48090  0.11130  1.0000 -0.553732505
C   C24       1.0  0.48090  0.11130  0.70590  1.0000 -0.553732505
C   C25       1.0  0.43065  0.83870  0.43065  1.0000 -0.5737039055
C   C26       1.0  0.83870  0.43065  0.43065  1.0000 -0.5737039055
C   C27       1.0  0.43065  0.43065  0.83870  1.0000 -0.5737039055
C   C28       1.0  0.29105  0.74590  0.29105  1.0000 0.6170694028
C   C29       1.0  0.74590  0.29105  0.29105  1.0000 0.6170694028
C   C30       1.0  0.29105  0.29105  0.74590  1.0000 0.6170694028
N   N1        1.0  0.15610  0.67170  0.99350  1.0000 -0.2890907482
N   N2        1.0  0.67170  0.99350  0.15610  1.0000 -0.2890907482
N   N3        1.0  0.99350  0.15610  0.67170  1.0000 -0.2890907482
N   N4        1.0  0.15610  0.99350  0.67170  1.0000 -0.2890907482
N   N5        1.0  0.99350  0.67170  0.15610  1.0000 -0.2890907482
N   N6        1.0  0.67170  0.15610  0.99350  1.0000 -0.2890907482
N   N7        1.0  0.08490  0.55410  0.87300  1.0000 -0.2890907482
N   N8        1.0  0.55410  0.87300  0.08490  1.0000 -0.2890907482
N   N9        1.0  0.87300  0.08490  0.55410  1.0000 -0.2890907482
N   N10       1.0  0.08490  0.87300  0.55410  1.0000 -0.2890907482
N   N11       1.0  0.87300  0.55410  0.08490  1.0000 -0.2890907482
N   N12       1.0  0.55410  0.08490  0.87300  1.0000 -0.2890907482
N   N13       1.0  0.26680  0.70860  0.92720  1.0000 -0.4213451748
N   N14       1.0  0.70860  0.92720  0.26680  1.0000 -0.4213451748
N   N15       1.0  0.92720  0.26680  0.70860  1.0000 -0.4213451748
N   N16       1.0  0.26680  0.92720  0.70860  1.0000 -0.4213451748
N   N17       1.0  0.92720  0.70860  0.26680  1.0000 -0.4213451748
N   N18       1.0  0.70860  0.26680  0.92720  1.0000 -0.4213451748
O   O1        1.0  0.91075  0.52430  0.91075  1.0000 -0.754017294
O   O2        1.0  0.52430  0.91075  0.91075  1.0000 -0.754017294
O   O3        1.0  0.91075  0.91075  0.52430  1.0000 -0.754017294
O   O4        1.0  0.75890  0.27630  0.75890  1.0000 -0.7044285541
O   O5        1.0  0.27630  0.75890  0.75890  1.0000 -0.7044285541
O   O6        1.0  0.75890  0.75890  0.27630  1.0000 -0.7044285541
O   O7        1.0  0.25885  0.79380  0.25885  1.0000 -0.4506101514
O   O8        1.0  0.79380  0.25885  0.25885  1.0000 -0.4506101514
O   O9        1.0  0.25885  0.25885  0.79380  1.0000 -0.4506101514
O   O10       1.0  0.23355  0.62990  0.23355  1.0000 -0.5425087815
O   O11       1.0  0.62990  0.23355  0.23355  1.0000 -0.5425087815
O   O12       1.0  0.23355  0.23355  0.62990  1.0000 -0.5425087815
O   O13       1.0  0.09210  0.84080  0.09210  1.0000 -0.6397388583
O   O14       1.0  0.84080  0.09210  0.09210  1.0000 -0.6397388583
O   O15       1.0  0.09210  0.09210  0.84080  1.0000 -0.6397388583
O   O16       1.0  0.81300  0.41270  0.63110  1.0000 -0.6758785452
O   O17       1.0  0.41270  0.63110  0.81300  1.0000 -0.6758785452
O   O18       1.0  0.63110  0.81300  0.41270  1.0000 -0.6758785452
O   O19       1.0  0.81300  0.63110  0.41270  1.0000 -0.6758785452
O   O20       1.0  0.63110  0.41270  0.81300  1.0000 -0.6758785452
O   O21       1.0  0.41270  0.81300  0.63110  1.0000 -0.6758785452
