# DDEC6 charges by PACMAN v1.1 (https://github.com/mtap-research/PACMAN-charge/)
data_2013[Zn][ths]3[FSR]3
_chemical_formula_sum              "Zn12 H96 C144 I24 N48"
_cell_length_a       18.8311
_cell_length_b       18.8311
_cell_length_c       31.197
_cell_angle_alpha    79.7271
_cell_angle_beta     100.273
_cell_angle_gamma    132.966

_symmetry_space_group_name_H-M    "P 1"
_symmetry_Int_Tables_number       1

loop_
  _symmetry_equiv_pos_as_xyz
  'x, y, z'

loop_
  _atom_site_type_symbol
  _atom_site_label
  _atom_site_symmetry_multiplicity
  _atom_site_fract_x
  _atom_site_fract_y
  _atom_site_fract_z
  _atom_site_occupancy
  _atom_site_charge
Zn  Zn1       1.0  0.36537  0.34521  0.48316  1.0000 0.4401617965
Zn  Zn2       1.0  0.65479  0.63463  0.98316  1.0000 0.4401617965
Zn  Zn3       1.0  0.79824  0.95888  0.80078  1.0000 0.4504264912
Zn  Zn4       1.0  0.04112  0.20176  0.30078  1.0000 0.4504264912
Zn  Zn5       1.0  0.29789  0.88703  0.65036  1.0000 0.4752593657
Zn  Zn6       1.0  0.11297  0.70211  0.15036  1.0000 0.47435263
Zn  Zn7       1.0  0.55562  0.62642  0.26424  1.0000 0.4504264912
Zn  Zn8       1.0  0.37358  0.44438  0.76424  1.0000 0.4504264912
Zn  Zn9       1.0  0.01959  0.69409  0.43655  1.0000 0.4401617965
Zn  Zn10      1.0  0.30591  0.98041  0.93655  1.0000 0.4401617965
Zn  Zn11      1.0  0.87250  0.36836  0.61406  1.0000 0.4553461095
Zn  Zn12      1.0  0.63164  0.12750  0.11406  1.0000 0.4553461095
H   H1        1.0  0.25980  0.24440  0.55960  1.0000 0.1083764367
H   H2        1.0  0.75560  0.74020  0.05960  1.0000 0.1083764367
H   H3        1.0  0.21720  0.26580  0.61710  1.0000 0.1397735339
H   H4        1.0  0.73420  0.78280  0.11710  1.0000 0.1397735339
H   H5        1.0  0.34350  0.52870  0.56890  1.0000 0.1397735339
H   H6        1.0  0.47130  0.65650  0.06890  1.0000 0.1397735339
H   H7        1.0  0.38080  0.50700  0.50920  1.0000 0.1083764367
H   H8        1.0  0.49300  0.61920  0.00920  1.0000 0.1083764367
H   H9        1.0  0.87100  0.16660  0.76970  1.0000 0.1083764367
H   H10       1.0  0.83340  0.12900  0.26970  1.0000 0.1083764367
H   H11       1.0  0.00180  0.30400  0.73270  1.0000 0.1397735339
H   H12       1.0  0.69600  0.99820  0.23270  1.0000 0.1397735339
H   H13       1.0  0.05050  0.15250  0.69740  1.0000 0.1397735339
H   H14       1.0  0.84750  0.94950  0.19740  1.0000 0.1397735339
H   H15       1.0  0.93350  0.01970  0.74100  1.0000 0.1083764367
H   H16       1.0  0.98030  0.06650  0.24100  1.0000 0.1083764367
H   H17       1.0  0.24610  0.75050  0.59200  1.0000 0.1083764367
H   H18       1.0  0.24950  0.75390  0.09200  1.0000 0.1083764367
H   H19       1.0  0.21280  0.60940  0.58670  1.0000 0.1397735339
H   H20       1.0  0.39060  0.78720  0.08670  1.0000 0.1397735339
H   H21       1.0  0.18240  0.56260  0.71370  1.0000 0.1397735339
H   H22       1.0  0.43740  0.81760  0.21370  1.0000 0.1397735339
H   H23       1.0  0.23010  0.71050  0.71790  1.0000 0.1003436913
H   H24       1.0  0.28950  0.76990  0.21790  1.0000 0.1003436913
H   H25       1.0  0.08820  0.73320  0.63180  1.0000 0.1083764367
H   H26       1.0  0.26680  0.91180  0.13180  1.0000 0.1083764367
H   H27       1.0  0.96300  0.69560  0.58040  1.0000 0.1320149493
H   H28       1.0  0.30440  0.03700  0.08040  1.0000 0.1320149493
H   H29       1.0  0.16480  0.96160  0.51610  1.0000 0.1248474737
H   H30       1.0  0.03840  0.83520  0.01610  1.0000 0.1248474737
H   H31       1.0  0.27420  0.99600  0.57670  1.0000 0.1083764367
H   H32       1.0  0.00400  0.72580  0.07670  1.0000 0.1083764367
H   H33       1.0  0.50860  0.52840  0.42870  1.0000 0.1003436913
H   H34       1.0  0.47160  0.49140  0.92870  1.0000 0.1003436913
H   H35       1.0  0.66430  0.67370  0.43240  1.0000 0.1397735339
H   H36       1.0  0.32630  0.33570  0.93240  1.0000 0.1397735339
H   H37       1.0  0.71650  0.56610  0.54170  1.0000 0.1397735339
H   H38       1.0  0.43390  0.28350  0.04170  1.0000 0.1397735339
H   H39       1.0  0.55610  0.42190  0.53880  1.0000 0.1083764367
H   H40       1.0  0.57810  0.44390  0.03880  1.0000 0.1083764367
H   H41       1.0  0.12980  0.14660  0.36860  1.0000 0.1083764367
H   H42       1.0  0.85340  0.87020  0.86860  1.0000 0.1083764367
H   H43       1.0  0.10890  0.03490  0.42550  1.0000 0.1320149493
H   H44       1.0  0.96510  0.89110  0.92550  1.0000 0.1320149493
H   H45       1.0  0.81530  0.89450  0.40280  1.0000 0.1320149493
H   H46       1.0  0.10550  0.18470  0.90280  1.0000 0.1320149493
H   H47       1.0  0.85480  0.01700  0.34670  1.0000 0.1003436913
H   H48       1.0  0.98300  0.14520  0.84670  1.0000 0.1003436913
H   H49       1.0  0.41470  0.40370  0.28150  1.0000 0.1083764367
H   H50       1.0  0.59630  0.58530  0.78150  1.0000 0.1083764367
H   H51       1.0  0.39490  0.27930  0.32630  1.0000 0.1320149493
H   H52       1.0  0.72070  0.60510  0.82630  1.0000 0.1320149493
H   H53       1.0  0.63820  0.48980  0.39170  1.0000 0.1320149493
H   H54       1.0  0.51020  0.36180  0.89170  1.0000 0.1320149493
H   H55       1.0  0.64300  0.61120  0.35310  1.0000 0.1003436913
H   H56       1.0  0.38880  0.35700  0.85310  1.0000 0.1003436913
H   H57       1.0  0.21810  0.82030  0.47390  1.0000 0.1003436913
H   H58       1.0  0.17970  0.78190  0.97390  1.0000 0.1003436913
H   H59       1.0  0.36290  0.98750  0.47790  1.0000 0.1397735339
H   H60       1.0  0.01250  0.63710  0.97790  1.0000 0.1397735339
H   H61       1.0  0.23440  0.04700  0.38050  1.0000 0.1397735339
H   H62       1.0  0.95300  0.76560  0.88050  1.0000 0.1397735339
H   H63       1.0  0.09430  0.88290  0.38680  1.0000 0.1083764367
H   H64       1.0  0.11710  0.90570  0.88680  1.0000 0.1083764367
H   H65       1.0  0.83030  0.48090  0.54310  1.0000 0.1083764367
H   H66       1.0  0.51910  0.16970  0.04310  1.0000 0.1083764367
H   H67       1.0  0.72700  0.42760  0.48090  1.0000 0.1397735339
H   H68       1.0  0.57240  0.27300  0.98090  1.0000 0.1397735339
H   H69       1.0  0.55930  0.15490  0.52690  1.0000 0.1320149493
H   H70       1.0  0.84510  0.44070  0.02690  1.0000 0.1320149493
H   H71       1.0  0.67140  0.20300  0.58670  1.0000 0.1003436913
H   H72       1.0  0.79700  0.32860  0.08670  1.0000 0.1003436913
H   H73       1.0  0.80040  0.16980  0.64160  1.0000 0.1083764367
H   H74       1.0  0.83020  0.19960  0.14160  1.0000 0.1083764367
H   H75       1.0  0.69060  0.03060  0.68680  1.0000 0.1397735339
H   H76       1.0  0.96940  0.30940  0.18680  1.0000 0.1397735339
H   H77       1.0  0.63430  0.17550  0.73100  1.0000 0.1397735339
H   H78       1.0  0.82450  0.36570  0.23100  1.0000 0.1397735339
H   H79       1.0  0.75240  0.31260  0.68820  1.0000 0.1083764367
H   H80       1.0  0.68740  0.24760  0.18820  1.0000 0.1083764367
H   H81       1.0  0.33100  0.53280  0.80990  1.0000 0.1083764367
H   H82       1.0  0.46720  0.66900  0.30990  1.0000 0.1083764367
H   H83       1.0  0.35450  0.67090  0.80900  1.0000 0.1397735339
H   H84       1.0  0.32910  0.64550  0.30900  1.0000 0.1397735339
H   H85       1.0  0.50580  0.77720  0.70320  1.0000 0.1397735339
H   H86       1.0  0.22280  0.49420  0.20320  1.0000 0.1397735339
H   H87       1.0  0.48070  0.63690  0.71060  1.0000 0.1083764367
H   H88       1.0  0.36310  0.51930  0.21060  1.0000 0.1083764367
H   H89       1.0  0.44650  0.10290  0.86230  1.0000 0.1083764367
H   H90       1.0  0.89710  0.55350  0.36230  1.0000 0.1083764367
H   H91       1.0  0.50200  0.08740  0.80870  1.0000 0.1320149493
H   H92       1.0  0.91260  0.49800  0.30870  1.0000 0.1320149493
H   H93       1.0  0.36820  0.81660  0.86160  1.0000 0.1397735339
H   H94       1.0  0.18340  0.63180  0.36160  1.0000 0.1397735339
H   H95       1.0  0.29740  0.83480  0.90580  1.0000 0.1003436913
H   H96       1.0  0.16520  0.70260  0.40580  1.0000 0.1003436913
C   C1        1.0  0.27590  0.30410  0.56040  1.0000 0.0877737438
C   C2        1.0  0.69590  0.72410  0.06040  1.0000 0.0877737438
C   C3        1.0  0.24380  0.31380  0.59310  1.0000 -0.1619100729
C   C4        1.0  0.68620  0.75620  0.09310  1.0000 -0.1619100729
C   C5        1.0  0.24860  0.38920  0.59240  1.0000 0.0590520071
C   C6        1.0  0.61080  0.75140  0.09240  1.0000 0.0590520071
C   C7        1.0  0.31620  0.46540  0.56460  1.0000 -0.1821231924
C   C8        1.0  0.53460  0.68380  0.06460  1.0000 -0.1821231924
C   C9        1.0  0.34640  0.45560  0.53140  1.0000 0.0818227301
C   C10       1.0  0.54440  0.65360  0.03140  1.0000 0.0818227301
C   C11       1.0  0.20180  0.39560  0.62220  1.0000 0.3798732639
C   C12       1.0  0.60440  0.79820  0.12220  1.0000 0.3798732639
C   C13       1.0  0.10480  0.32940  0.67810  1.0000 0.3798732639
C   C14       1.0  0.67060  0.89520  0.17810  1.0000 0.3798732639
C   C15       1.0  0.19290  0.48750  0.65480  1.0000 0.3798732639
C   C16       1.0  0.51250  0.80710  0.15480  1.0000 0.3798732639
C   C17       1.0  0.90920  0.16340  0.75530  1.0000 0.0877737438
C   C18       1.0  0.83660  0.09080  0.25530  1.0000 0.0877737438
C   C19       1.0  0.98160  0.24280  0.73030  1.0000 -0.1821231924
C   C20       1.0  0.75720  0.01840  0.23030  1.0000 -0.1821231924
C   C21       1.0  0.02620  0.23860  0.70210  1.0000 0.0704001485
C   C22       1.0  0.76140  0.97380  0.20210  1.0000 0.0704001485
C   C23       1.0  0.01150  0.15590  0.71080  1.0000 -0.1699618805
C   C24       1.0  0.84410  0.98850  0.21080  1.0000 -0.1699618805
C   C25       1.0  0.94390  0.07730  0.73770  1.0000 0.0818227301
C   C26       1.0  0.92270  0.05610  0.23770  1.0000 0.0818227301
C   C27       1.0  0.23970  0.71370  0.61860  1.0000 0.0704001485
C   C28       1.0  0.28630  0.76030  0.11860  1.0000 0.0704001485
C   C29       1.0  0.21920  0.62900  0.61430  1.0000 -0.1429573846
C   C30       1.0  0.37100  0.78080  0.11430  1.0000 -0.1429573846
C   C31       1.0  0.20890  0.57550  0.65310  1.0000 0.0416564329
C   C32       1.0  0.42450  0.79110  0.15310  1.0000 0.0416564329
C   C33       1.0  0.20480  0.60620  0.68810  1.0000 -0.1619100729
C   C34       1.0  0.39380  0.79520  0.18810  1.0000 -0.1619100729
C   C35       1.0  0.22940  0.69320  0.69090  1.0000 0.0818227301
C   C36       1.0  0.30680  0.77060  0.19090  1.0000 0.0818227301
C   C37       1.0  0.10210  0.78050  0.60860  1.0000 0.0877737438
C   C38       1.0  0.21950  0.89790  0.10860  1.0000 0.0877737438
C   C39       1.0  0.02620  0.75880  0.57980  1.0000 -0.1504413569
C   C40       1.0  0.24120  0.97380  0.07980  1.0000 -0.1504413569
C   C41       1.0  0.04710  0.83830  0.54760  1.0000 0.0534014412
C   C42       1.0  0.16170  0.95290  0.04760  1.0000 0.0534014412
C   C43       1.0  0.14480  0.91860  0.54180  1.0000 -0.1504413569
C   C44       1.0  0.08140  0.85520  0.04180  1.0000 -0.1504413569
C   C45       1.0  0.21120  0.93260  0.57530  1.0000 0.0818227301
C   C46       1.0  0.06740  0.78880  0.07530  1.0000 0.0818227301
C   C47       1.0  0.97400  0.82260  0.51340  1.0000 0.3726725939
C   C48       1.0  0.17740  0.02600  0.01340  1.0000 0.3726725939
C   C49       1.0  0.81220  0.73320  0.49310  1.0000 0.3798732639
C   C50       1.0  0.26680  0.18780  0.99310  1.0000 0.3798732639
C   C51       1.0  0.93290  0.87830  0.45320  1.0000 0.3798732639
C   C52       1.0  0.12170  0.06710  0.95320  1.0000 0.3726725939
C   C53       1.0  0.55020  0.53760  0.45380  1.0000 0.0877737438
C   C54       1.0  0.46240  0.44980  0.95380  1.0000 0.0818227301
C   C55       1.0  0.64380  0.62500  0.45580  1.0000 -0.1504413569
C   C56       1.0  0.37500  0.35620  0.95580  1.0000 -0.1504413569
C   C57       1.0  0.70810  0.64410  0.49050  1.0000 0.0590520071
C   C58       1.0  0.35590  0.29190  0.99050  1.0000 0.0534014412
C   C59       1.0  0.67230  0.56150  0.51940  1.0000 -0.1619100729
C   C60       1.0  0.43850  0.32770  0.01940  1.0000 -0.1619100729
C   C61       1.0  0.57730  0.47450  0.51750  1.0000 0.0590520071
C   C62       1.0  0.52550  0.42270  0.01750  1.0000 0.0534014412
C   C63       1.0  0.06530  0.09270  0.37650  1.0000 0.0818227301
C   C64       1.0  0.90730  0.93470  0.87650  1.0000 0.0818227301
C   C65       1.0  0.05690  0.02850  0.40990  1.0000 -0.1699618805
C   C66       1.0  0.97150  0.94310  0.90990  1.0000 -0.1699618805
C   C67       1.0  0.95420  0.95000  0.41700  1.0000 0.0416564329
C   C68       1.0  0.05000  0.04580  0.91700  1.0000 0.0416564329
C   C69       1.0  0.88060  0.94580  0.39540  1.0000 -0.1429573846
C   C70       1.0  0.05420  0.11940  0.89540  1.0000 -0.1429573846
C   C71       1.0  0.90390  0.01870  0.36240  1.0000 0.0877737438
C   C72       1.0  0.98130  0.09610  0.86240  1.0000 0.1003436913
C   C73       1.0  0.45960  0.42140  0.30640  1.0000 0.0877737438
C   C74       1.0  0.57860  0.54040  0.80640  1.0000 0.0877737438
C   C75       1.0  0.44280  0.34520  0.33333  1.0000 -0.1429573846
C   C76       1.0  0.65480  0.55720  0.83333  1.0000 -0.1429573846
C   C77       1.0  0.50190  0.37410  0.37110  1.0000 0.0590520071
C   C78       1.0  0.62590  0.49810  0.87110  1.0000 0.0590520071
C   C79       1.0  0.58460  0.47200  0.37190  1.0000 -0.1699618805
C   C80       1.0  0.52800  0.41540  0.87190  1.0000 -0.1699618805
C   C81       1.0  0.59440  0.54520  0.34630  1.0000 0.0818227301
C   C82       1.0  0.45480  0.40560  0.84630  1.0000 0.0818227301
C   C83       1.0  0.48870  0.29510  0.40240  1.0000 0.3798732639
C   C84       1.0  0.70490  0.51130  0.90240  1.0000 0.3798732639
C   C85       1.0  0.40040  0.14060  0.43120  1.0000 0.3618298343
C   C86       1.0  0.85940  0.59960  0.93120  1.0000 0.3618298343
C   C87       1.0  0.54900  0.25540  0.46010  1.0000 0.3726725939
C   C88       1.0  0.74460  0.45100  0.96010  1.0000 0.3726725939
C   C89       1.0  0.21990  0.86790  0.45600  1.0000 0.1003436913
C   C90       1.0  0.13210  0.78010  0.95600  1.0000 0.1003436913
C   C91       1.0  0.30820  0.96780  0.45850  1.0000 -0.1619100729
C   C92       1.0  0.03220  0.69180  0.95850  1.0000 -0.1619100729
C   C93       1.0  0.30780  0.03460  0.43010  1.0000 0.0877737438
C   C94       1.0  0.96540  0.69220  0.93010  1.0000 0.0818227301
C   C95       1.0  0.23280  0.00360  0.40210  1.0000 -0.1429573846
C   C96       1.0  0.99640  0.76720  0.90210  1.0000 -0.1429573846
C   C97       1.0  0.15080  0.90480  0.40530  1.0000 0.0534014412
C   C98       1.0  0.09520  0.84920  0.90530  1.0000 0.0534014412
C   C99       1.0  0.77800  0.41340  0.53950  1.0000 0.0877737438
C   C100      1.0  0.58660  0.22200  0.03950  1.0000 0.0877737438
C   C101      1.0  0.71130  0.37970  0.50400  1.0000 -0.1821231924
C   C102      1.0  0.62030  0.28870  0.00400  1.0000 -0.1821231924
C   C103      1.0  0.62800  0.28980  0.49730  1.0000 0.0704001485
C   C104      1.0  0.71020  0.37200  0.99730  1.0000 0.0704001485
C   C105      1.0  0.61510  0.22210  0.52920  1.0000 -0.1619100729
C   C106      1.0  0.77790  0.38490  0.02920  1.0000 -0.1619100729
C   C107      1.0  0.68290  0.25110  0.56460  1.0000 0.0877737438
C   C108      1.0  0.74890  0.31710  0.06460  1.0000 0.0877737438
C   C109      1.0  0.76690  0.17090  0.66060  1.0000 0.0704001485
C   C110      1.0  0.82910  0.23310  0.16060  1.0000 0.0704001485
C   C111      1.0  0.69870  0.08650  0.68530  1.0000 -0.1429573846
C   C112      1.0  0.91350  0.30130  0.18530  1.0000 -0.1429573846
C   C113      1.0  0.64260  0.08740  0.70790  1.0000 0.0704001485
C   C114      1.0  0.91260  0.35740  0.20790  1.0000 0.0704001485
C   C115      1.0  0.66620  0.17260  0.71190  1.0000 -0.1429573846
C   C116      1.0  0.82740  0.33380  0.21190  1.0000 -0.1429573846
C   C117      1.0  0.73790  0.25370  0.68730  1.0000 0.0818227301
C   C118      1.0  0.74630  0.26210  0.18730  1.0000 0.0818227301
C   C119      1.0  0.57210  0.00210  0.73920  1.0000 0.3798732639
C   C120      1.0  0.99790  0.42790  0.23920  1.0000 0.3798732639
C   C121      1.0  0.47850  0.84310  0.76090  1.0000 0.3726725939
C   C122      1.0  0.15690  0.52150  0.26090  1.0000 0.3726725939
C   C123      1.0  0.46900  0.93440  0.79140  1.0000 0.3798732639
C   C124      1.0  0.06560  0.53100  0.29140  1.0000 0.3798732639
C   C125      1.0  0.36860  0.58440  0.78820  1.0000 0.0704001485
C   C126      1.0  0.41560  0.63140  0.28820  1.0000 0.0704001485
C   C127      1.0  0.38430  0.66710  0.78910  1.0000 -0.1504413569
C   C128      1.0  0.33290  0.61570  0.28910  1.0000 -0.1504413569
C   C129      1.0  0.44640  0.74520  0.75920  1.0000 0.0704001485
C   C130      1.0  0.25480  0.55360  0.25920  1.0000 0.0704001485
C   C131      1.0  0.47390  0.73030  0.72720  1.0000 -0.1429573846
C   C132      1.0  0.26970  0.52610  0.22720  1.0000 -0.1429573846
C   C133      1.0  0.45380  0.64360  0.73090  1.0000 0.1003436913
C   C134      1.0  0.35640  0.54620  0.23090  1.0000 0.1003436913
C   C135      1.0  0.42330  0.04030  0.86000  1.0000 0.0590520071
C   C136      1.0  0.95970  0.57670  0.36000  1.0000 0.0590520071
C   C137      1.0  0.46060  0.03360  0.82890  1.0000 -0.1429573846
C   C138      1.0  0.96640  0.53940  0.32890  1.0000 -0.1429573846
C   C139      1.0  0.43670  0.94750  0.82770  1.0000 0.0818227301
C   C140      1.0  0.05250  0.56330  0.32770  1.0000 0.0818227301
C   C141      1.0  0.38020  0.87500  0.85880  1.0000 -0.1504413569
C   C142      1.0  0.12500  0.61980  0.35880  1.0000 -0.1504413569
C   C143      1.0  0.34100  0.88840  0.88600  1.0000 0.0590520071
C   C144      1.0  0.11160  0.65900  0.38600  1.0000 0.0590520071
I   I1        1.0  0.29280  0.35810  0.40954  1.0000 -0.4197144786
I   I2        1.0  0.64190  0.70720  0.90954  1.0000 -0.4197144786
I   I3        1.0  0.34536  0.19710  0.51238  1.0000 -0.4297489727
I   I4        1.0  0.80290  0.65464  0.01238  1.0000 -0.4297489727
I   I5        1.0  0.72743  0.81119  0.76467  1.0000 -0.4404836873
I   I6        1.0  0.18881  0.27257  0.26467  1.0000 -0.4404836873
I   I7        1.0  0.70435  0.98609  0.83533  1.0000 -0.4297489727
I   I8        1.0  0.01391  0.29565  0.33533  1.0000 -0.4297489727
I   I9        1.0  0.45817  0.01259  0.61450  1.0000 -0.4484570304
I   I10       1.0  0.98741  0.54183  0.11450  1.0000 -0.4484570304
I   I11       1.0  0.26369  0.89849  0.72329  1.0000 -0.4484570304
I   I12       1.0  0.10151  0.73631  0.22329  1.0000 -0.4484570304
I   I13       1.0  0.68133  0.78569  0.30139  1.0000 -0.4484570304
I   I14       1.0  0.21431  0.31867  0.80139  1.0000 -0.4484570304
I   I15       1.0  0.56874  0.59324  0.19279  1.0000 -0.4297489727
I   I16       1.0  0.40676  0.43126  0.69279  1.0000 -0.4297489727
I   I17       1.0  0.86519  0.66303  0.41244  1.0000 -0.4197144786
I   I18       1.0  0.33697  0.13481  0.91244  1.0000 -0.4197144786
I   I19       1.0  0.03846  0.62074  0.51087  1.0000 -0.4197144786
I   I20       1.0  0.37926  0.96154  0.01087  1.0000 -0.4197144786
I   I21       1.0  0.96374  0.34210  0.58121  1.0000 -0.4197144786
I   I22       1.0  0.65790  0.03626  0.08121  1.0000 -0.4197144786
I   I23       1.0  0.94442  0.51804  0.65157  1.0000 -0.4297489727
I   I24       1.0  0.48196  0.05558  0.15157  1.0000 -0.4297489727
N   N1        1.0  0.32790  0.37430  0.53020  1.0000 -0.1699618805
N   N2        1.0  0.62570  0.67210  0.03020  1.0000 -0.1699618805
N   N3        1.0  0.13860  0.31800  0.64840  1.0000 -0.3823448832
N   N4        1.0  0.68200  0.86140  0.14840  1.0000 -0.3823448832
N   N5        1.0  0.12650  0.41230  0.68130  1.0000 -0.3899010499
N   N6        1.0  0.58770  0.87350  0.18130  1.0000 -0.3899010499
N   N7        1.0  0.22470  0.47910  0.62310  1.0000 -0.3823448832
N   N8        1.0  0.52090  0.77530  0.12310  1.0000 -0.3823448832
N   N9        1.0  0.89360  0.08340  0.75900  1.0000 -0.1821231924
N   N10       1.0  0.91660  0.10640  0.25900  1.0000 -0.1821231924
N   N11       1.0  0.25200  0.75160  0.65490  1.0000 -0.189403517
N   N12       1.0  0.24840  0.74800  0.15490  1.0000 -0.189403517
N   N13       1.0  0.19380  0.86400  0.60580  1.0000 -0.189403517
N   N14       1.0  0.13600  0.80620  0.10580  1.0000 -0.189403517
N   N15       1.0  0.87920  0.73920  0.51950  1.0000 -0.3974624256
N   N16       1.0  0.26080  0.12080  0.01950  1.0000 -0.3974624256
N   N17       1.0  0.83790  0.80250  0.46050  1.0000 -0.3899010499
N   N18       1.0  0.19750  0.16210  0.96050  1.0000 -0.3899010499
N   N19       1.0  0.00090  0.89450  0.48340  1.0000 -0.3899010499
N   N20       1.0  0.10550  0.99910  0.98340  1.0000 -0.3899010499
N   N21       1.0  0.51380  0.46520  0.48420  1.0000 -0.1699618805
N   N22       1.0  0.53480  0.48620  0.98420  1.0000 -0.1699618805
N   N23       1.0  0.99670  0.09010  0.35380  1.0000 -0.1821231924
N   N24       1.0  0.90990  0.00330  0.85380  1.0000 -0.1821231924
N   N25       1.0  0.53130  0.51750  0.31090  1.0000 -0.1821231924
N   N26       1.0  0.48250  0.46870  0.81090  1.0000 -0.1821231924
N   N27       1.0  0.40750  0.20170  0.39850  1.0000 -0.3823448832
N   N28       1.0  0.79830  0.59250  0.89850  1.0000 -0.3823448832
N   N29       1.0  0.47000  0.16020  0.46240  1.0000 -0.3899010499
N   N30       1.0  0.83980  0.53000  0.96240  1.0000 -0.3823448832
N   N31       1.0  0.55780  0.32640  0.43510  1.0000 -0.3748730699
N   N32       1.0  0.67360  0.44220  0.93510  1.0000 -0.3748730699
N   N33       1.0  0.14590  0.83910  0.43230  1.0000 -0.1699618805
N   N34       1.0  0.16090  0.85410  0.93230  1.0000 -0.1699618805
N   N35       1.0  0.76440  0.34460  0.56900  1.0000 -0.1699618805
N   N36       1.0  0.65540  0.23560  0.06900  1.0000 -0.1699618805
N   N37       1.0  0.78790  0.25370  0.66230  1.0000 -0.1821231924
N   N38       1.0  0.74630  0.21210  0.16230  1.0000 -0.1821231924
N   N39       1.0  0.53850  0.91550  0.73220  1.0000 -0.3823448832
N   N40       1.0  0.08450  0.46150  0.23220  1.0000 -0.3823448832
N   N41       1.0  0.43620  0.84620  0.78940  1.0000 -0.3899010499
N   N42       1.0  0.15380  0.56380  0.28940  1.0000 -0.3899010499
N   N43       1.0  0.53500  0.01360  0.76660  1.0000 -0.3823448832
N   N44       1.0  0.98640  0.46500  0.26660  1.0000 -0.3823448832
N   N45       1.0  0.40190  0.57170  0.75930  1.0000 -0.1821231924
N   N46       1.0  0.42830  0.59810  0.25930  1.0000 -0.1821231924
N   N47       1.0  0.35810  0.96890  0.88740  1.0000 -0.189403517
N   N48       1.0  0.03110  0.64190  0.38740  1.0000 -0.189403517
