# DDEC6 charges by PACMAN v1.1 (https://github.com/mtap-research/PACMAN-charge/)
data_2013[Zn][dia]3[FSR]12
_chemical_formula_sum              "Zn8 H192 C176 N32 O48"
_cell_length_a       16.1324
_cell_length_b       17.39
_cell_length_c       22.2913
_cell_angle_alpha    90
_cell_angle_beta     90
_cell_angle_gamma    90

_symmetry_space_group_name_H-M    "P 1"
_symmetry_Int_Tables_number       1

loop_
  _symmetry_equiv_pos_as_xyz
  'x, y, z'

loop_
  _atom_site_type_symbol
  _atom_site_label
  _atom_site_symmetry_multiplicity
  _atom_site_fract_x
  _atom_site_fract_y
  _atom_site_fract_z
  _atom_site_occupancy
  _atom_site_charge
Zn  Zn1       1.0  0.03394  0.44149  0.04337  1.0000 0.7394339554
Zn  Zn2       1.0  0.96606  0.94149  0.95663  1.0000 0.7394339554
Zn  Zn3       1.0  0.96606  0.44149  0.54337  1.0000 0.7394339554
Zn  Zn4       1.0  0.03394  0.94149  0.45663  1.0000 0.7394339554
Zn  Zn5       1.0  0.53647  0.49191  0.19649  1.0000 0.7305134795
Zn  Zn6       1.0  0.46353  0.99191  0.80351  1.0000 0.7305134795
Zn  Zn7       1.0  0.46353  0.49191  0.69649  1.0000 0.7305134795
Zn  Zn8       1.0  0.53647  0.99191  0.30351  1.0000 0.7305134795
H   H1        1.0  0.60550  0.71000  0.44420  1.0000 0.2663209102
H   H2        1.0  0.39450  0.21000  0.55580  1.0000 0.2663209102
H   H3        1.0  0.39450  0.71000  0.94420  1.0000 0.2663209102
H   H4        1.0  0.60550  0.21000  0.05580  1.0000 0.2663209102
H   H5        1.0  0.92780  0.66300  0.66110  1.0000 0.2514273784
H   H6        1.0  0.07220  0.16300  0.33890  1.0000 0.2514273784
H   H7        1.0  0.07220  0.66300  0.16110  1.0000 0.2514273784
H   H8        1.0  0.92780  0.16300  0.83890  1.0000 0.2514273784
H   H9        1.0  0.66080  0.59490  0.25970  1.0000 0.1306214137
H   H10       1.0  0.33920  0.09490  0.74030  1.0000 0.1306214137
H   H11       1.0  0.33920  0.59490  0.75970  1.0000 0.1306214137
H   H12       1.0  0.66080  0.09490  0.24030  1.0000 0.1306214137
H   H13       1.0  0.66280  0.69470  0.32840  1.0000 0.1604619734
H   H14       1.0  0.33720  0.19470  0.67160  1.0000 0.1604619734
H   H15       1.0  0.33720  0.69470  0.82840  1.0000 0.1604619734
H   H16       1.0  0.66280  0.19470  0.17160  1.0000 0.1604619734
H   H17       1.0  0.41290  0.68160  0.33870  1.0000 0.1376371203
H   H18       1.0  0.58710  0.18160  0.66130  1.0000 0.1376371203
H   H19       1.0  0.58710  0.68160  0.83870  1.0000 0.1376371203
H   H20       1.0  0.41290  0.18160  0.16130  1.0000 0.1376371203
H   H21       1.0  0.41760  0.58630  0.26690  1.0000 0.1110688993
H   H22       1.0  0.58240  0.08630  0.73310  1.0000 0.1110688993
H   H23       1.0  0.58240  0.58630  0.76690  1.0000 0.1110688993
H   H24       1.0  0.41760  0.08630  0.23310  1.0000 0.1110688993
H   H25       1.0  0.48380  0.78850  0.38670  1.0000 0.1306214137
H   H26       1.0  0.51620  0.28850  0.61330  1.0000 0.1306214137
H   H27       1.0  0.51620  0.78850  0.88670  1.0000 0.1306214137
H   H28       1.0  0.48380  0.28850  0.11330  1.0000 0.1306214137
H   H29       1.0  0.58010  0.80280  0.37350  1.0000 0.1489867025
H   H30       1.0  0.41990  0.30280  0.62650  1.0000 0.1489867025
H   H31       1.0  0.41990  0.80280  0.87350  1.0000 0.1489867025
H   H32       1.0  0.58010  0.30280  0.12650  1.0000 0.1489867025
H   H33       1.0  0.51190  0.83260  0.48960  1.0000 0.1199535715
H   H34       1.0  0.48810  0.33260  0.51040  1.0000 0.1199535715
H   H35       1.0  0.48810  0.83260  0.98960  1.0000 0.1199535715
H   H36       1.0  0.51190  0.33260  0.01040  1.0000 0.1199535715
H   H37       1.0  0.60900  0.84030  0.47570  1.0000 0.1376371203
H   H38       1.0  0.39100  0.34030  0.52430  1.0000 0.1376371203
H   H39       1.0  0.39100  0.84030  0.97570  1.0000 0.1376371203
H   H40       1.0  0.60900  0.34030  0.02430  1.0000 0.1376371203
H   H41       1.0  0.63960  0.75340  0.55430  1.0000 0.1110688993
H   H42       1.0  0.36040  0.25340  0.44570  1.0000 0.1110688993
H   H43       1.0  0.36040  0.75340  0.05430  1.0000 0.1110688993
H   H44       1.0  0.63960  0.25340  0.94570  1.0000 0.1110688993
H   H45       1.0  0.58800  0.82500  0.58010  1.0000 0.1110688993
H   H46       1.0  0.41200  0.32500  0.41990  1.0000 0.1110688993
H   H47       1.0  0.41200  0.82500  0.08010  1.0000 0.1110688993
H   H48       1.0  0.58800  0.32500  0.91990  1.0000 0.1110688993
H   H49       1.0  0.47770  0.62170  0.55250  1.0000 0.1306214137
H   H50       1.0  0.52230  0.12170  0.44750  1.0000 0.1306214137
H   H51       1.0  0.52230  0.62170  0.05250  1.0000 0.1306214137
H   H52       1.0  0.47770  0.12170  0.94750  1.0000 0.1306214137
H   H53       1.0  0.57430  0.63250  0.53830  1.0000 0.1110688993
H   H54       1.0  0.42570  0.13250  0.46170  1.0000 0.1110688993
H   H55       1.0  0.42570  0.63250  0.03830  1.0000 0.1110688993
H   H56       1.0  0.57430  0.13250  0.96170  1.0000 0.1110688993
H   H57       1.0  0.49930  0.63270  0.44750  1.0000 0.1199535715
H   H58       1.0  0.50070  0.13270  0.55250  1.0000 0.1199535715
H   H59       1.0  0.50070  0.63270  0.94750  1.0000 0.1199535715
H   H60       1.0  0.49930  0.13270  0.05250  1.0000 0.1199535715
H   H61       1.0  0.44260  0.70210  0.47110  1.0000 0.1199535715
H   H62       1.0  0.55740  0.20210  0.52890  1.0000 0.1199535715
H   H63       1.0  0.55740  0.70210  0.97110  1.0000 0.1199535715
H   H64       1.0  0.44260  0.20210  0.02890  1.0000 0.1199535715
H   H65       1.0  0.59550  0.68590  0.64220  1.0000 0.1199535715
H   H66       1.0  0.40450  0.18590  0.35780  1.0000 0.1199535715
H   H67       1.0  0.40450  0.68590  0.14220  1.0000 0.1199535715
H   H68       1.0  0.59550  0.18590  0.85780  1.0000 0.1199535715
H   H69       1.0  0.50050  0.66040  0.64910  1.0000 0.1199535715
H   H70       1.0  0.49950  0.16040  0.35090  1.0000 0.1199535715
H   H71       1.0  0.49950  0.66040  0.14910  1.0000 0.1199535715
H   H72       1.0  0.50050  0.16040  0.85090  1.0000 0.1199535715
H   H73       1.0  0.37370  0.86240  0.74520  1.0000 0.1199535715
H   H74       1.0  0.62630  0.36240  0.25480  1.0000 0.1199535715
H   H75       1.0  0.62630  0.86240  0.24520  1.0000 0.1199535715
H   H76       1.0  0.37370  0.36240  0.75480  1.0000 0.1199535715
H   H77       1.0  0.39730  0.75840  0.68330  1.0000 0.1489867025
H   H78       1.0  0.60270  0.25840  0.31670  1.0000 0.1489867025
H   H79       1.0  0.60270  0.75840  0.18330  1.0000 0.1489867025
H   H80       1.0  0.39730  0.25840  0.81670  1.0000 0.1489867025
H   H81       1.0  0.64260  0.80230  0.69440  1.0000 0.1489867025
H   H82       1.0  0.35740  0.30230  0.30560  1.0000 0.1489867025
H   H83       1.0  0.35740  0.80230  0.19440  1.0000 0.1489867025
H   H84       1.0  0.64260  0.30230  0.80560  1.0000 0.1489867025
H   H85       1.0  0.61260  0.90510  0.75650  1.0000 0.1110688993
H   H86       1.0  0.38740  0.40510  0.24350  1.0000 0.1110688993
H   H87       1.0  0.38740  0.90510  0.25650  1.0000 0.1110688993
H   H88       1.0  0.61260  0.40510  0.74350  1.0000 0.1110688993
H   H89       1.0  0.89010  0.50050  0.97030  1.0000 0.1199535715
H   H90       1.0  0.10990  0.00050  0.02970  1.0000 0.1199535715
H   H91       1.0  0.10990  0.50050  0.47030  1.0000 0.1199535715
H   H92       1.0  0.89010  0.00050  0.52970  1.0000 0.1199535715
H   H93       1.0  0.85990  0.59630  0.90250  1.0000 0.1376371203
H   H94       1.0  0.14010  0.09630  0.09750  1.0000 0.1376371203
H   H95       1.0  0.14010  0.59630  0.40250  1.0000 0.1376371203
H   H96       1.0  0.85990  0.09630  0.59750  1.0000 0.1376371203
H   H97       1.0  0.10130  0.65580  0.90150  1.0000 0.1604619734
H   H98       1.0  0.89870  0.15580  0.09850  1.0000 0.1604619734
H   H99       1.0  0.89870  0.65580  0.40150  1.0000 0.1604619734
H   H100      1.0  0.10130  0.15580  0.59850  1.0000 0.1604619734
H   H101      1.0  0.12590  0.55940  0.96980  1.0000 0.1199535715
H   H102      1.0  0.87410  0.05940  0.03020  1.0000 0.1199535715
H   H103      1.0  0.87410  0.55940  0.46980  1.0000 0.1199535715
H   H104      1.0  0.12590  0.05940  0.53020  1.0000 0.1199535715
H   H105      1.0  0.90040  0.70650  0.84380  1.0000 0.1199535715
H   H106      1.0  0.09960  0.20650  0.15620  1.0000 0.1199535715
H   H107      1.0  0.09960  0.70650  0.34380  1.0000 0.1199535715
H   H108      1.0  0.90040  0.20650  0.65620  1.0000 0.1199535715
H   H109      1.0  0.98580  0.74760  0.86160  1.0000 0.1376371203
H   H110      1.0  0.01420  0.24760  0.13840  1.0000 0.1376371203
H   H111      1.0  0.01420  0.74760  0.36160  1.0000 0.1376371203
H   H112      1.0  0.98580  0.24760  0.63840  1.0000 0.1376371203
H   H113      1.0  0.01680  0.78840  0.76620  1.0000 0.1306214137
H   H114      1.0  0.98320  0.28840  0.23380  1.0000 0.1306214137
H   H115      1.0  0.98320  0.78840  0.26620  1.0000 0.1306214137
H   H116      1.0  0.01680  0.28840  0.73380  1.0000 0.1306214137
H   H117      1.0  0.92940  0.75620  0.74310  1.0000 0.1110688993
H   H118      1.0  0.07060  0.25620  0.25690  1.0000 0.1110688993
H   H119      1.0  0.07060  0.75620  0.24310  1.0000 0.1110688993
H   H120      1.0  0.92940  0.25620  0.75690  1.0000 0.1110688993
H   H121      1.0  0.02260  0.76960  0.66130  1.0000 0.1199535715
H   H122      1.0  0.97740  0.26960  0.33870  1.0000 0.1199535715
H   H123      1.0  0.97740  0.76960  0.16130  1.0000 0.1199535715
H   H124      1.0  0.02260  0.26960  0.83870  1.0000 0.1199535715
H   H125      1.0  0.08640  0.71190  0.69340  1.0000 0.1306214137
H   H126      1.0  0.91360  0.21190  0.30660  1.0000 0.1306214137
H   H127      1.0  0.91360  0.71190  0.19340  1.0000 0.1306214137
H   H128      1.0  0.08640  0.21190  0.80660  1.0000 0.1306214137
H   H129      1.0  0.04530  0.57390  0.70840  1.0000 0.1199535715
H   H130      1.0  0.95470  0.07390  0.29160  1.0000 0.1199535715
H   H131      1.0  0.95470  0.57390  0.20840  1.0000 0.1199535715
H   H132      1.0  0.04530  0.07390  0.79160  1.0000 0.1199535715
H   H133      1.0  0.95540  0.54620  0.68660  1.0000 0.1376371203
H   H134      1.0  0.04460  0.04620  0.31340  1.0000 0.1376371203
H   H135      1.0  0.04460  0.54620  0.18660  1.0000 0.1376371203
H   H136      1.0  0.95540  0.04620  0.81340  1.0000 0.1376371203
H   H137      1.0  0.89190  0.62360  0.75980  1.0000 0.1002766781
H   H138      1.0  0.10810  0.12360  0.24020  1.0000 0.1002766781
H   H139      1.0  0.10810  0.62360  0.25980  1.0000 0.1002766781
H   H140      1.0  0.89190  0.12360  0.74020  1.0000 0.1002766781
H   H141      1.0  0.95620  0.56630  0.79160  1.0000 0.1110688993
H   H142      1.0  0.04380  0.06630  0.20840  1.0000 0.1110688993
H   H143      1.0  0.04380  0.56630  0.29160  1.0000 0.1110688993
H   H144      1.0  0.95620  0.06630  0.70840  1.0000 0.1199535715
H   H145      1.0  0.97380  0.59490  0.58400  1.0000 0.1306214137
H   H146      1.0  0.02620  0.09490  0.41600  1.0000 0.1306214137
H   H147      1.0  0.02620  0.59490  0.08400  1.0000 0.1306214137
H   H148      1.0  0.97380  0.09490  0.91600  1.0000 0.1306214137
H   H149      1.0  0.06750  0.60990  0.60450  1.0000 0.1306214137
H   H150      1.0  0.93250  0.10990  0.39550  1.0000 0.1306214137
H   H151      1.0  0.93250  0.60990  0.10450  1.0000 0.1306214137
H   H152      1.0  0.06750  0.10990  0.89550  1.0000 0.1306214137
H   H153      1.0  0.15070  0.80780  0.48780  1.0000 0.1199535715
H   H154      1.0  0.84930  0.30780  0.51220  1.0000 0.1199535715
H   H155      1.0  0.84930  0.80780  0.98780  1.0000 0.1199535715
H   H156      1.0  0.15070  0.30780  0.01220  1.0000 0.1199535715
H   H157      1.0  0.14280  0.69800  0.54660  1.0000 0.1489867025
H   H158      1.0  0.85720  0.19800  0.45340  1.0000 0.1489867025
H   H159      1.0  0.85720  0.69800  0.04660  1.0000 0.1489867025
H   H160      1.0  0.14280  0.19800  0.95340  1.0000 0.1489867025
H   H161      1.0  0.89360  0.72440  0.55200  1.0000 0.1489867025
H   H162      1.0  0.10640  0.22440  0.44800  1.0000 0.1489867025
H   H163      1.0  0.10640  0.72440  0.05200  1.0000 0.1489867025
H   H164      1.0  0.89360  0.22440  0.94800  1.0000 0.1489867025
H   H165      1.0  0.90820  0.83450  0.49560  1.0000 0.1199535715
H   H166      1.0  0.09180  0.33450  0.50440  1.0000 0.1199535715
H   H167      1.0  0.09180  0.83450  0.99560  1.0000 0.1199535715
H   H168      1.0  0.90820  0.33450  0.00440  1.0000 0.1199535715
H   H169      1.0  0.34350  0.43490  0.04240  1.0000 0.1489867025
H   H170      1.0  0.65650  0.93490  0.95760  1.0000 0.1489867025
H   H171      1.0  0.65650  0.43490  0.54240  1.0000 0.1489867025
H   H172      1.0  0.34350  0.93490  0.45760  1.0000 0.1489867025
H   H173      1.0  0.21850  0.53160  0.17170  1.0000 0.1306214137
H   H174      1.0  0.78150  0.03160  0.82830  1.0000 0.1306214137
H   H175      1.0  0.78150  0.53160  0.67170  1.0000 0.1306214137
H   H176      1.0  0.21850  0.03160  0.32830  1.0000 0.1306214137
H   H177      1.0  0.31000  0.56550  0.16330  1.0000 0.1199535715
H   H178      1.0  0.69000  0.06550  0.83670  1.0000 0.1199535715
H   H179      1.0  0.69000  0.56550  0.66330  1.0000 0.1199535715
H   H180      1.0  0.31000  0.06550  0.33670  1.0000 0.1199535715
H   H181      1.0  0.79280  0.50120  0.08750  1.0000 0.1306214137
H   H182      1.0  0.20720  0.00120  0.91250  1.0000 0.1306214137
H   H183      1.0  0.20720  0.50120  0.58750  1.0000 0.1306214137
H   H184      1.0  0.79280  0.00120  0.41250  1.0000 0.1306214137
H   H185      1.0  0.76850  0.46050  0.24160  1.0000 0.1199535715
H   H186      1.0  0.23150  0.96050  0.75840  1.0000 0.1199535715
H   H187      1.0  0.23150  0.46050  0.74160  1.0000 0.1199535715
H   H188      1.0  0.76850  0.96050  0.25840  1.0000 0.1199535715
H   H189      1.0  0.86560  0.44580  0.24900  1.0000 0.1199535715
H   H190      1.0  0.13440  0.94580  0.75100  1.0000 0.1199535715
H   H191      1.0  0.13440  0.44580  0.74900  1.0000 0.1199535715
H   H192      1.0  0.86560  0.94580  0.25100  1.0000 0.1199535715
C   C1        1.0  0.60980  0.61310  0.27567  1.0000 0.1002766781
C   C2        1.0  0.39020  0.11310  0.72433  1.0000 0.1002766781
C   C3        1.0  0.39020  0.61310  0.77567  1.0000 0.1002766781
C   C4        1.0  0.60980  0.11310  0.22433  1.0000 0.1002766781
C   C5        1.0  0.61150  0.67230  0.31708  1.0000 -0.1977761128
C   C6        1.0  0.38850  0.17230  0.68292  1.0000 -0.1977761128
C   C7        1.0  0.38850  0.67230  0.81708  1.0000 -0.1977761128
C   C8        1.0  0.61150  0.17230  0.18292  1.0000 -0.1977761128
C   C9        1.0  0.53870  0.69860  0.34182  1.0000 0.1376371203
C   C10       1.0  0.46130  0.19860  0.65818  1.0000 0.1376371203
C   C11       1.0  0.46130  0.69860  0.84182  1.0000 0.1376371203
C   C12       1.0  0.53870  0.19860  0.15818  1.0000 0.1376371203
C   C13       1.0  0.46460  0.66510  0.32280  1.0000 -0.2097273348
C   C14       1.0  0.53540  0.16510  0.67720  1.0000 -0.2097273348
C   C15       1.0  0.53540  0.66510  0.82280  1.0000 -0.2097273348
C   C16       1.0  0.46460  0.16510  0.17720  1.0000 -0.2097273348
C   C17       1.0  0.46830  0.60790  0.28055  1.0000 0.0592770781
C   C18       1.0  0.53170  0.10790  0.71945  1.0000 0.0592770781
C   C19       1.0  0.53170  0.60790  0.78055  1.0000 0.0592770781
C   C20       1.0  0.46830  0.10790  0.21945  1.0000 0.0592770781
C   C21       1.0  0.53910  0.76380  0.38622  1.0000 -0.2097273348
C   C22       1.0  0.46090  0.26380  0.61378  1.0000 -0.2097273348
C   C23       1.0  0.46090  0.76380  0.88622  1.0000 -0.2097273348
C   C24       1.0  0.53910  0.26380  0.11378  1.0000 -0.2097273348
C   C25       1.0  0.56540  0.80470  0.49011  1.0000 -0.1379411482
C   C26       1.0  0.43460  0.30470  0.50989  1.0000 -0.1379411482
C   C27       1.0  0.43460  0.80470  0.99011  1.0000 -0.1379411482
C   C28       1.0  0.56540  0.30470  0.00989  1.0000 -0.1379411482
C   C29       1.0  0.58500  0.77940  0.55356  1.0000 -0.1379411482
C   C30       1.0  0.41500  0.27940  0.44644  1.0000 -0.1379411482
C   C31       1.0  0.41500  0.77940  0.05356  1.0000 -0.1379411482
C   C32       1.0  0.58500  0.27940  0.94644  1.0000 -0.1379411482
C   C33       1.0  0.51960  0.65820  0.53705  1.0000 -0.1293501122
C   C34       1.0  0.48040  0.15820  0.46295  1.0000 -0.1293501122
C   C35       1.0  0.48040  0.65820  0.03705  1.0000 -0.1293501122
C   C36       1.0  0.51960  0.15820  0.96295  1.0000 -0.1293501122
C   C37       1.0  0.49890  0.67960  0.47278  1.0000 -0.1496541836
C   C38       1.0  0.50110  0.17960  0.52722  1.0000 -0.1496541836
C   C39       1.0  0.50110  0.67960  0.97278  1.0000 -0.1496541836
C   C40       1.0  0.49890  0.17960  0.02722  1.0000 -0.1496541836
C   C41       1.0  0.53750  0.70370  0.63827  1.0000 -0.1887522284
C   C42       1.0  0.46250  0.20370  0.36173  1.0000 -0.1887522284
C   C43       1.0  0.46250  0.70370  0.13827  1.0000 -0.1887522284
C   C44       1.0  0.53750  0.20370  0.86173  1.0000 -0.1887522284
C   C45       1.0  0.42910  0.85030  0.73426  1.0000 0.1002766781
C   C46       1.0  0.57090  0.35030  0.26574  1.0000 0.1002766781
C   C47       1.0  0.57090  0.85030  0.23426  1.0000 0.1002766781
C   C48       1.0  0.42910  0.35030  0.76574  1.0000 0.1002766781
C   C49       1.0  0.44270  0.78820  0.69718  1.0000 -0.1797497174
C   C50       1.0  0.55730  0.28820  0.30282  1.0000 -0.1797497174
C   C51       1.0  0.55730  0.78820  0.19718  1.0000 -0.1797497174
C   C52       1.0  0.44270  0.28820  0.80282  1.0000 -0.1797497174
C   C53       1.0  0.52270  0.76950  0.68024  1.0000 0.1489867025
C   C54       1.0  0.47730  0.26950  0.31976  1.0000 0.1489867025
C   C55       1.0  0.47730  0.76950  0.18024  1.0000 0.1489867025
C   C56       1.0  0.52270  0.26950  0.81976  1.0000 0.1489867025
C   C57       1.0  0.58660  0.81400  0.70380  1.0000 -0.2097273348
C   C58       1.0  0.41340  0.31400  0.29620  1.0000 -0.2097273348
C   C59       1.0  0.41340  0.81400  0.20380  1.0000 -0.2097273348
C   C60       1.0  0.58660  0.31400  0.79620  1.0000 -0.2097273348
C   C61       1.0  0.56820  0.87530  0.74084  1.0000 0.0592770781
C   C62       1.0  0.43180  0.37530  0.25916  1.0000 0.0592770781
C   C63       1.0  0.43180  0.87530  0.24084  1.0000 0.0592770781
C   C64       1.0  0.56820  0.37530  0.75916  1.0000 0.0592770781
C   C65       1.0  0.93360  0.53260  0.95630  1.0000 0.0694171916
C   C66       1.0  0.06640  0.03260  0.04370  1.0000 0.0694171916
C   C67       1.0  0.06640  0.53260  0.45630  1.0000 0.0694171916
C   C68       1.0  0.93360  0.03260  0.54370  1.0000 0.0694171916
C   C69       1.0  0.91540  0.58950  0.91573  1.0000 -0.2097273348
C   C70       1.0  0.08460  0.08950  0.08427  1.0000 -0.2097273348
C   C71       1.0  0.08460  0.58950  0.41573  1.0000 -0.2097273348
C   C72       1.0  0.91540  0.08950  0.58427  1.0000 -0.2097273348
C   C73       1.0  0.97690  0.63700  0.89407  1.0000 0.1489867025
C   C74       1.0  0.02310  0.13700  0.10593  1.0000 0.1489867025
C   C75       1.0  0.02310  0.63700  0.39407  1.0000 0.1489867025
C   C76       1.0  0.97690  0.13700  0.60593  1.0000 0.1489867025
C   C77       1.0  0.05680  0.62460  0.91518  1.0000 -0.1887522284
C   C78       1.0  0.94320  0.12460  0.08482  1.0000 -0.1887522284
C   C79       1.0  0.94320  0.62460  0.41518  1.0000 -0.1887522284
C   C80       1.0  0.05680  0.12460  0.58482  1.0000 -0.1887522284
C   C81       1.0  0.07090  0.56700  0.95579  1.0000 0.0911110639
C   C82       1.0  0.92910  0.06700  0.04421  1.0000 0.0911110639
C   C83       1.0  0.92910  0.56700  0.45579  1.0000 0.0911110639
C   C84       1.0  0.07090  0.06700  0.54421  1.0000 0.0911110639
C   C85       1.0  0.96080  0.69860  0.84797  1.0000 -0.1887522284
C   C86       1.0  0.03920  0.19860  0.15203  1.0000 -0.1887522284
C   C87       1.0  0.03920  0.69860  0.34797  1.0000 -0.1887522284
C   C88       1.0  0.96080  0.19860  0.65203  1.0000 -0.1887522284
C   C89       1.0  0.98860  0.74320  0.74858  1.0000 -0.1189922076
C   C90       1.0  0.01140  0.24320  0.25142  1.0000 -0.1189922076
C   C91       1.0  0.01140  0.74320  0.24858  1.0000 -0.1189922076
C   C92       1.0  0.98860  0.24320  0.75142  1.0000 -0.1189922076
C   C93       1.0  0.02700  0.72460  0.68833  1.0000 -0.1189922076
C   C94       1.0  0.97300  0.22460  0.31167  1.0000 -0.1189922076
C   C95       1.0  0.97300  0.72460  0.18833  1.0000 -0.1189922076
C   C96       1.0  0.02700  0.22460  0.81167  1.0000 -0.1189922076
C   C97       1.0  0.98680  0.58990  0.70373  1.0000 -0.1293501122
C   C98       1.0  0.01320  0.08990  0.29627  1.0000 -0.1293501122
C   C99       1.0  0.01320  0.58990  0.20373  1.0000 -0.1293501122
C   C100      1.0  0.98680  0.08990  0.79627  1.0000 -0.1293501122
C   C101      1.0  0.95140  0.61080  0.76407  1.0000 -0.1293501122
C   C102      1.0  0.04860  0.11080  0.23593  1.0000 -0.1293501122
C   C103      1.0  0.04860  0.61080  0.26407  1.0000 -0.1293501122
C   C104      1.0  0.95140  0.11080  0.73593  1.0000 -0.1293501122
C   C105      1.0  0.01210  0.63390  0.60079  1.0000 -0.1797497174
C   C106      1.0  0.98790  0.13390  0.39921  1.0000 -0.1797497174
C   C107      1.0  0.98790  0.63390  0.10079  1.0000 -0.1797497174
C   C108      1.0  0.01210  0.13390  0.89921  1.0000 -0.1797497174
C   C109      1.0  0.09830  0.79160  0.50251  1.0000 0.0911110639
C   C110      1.0  0.90170  0.29160  0.49749  1.0000 0.0911110639
C   C111      1.0  0.90170  0.79160  0.00251  1.0000 0.0911110639
C   C112      1.0  0.09830  0.29160  0.99749  1.0000 0.0911110639
C   C113      1.0  0.09400  0.72610  0.53721  1.0000 -0.1887522284
C   C114      1.0  0.90600  0.22610  0.46279  1.0000 -0.1887522284
C   C115      1.0  0.90600  0.72610  0.03721  1.0000 -0.1887522284
C   C116      1.0  0.09400  0.22610  0.96279  1.0000 -0.1887522284
C   C117      1.0  0.01720  0.70190  0.55825  1.0000 0.1489867025
C   C118      1.0  0.98280  0.20190  0.44175  1.0000 0.1489867025
C   C119      1.0  0.98280  0.70190  0.05825  1.0000 0.1489867025
C   C120      1.0  0.01720  0.20190  0.94175  1.0000 0.1489867025
C   C121      1.0  0.94720  0.74180  0.54072  1.0000 -0.1797497174
C   C122      1.0  0.05280  0.24180  0.45928  1.0000 -0.1797497174
C   C123      1.0  0.05280  0.74180  0.04072  1.0000 -0.1797497174
C   C124      1.0  0.94720  0.24180  0.95928  1.0000 -0.1797497174
C   C125      1.0  0.95650  0.80670  0.50689  1.0000 0.0694171916
C   C126      1.0  0.04350  0.30670  0.49311  1.0000 0.0694171916
C   C127      1.0  0.04350  0.80670  0.00689  1.0000 0.0694171916
C   C128      1.0  0.95650  0.30670  0.99311  1.0000 0.0694171916
C   C129      1.0  0.19650  0.47090  0.05851  1.0000 0.5402524732
C   C130      1.0  0.80350  0.97090  0.94149  1.0000 0.5402524732
C   C131      1.0  0.80350  0.47090  0.55851  1.0000 0.5402524732
C   C132      1.0  0.19650  0.97090  0.44149  1.0000 0.5402524732
C   C133      1.0  0.27360  0.49650  0.09293  1.0000 0.0841662622
C   C134      1.0  0.72640  0.99650  0.90707  1.0000 0.0841662622
C   C135      1.0  0.72640  0.49650  0.59293  1.0000 0.0841662622
C   C136      1.0  0.27360  0.99650  0.40707  1.0000 0.0841662622
C   C137      1.0  0.34470  0.46680  0.07698  1.0000 -0.2849563696
C   C138      1.0  0.65530  0.96680  0.92302  1.0000 -0.2849563696
C   C139      1.0  0.65530  0.46680  0.57698  1.0000 -0.2849563696
C   C140      1.0  0.34470  0.96680  0.42302  1.0000 -0.2849563696
C   C141      1.0  0.42810  0.47620  0.10610  1.0000 0.591021534
C   C142      1.0  0.57190  0.97620  0.89390  1.0000 0.591021534
C   C143      1.0  0.57190  0.47620  0.60610  1.0000 0.591021534
C   C144      1.0  0.42810  0.97620  0.39390  1.0000 0.591021534
C   C145      1.0  0.25730  0.55430  0.14222  1.0000 -0.3911869563
C   C146      1.0  0.74270  0.05430  0.85778  1.0000 -0.3911869563
C   C147      1.0  0.74270  0.55430  0.64222  1.0000 -0.3911869563
C   C148      1.0  0.25730  0.05430  0.35778  1.0000 -0.3911869563
C   C149      1.0  0.22150  0.62810  0.11880  1.0000 0.6256923638
C   C150      1.0  0.77850  0.12810  0.88120  1.0000 0.6256923638
C   C151      1.0  0.77850  0.62810  0.61880  1.0000 0.6256923638
C   C152      1.0  0.22150  0.12810  0.38120  1.0000 0.6256923638
C   C153      1.0  0.91280  0.43280  0.13475  1.0000 0.5402524732
C   C154      1.0  0.08720  0.93280  0.86525  1.0000 0.5402524732
C   C155      1.0  0.08720  0.43280  0.63475  1.0000 0.5402524732
C   C156      1.0  0.91280  0.93280  0.36525  1.0000 0.5402524732
C   C157      1.0  0.82910  0.45220  0.16134  1.0000 0.0592770781
C   C158      1.0  0.17090  0.95220  0.83866  1.0000 0.0592770781
C   C159      1.0  0.17090  0.45220  0.66134  1.0000 0.0592770781
C   C160      1.0  0.82910  0.95220  0.33866  1.0000 0.0592770781
C   C161      1.0  0.77540  0.48880  0.12702  1.0000 -0.2849563696
C   C162      1.0  0.22460  0.98880  0.87298  1.0000 -0.2852734961
C   C163      1.0  0.22460  0.48880  0.62702  1.0000 -0.2849563696
C   C164      1.0  0.77540  0.98880  0.37298  1.0000 -0.2849563696
C   C165      1.0  0.68980  0.51260  0.14437  1.0000 0.6125721298
C   C166      1.0  0.31020  0.01260  0.85563  1.0000 0.6125721298
C   C167      1.0  0.31020  0.51260  0.64437  1.0000 0.6125721298
C   C168      1.0  0.68980  0.01260  0.35563  1.0000 0.6125721298
C   C169      1.0  0.81590  0.43050  0.22588  1.0000 -0.3709969484
C   C170      1.0  0.18410  0.93050  0.77412  1.0000 -0.3709969484
C   C171      1.0  0.18410  0.43050  0.72588  1.0000 -0.3709969484
C   C172      1.0  0.81590  0.93050  0.27412  1.0000 -0.3709969484
C   C173      1.0  0.79930  0.34510  0.23738  1.0000 0.6218334697
C   C174      1.0  0.20070  0.84510  0.76262  1.0000 0.6218334697
C   C175      1.0  0.20070  0.34510  0.73738  1.0000 0.6218334697
C   C176      1.0  0.79930  0.84510  0.26262  1.0000 0.6218334697
N   N1        1.0  0.53910  0.58070  0.25734  1.0000 -0.2326058485
N   N2        1.0  0.46090  0.08070  0.74266  1.0000 -0.2326058485
N   N3        1.0  0.46090  0.58070  0.75734  1.0000 -0.2326058485
N   N4        1.0  0.53910  0.08070  0.24266  1.0000 -0.2326058485
N   N5        1.0  0.56040  0.73620  0.44904  1.0000 0.0194679619
N   N6        1.0  0.43960  0.23620  0.55096  1.0000 0.0194679619
N   N7        1.0  0.43960  0.73620  0.94904  1.0000 0.0194679619
N   N8        1.0  0.56040  0.23620  0.05096  1.0000 0.0194679619
N   N9        1.0  0.52150  0.72710  0.57545  1.0000 -0.0725503061
N   N10       1.0  0.47850  0.22710  0.42455  1.0000 -0.0725503061
N   N11       1.0  0.47850  0.72710  0.07545  1.0000 -0.0725503061
N   N12       1.0  0.52150  0.22710  0.92455  1.0000 -0.0725503061
N   N13       1.0  0.49050  0.89470  0.75572  1.0000 -0.2390739297
N   N14       1.0  0.50950  0.39470  0.24428  1.0000 -0.2390739297
N   N15       1.0  0.50950  0.89470  0.25572  1.0000 -0.2390739297
N   N16       1.0  0.49050  0.39470  0.74428  1.0000 -0.2390739297
N   N17       1.0  0.01080  0.52080  0.97684  1.0000 -0.2390739297
N   N18       1.0  0.98920  0.02080  0.02316  1.0000 -0.2390739297
N   N19       1.0  0.98920  0.52080  0.47684  1.0000 -0.2390739297
N   N20       1.0  0.01080  0.02080  0.52316  1.0000 -0.2390739297
N   N21       1.0  0.99610  0.67730  0.78950  1.0000 -0.061917631
N   N22       1.0  0.00390  0.17730  0.21050  1.0000 -0.061917631
N   N23       1.0  0.00390  0.67730  0.28950  1.0000 -0.061917631
N   N24       1.0  0.99610  0.17730  0.71050  1.0000 -0.061917631
N   N25       1.0  0.98200  0.65770  0.66183  1.0000 0.0040472391
N   N26       1.0  0.01800  0.15770  0.33817  1.0000 0.0050937151
N   N27       1.0  0.01800  0.65770  0.16183  1.0000 0.0050937151
N   N28       1.0  0.98200  0.15770  0.83817  1.0000 0.0040472391
N   N29       1.0  0.03090  0.83340  0.48876  1.0000 -0.2390739297
N   N30       1.0  0.96910  0.33340  0.51124  1.0000 -0.2390739297
N   N31       1.0  0.96910  0.83340  0.98876  1.0000 -0.2390739297
N   N32       1.0  0.03090  0.33340  0.01124  1.0000 -0.2390739297
O   O1        1.0  0.12779  0.48121  0.08724  1.0000 -0.5585669675
O   O2        1.0  0.87221  0.98121  0.91276  1.0000 -0.5585669675
O   O3        1.0  0.87221  0.48121  0.58724  1.0000 -0.5585669675
O   O4        1.0  0.12779  0.98121  0.41276  1.0000 -0.5585669675
O   O5        1.0  0.20079  0.44220  0.00861  1.0000 -0.550069255
O   O6        1.0  0.79921  0.94220  0.99139  1.0000 -0.550069255
O   O7        1.0  0.79921  0.44220  0.50861  1.0000 -0.550069255
O   O8        1.0  0.20079  0.94220  0.49139  1.0000 -0.550069255
O   O9        1.0  0.48796  0.44650  0.08136  1.0000 -0.5585669675
O   O10       1.0  0.51204  0.94650  0.91864  1.0000 -0.5585669675
O   O11       1.0  0.51204  0.44650  0.58136  1.0000 -0.5585669675
O   O12       1.0  0.48796  0.94650  0.41864  1.0000 -0.5585669675
O   O13       1.0  0.43233  0.51119  0.15592  1.0000 -0.5585669675
O   O14       1.0  0.56767  0.01119  0.84408  1.0000 -0.550069255
O   O15       1.0  0.56767  0.51119  0.65592  1.0000 -0.5585669675
O   O16       1.0  0.43233  0.01119  0.34408  1.0000 -0.550069255
O   O17       1.0  0.22580  0.64435  0.06496  1.0000 -0.5901240446
O   O18       1.0  0.77420  0.14435  0.93504  1.0000 -0.5901240446
O   O19       1.0  0.77420  0.64435  0.56496  1.0000 -0.5901240446
O   O20       1.0  0.22580  0.14435  0.43504  1.0000 -0.5901240446
O   O21       1.0  0.18650  0.67212  0.15736  1.0000 -0.6373007335
O   O22       1.0  0.81350  0.17212  0.84264  1.0000 -0.6373007335
O   O23       1.0  0.81350  0.67212  0.65736  1.0000 -0.6373007335
O   O24       1.0  0.18650  0.17212  0.34264  1.0000 -0.6373007335
O   O25       1.0  0.92740  0.45724  0.08242  1.0000 -0.5729067513
O   O26       1.0  0.07260  0.95724  0.91758  1.0000 -0.5729067513
O   O27       1.0  0.07260  0.45724  0.58242  1.0000 -0.5729067513
O   O28       1.0  0.92740  0.95724  0.41758  1.0000 -0.5729067513
O   O29       1.0  0.96330  0.39500  0.16470  1.0000 -0.550069255
O   O30       1.0  0.03670  0.89500  0.83530  1.0000 -0.550069255
O   O31       1.0  0.03670  0.39500  0.66470  1.0000 -0.550069255
O   O32       1.0  0.96330  0.89500  0.33530  1.0000 -0.550069255
O   O33       1.0  0.66183  0.57595  0.12689  1.0000 -0.6044718959
O   O34       1.0  0.33817  0.07595  0.87311  1.0000 -0.6044718959
O   O35       1.0  0.33817  0.57595  0.62689  1.0000 -0.6044718959
O   O36       1.0  0.66183  0.07595  0.37311  1.0000 -0.6044718959
O   O37       1.0  0.64925  0.46528  0.17626  1.0000 -0.550069255
O   O38       1.0  0.35075  0.96528  0.82374  1.0000 -0.550069255
O   O39       1.0  0.35075  0.46528  0.67626  1.0000 -0.550069255
O   O40       1.0  0.64925  0.96528  0.32374  1.0000 -0.550069255
O   O41       1.0  0.78180  0.30117  0.19500  1.0000 -0.6266727485
O   O42       1.0  0.21820  0.80117  0.80500  1.0000 -0.6266727485
O   O43       1.0  0.21820  0.30117  0.69500  1.0000 -0.6266727485
O   O44       1.0  0.78180  0.80117  0.30500  1.0000 -0.6266727485
O   O45       1.0  0.80450  0.32364  0.29153  1.0000 -0.6373007335
O   O46       1.0  0.19550  0.82364  0.70847  1.0000 -0.6373007335
O   O47       1.0  0.19550  0.32364  0.79153  1.0000 -0.6373007335
O   O48       1.0  0.80450  0.82364  0.20847  1.0000 -0.6373007335
