# DDEC6 charges by PACMAN v1.1 (https://github.com/mtap-research/PACMAN-charge/)
data_2013[Co][nan]3[FSR]10
_chemical_formula_sum              "Co16 H112 C144 N112 O16"
_cell_length_a       18.2791
_cell_length_b       18.2791
_cell_length_c       17.5839
_cell_angle_alpha    90
_cell_angle_beta     90
_cell_angle_gamma    90

_symmetry_space_group_name_H-M    "P 1"
_symmetry_Int_Tables_number       1

loop_
  _symmetry_equiv_pos_as_xyz
  'x, y, z'

loop_
  _atom_site_type_symbol
  _atom_site_label
  _atom_site_symmetry_multiplicity
  _atom_site_fract_x
  _atom_site_fract_y
  _atom_site_fract_z
  _atom_site_occupancy
  _atom_site_charge
Co  Co1       1.0  0.65928  0.65928  0.00000  1.0000 0.5958675156
Co  Co2       1.0  0.34072  0.34072  0.50000  1.0000 0.5958675156
Co  Co3       1.0  0.15928  0.84072  0.75000  1.0000 0.5958675156
Co  Co4       1.0  0.84072  0.15928  0.25000  1.0000 0.5958675156
Co  Co5       1.0  0.84633  0.56646  0.08471  1.0000 0.6656990955
Co  Co6       1.0  0.15367  0.43354  0.58471  1.0000 0.6649894426
Co  Co7       1.0  0.06646  0.65367  0.83471  1.0000 0.6649894426
Co  Co8       1.0  0.93354  0.34633  0.33471  1.0000 0.6656990955
Co  Co9       1.0  0.34633  0.93354  0.66529  1.0000 0.6649894426
Co  Co10      1.0  0.65367  0.06646  0.16529  1.0000 0.6656990955
Co  Co11      1.0  0.56646  0.84633  0.91529  1.0000 0.6656990955
Co  Co12      1.0  0.43354  0.15367  0.41529  1.0000 0.6649894426
Co  Co13      1.0  0.44319  0.55681  0.25000  1.0000 0.7733850191
Co  Co14      1.0  0.55681  0.44319  0.75000  1.0000 0.7733850191
Co  Co15      1.0  0.05681  0.05681  0.00000  1.0000 0.7733850191
Co  Co16      1.0  0.94319  0.94319  0.50000  1.0000 0.7733850191
H   H1        1.0  0.75750  0.54870  0.24820  1.0000 0.102887234
H   H2        1.0  0.24250  0.45130  0.74820  1.0000 0.102887234
H   H3        1.0  0.04870  0.74250  0.99820  1.0000 0.102887234
H   H4        1.0  0.95130  0.25750  0.49820  1.0000 0.102887234
H   H5        1.0  0.25750  0.95130  0.50180  1.0000 0.102887234
H   H6        1.0  0.74250  0.04870  0.00180  1.0000 0.102887234
H   H7        1.0  0.54870  0.75750  0.75180  1.0000 0.102887234
H   H8        1.0  0.45130  0.24250  0.25180  1.0000 0.102887234
H   H9        1.0  0.33360  0.68770  0.02610  1.0000 0.1317196001
H   H10       1.0  0.66640  0.31230  0.52610  1.0000 0.1317196001
H   H11       1.0  0.18770  0.16640  0.77610  1.0000 0.1317196001
H   H12       1.0  0.81230  0.83360  0.27610  1.0000 0.1317196001
H   H13       1.0  0.83360  0.81230  0.72390  1.0000 0.1317196001
H   H14       1.0  0.16640  0.18770  0.22390  1.0000 0.1317196001
H   H15       1.0  0.68770  0.33360  0.97390  1.0000 0.1317196001
H   H16       1.0  0.31230  0.66640  0.47390  1.0000 0.1317196001
H   H17       1.0  0.21290  0.67680  0.05020  1.0000 0.1214673966
H   H18       1.0  0.78710  0.32320  0.55020  1.0000 0.1214673966
H   H19       1.0  0.17680  0.28710  0.80020  1.0000 0.1214673966
H   H20       1.0  0.82320  0.71290  0.30020  1.0000 0.1214673966
H   H21       1.0  0.71290  0.82320  0.69980  1.0000 0.1214673966
H   H22       1.0  0.28710  0.17680  0.19980  1.0000 0.1214673966
H   H23       1.0  0.67680  0.21290  0.94980  1.0000 0.1214673966
H   H24       1.0  0.32320  0.78710  0.44980  1.0000 0.1214673966
H   H25       1.0  0.17960  0.61570  0.15210  1.0000 0.1401446943
H   H26       1.0  0.82040  0.38430  0.65210  1.0000 0.1401446943
H   H27       1.0  0.11570  0.32040  0.90210  1.0000 0.1401446943
H   H28       1.0  0.88430  0.67960  0.40210  1.0000 0.1401446943
H   H29       1.0  0.67960  0.88430  0.59790  1.0000 0.1401446943
H   H30       1.0  0.32040  0.11570  0.09790  1.0000 0.1401446943
H   H31       1.0  0.61570  0.17960  0.84790  1.0000 0.1401446943
H   H32       1.0  0.38430  0.82040  0.34790  1.0000 0.1401446943
H   H33       1.0  0.26210  0.56300  0.23480  1.0000 0.1088535609
H   H34       1.0  0.73790  0.43700  0.73480  1.0000 0.1088535609
H   H35       1.0  0.06300  0.23790  0.98480  1.0000 0.1088535609
H   H36       1.0  0.93700  0.76210  0.48480  1.0000 0.1088535609
H   H37       1.0  0.76210  0.93700  0.51520  1.0000 0.1088535609
H   H38       1.0  0.23790  0.06300  0.01520  1.0000 0.1088535609
H   H39       1.0  0.56300  0.26210  0.76520  1.0000 0.1088535609
H   H40       1.0  0.43700  0.73790  0.26520  1.0000 0.1088535609
H   H41       1.0  0.76280  0.72600  0.85920  1.0000 0.102887234
H   H42       1.0  0.23720  0.27400  0.35920  1.0000 0.102887234
H   H43       1.0  0.22600  0.73720  0.60920  1.0000 0.102887234
H   H44       1.0  0.77400  0.26280  0.10920  1.0000 0.102887234
H   H45       1.0  0.26280  0.77400  0.89080  1.0000 0.102887234
H   H46       1.0  0.73720  0.22600  0.39080  1.0000 0.102887234
H   H47       1.0  0.72600  0.76280  0.14080  1.0000 0.102887234
H   H48       1.0  0.27400  0.23720  0.64080  1.0000 0.102887234
H   H49       1.0  0.15520  0.47640  0.03130  1.0000 0.1401446943
H   H50       1.0  0.84480  0.52360  0.53130  1.0000 0.1401446943
H   H51       1.0  0.97640  0.34480  0.78130  1.0000 0.1401446943
H   H52       1.0  0.02360  0.65520  0.28130  1.0000 0.1401446943
H   H53       1.0  0.65520  0.02360  0.71870  1.0000 0.1401446943
H   H54       1.0  0.34480  0.97640  0.21870  1.0000 0.1401446943
H   H55       1.0  0.47640  0.15520  0.96870  1.0000 0.1401446943
H   H56       1.0  0.52360  0.84480  0.46870  1.0000 0.1401446943
H   H57       1.0  0.27430  0.46750  0.00190  1.0000 0.1317196001
H   H58       1.0  0.72570  0.53250  0.50190  1.0000 0.1317196001
H   H59       1.0  0.96750  0.22570  0.75190  1.0000 0.1317196001
H   H60       1.0  0.03250  0.77430  0.25190  1.0000 0.1317196001
H   H61       1.0  0.77430  0.03250  0.74810  1.0000 0.1317196001
H   H62       1.0  0.22570  0.96750  0.24810  1.0000 0.1317196001
H   H63       1.0  0.46750  0.27430  0.99810  1.0000 0.1317196001
H   H64       1.0  0.53250  0.72570  0.49810  1.0000 0.1317196001
H   H65       1.0  0.31670  0.53110  0.90280  1.0000 0.1317196001
H   H66       1.0  0.68330  0.46890  0.40280  1.0000 0.1317196001
H   H67       1.0  0.03110  0.18330  0.65280  1.0000 0.1317196001
H   H68       1.0  0.96890  0.81670  0.15280  1.0000 0.1317196001
H   H69       1.0  0.81670  0.96890  0.84720  1.0000 0.1317196001
H   H70       1.0  0.18330  0.03110  0.34720  1.0000 0.1317196001
H   H71       1.0  0.53110  0.31670  0.09720  1.0000 0.1317196001
H   H72       1.0  0.46890  0.68330  0.59720  1.0000 0.1317196001
H   H73       1.0  0.24310  0.61350  0.84020  1.0000 0.102887234
H   H74       1.0  0.75690  0.38650  0.34020  1.0000 0.102887234
H   H75       1.0  0.11350  0.25690  0.59020  1.0000 0.102887234
H   H76       1.0  0.88650  0.74310  0.09020  1.0000 0.102887234
H   H77       1.0  0.74310  0.88650  0.90980  1.0000 0.102887234
H   H78       1.0  0.25690  0.11350  0.40980  1.0000 0.102887234
H   H79       1.0  0.61350  0.24310  0.15980  1.0000 0.102887234
H   H80       1.0  0.38650  0.75690  0.65980  1.0000 0.102887234
H   H81       1.0  0.82050  0.46690  0.98790  1.0000 0.3580486262
H   H82       1.0  0.17950  0.53310  0.48790  1.0000 0.3580486262
H   H83       1.0  0.96690  0.67950  0.73790  1.0000 0.3580486262
H   H84       1.0  0.03310  0.32050  0.23790  1.0000 0.3580486262
H   H85       1.0  0.32050  0.03310  0.76210  1.0000 0.3580486262
H   H86       1.0  0.67950  0.96690  0.26210  1.0000 0.3580486262
H   H87       1.0  0.46690  0.82050  0.01210  1.0000 0.3580486262
H   H88       1.0  0.53310  0.17950  0.51210  1.0000 0.3580486262
H   H89       1.0  0.80540  0.43630  0.05870  1.0000 0.3255831013
H   H90       1.0  0.19460  0.56370  0.55870  1.0000 0.3255831013
H   H91       1.0  0.93630  0.69460  0.80870  1.0000 0.3255831013
H   H92       1.0  0.06370  0.30540  0.30870  1.0000 0.3255831013
H   H93       1.0  0.30540  0.06370  0.69130  1.0000 0.3255831013
H   H94       1.0  0.69460  0.93630  0.19130  1.0000 0.3255831013
H   H95       1.0  0.43630  0.80540  0.94130  1.0000 0.3255831013
H   H96       1.0  0.56370  0.19460  0.44130  1.0000 0.3255831013
H   H97       1.0  0.55110  0.49770  0.32430  1.0000 0.3818357894
H   H98       1.0  0.44890  0.50230  0.82430  1.0000 0.3818357894
H   H99       1.0  0.99770  0.94890  0.07430  1.0000 0.3818357894
H   H100      1.0  0.00230  0.05110  0.57430  1.0000 0.3818357894
H   H101      1.0  0.05110  0.00230  0.42570  1.0000 0.3818357894
H   H102      1.0  0.94890  0.99770  0.92570  1.0000 0.3818357894
H   H103      1.0  0.49770  0.55110  0.67570  1.0000 0.3818357894
H   H104      1.0  0.50230  0.44890  0.17570  1.0000 0.3818357894
H   H105      1.0  0.58030  0.56500  0.28820  1.0000 0.3580486262
H   H106      1.0  0.41970  0.43500  0.78820  1.0000 0.3580486262
H   H107      1.0  0.06500  0.91970  0.03820  1.0000 0.3580486262
H   H108      1.0  0.93500  0.08030  0.53820  1.0000 0.3580486262
H   H109      1.0  0.08030  0.93500  0.46180  1.0000 0.3580486262
H   H110      1.0  0.91970  0.06500  0.96180  1.0000 0.3580486262
H   H111      1.0  0.56500  0.58030  0.71180  1.0000 0.3580486262
H   H112      1.0  0.43500  0.41970  0.21180  1.0000 0.3580486262
C   C1        1.0  0.72670  0.56680  0.21050  1.0000 0.1214673966
C   C2        1.0  0.27330  0.43320  0.71050  1.0000 0.1214673966
C   C3        1.0  0.06680  0.77330  0.96050  1.0000 0.1214673966
C   C4        1.0  0.93320  0.22670  0.46050  1.0000 0.1214673966
C   C5        1.0  0.22670  0.93320  0.53950  1.0000 0.1214673966
C   C6        1.0  0.77330  0.06680  0.03950  1.0000 0.1214673966
C   C7        1.0  0.56680  0.72670  0.78950  1.0000 0.1214673966
C   C8        1.0  0.43320  0.27330  0.28950  1.0000 0.1214673966
C   C9        1.0  0.63340  0.60150  0.15370  1.0000 0.2328461195
C   C10       1.0  0.36660  0.39850  0.65370  1.0000 0.2328461195
C   C11       1.0  0.10150  0.86660  0.90370  1.0000 0.2328461195
C   C12       1.0  0.89850  0.13340  0.40370  1.0000 0.2328461195
C   C13       1.0  0.13340  0.89850  0.59630  1.0000 0.2328461195
C   C14       1.0  0.86660  0.10150  0.09630  1.0000 0.2328461195
C   C15       1.0  0.60150  0.63340  0.84630  1.0000 0.2328461195
C   C16       1.0  0.39850  0.36660  0.34630  1.0000 0.2328461195
C   C17       1.0  0.56120  0.61980  0.12600  1.0000 0.2192231002
C   C18       1.0  0.43880  0.38020  0.62600  1.0000 0.2192231002
C   C19       1.0  0.11980  0.93880  0.87600  1.0000 0.2192231002
C   C20       1.0  0.88020  0.06120  0.37600  1.0000 0.2192231002
C   C21       1.0  0.06120  0.88020  0.62400  1.0000 0.2192231002
C   C22       1.0  0.93880  0.11980  0.12400  1.0000 0.2192231002
C   C23       1.0  0.61980  0.56120  0.87400  1.0000 0.2192231002
C   C24       1.0  0.38020  0.43880  0.37400  1.0000 0.2192231002
C   C25       1.0  0.44940  0.63490  0.10470  1.0000 0.2192231002
C   C26       1.0  0.55060  0.36510  0.60470  1.0000 0.2192231002
C   C27       1.0  0.13490  0.05060  0.85470  1.0000 0.2192231002
C   C28       1.0  0.86510  0.94940  0.35470  1.0000 0.2192231002
C   C29       1.0  0.94940  0.86510  0.64530  1.0000 0.2192231002
C   C30       1.0  0.05060  0.13490  0.14530  1.0000 0.2192231002
C   C31       1.0  0.63490  0.44940  0.89530  1.0000 0.2192231002
C   C32       1.0  0.36510  0.55060  0.39530  1.0000 0.2192231002
C   C33       1.0  0.37070  0.63090  0.11560  1.0000 0.1544834832
C   C34       1.0  0.62930  0.36910  0.61560  1.0000 0.1544834832
C   C35       1.0  0.13090  0.12930  0.86560  1.0000 0.1544834832
C   C36       1.0  0.86910  0.87070  0.36560  1.0000 0.1544834832
C   C37       1.0  0.87070  0.86910  0.63440  1.0000 0.1544834832
C   C38       1.0  0.12930  0.13090  0.13440  1.0000 0.1544834832
C   C39       1.0  0.63090  0.37070  0.88440  1.0000 0.1544834832
C   C40       1.0  0.36910  0.62930  0.38440  1.0000 0.1544834832
C   C41       1.0  0.31840  0.66180  0.06880  1.0000 -0.1933465945
C   C42       1.0  0.68160  0.33820  0.56880  1.0000 -0.1933465945
C   C43       1.0  0.16180  0.18160  0.81880  1.0000 -0.1933465945
C   C44       1.0  0.83820  0.81840  0.31880  1.0000 -0.1933465945
C   C45       1.0  0.81840  0.83820  0.68120  1.0000 -0.1933465945
C   C46       1.0  0.18160  0.16180  0.18120  1.0000 -0.1933465945
C   C47       1.0  0.66180  0.31840  0.93120  1.0000 -0.1933465945
C   C48       1.0  0.33820  0.68160  0.43120  1.0000 -0.1933465945
C   C49       1.0  0.24760  0.65600  0.08230  1.0000 -0.0599341383
C   C50       1.0  0.75240  0.34400  0.58230  1.0000 -0.0599341383
C   C51       1.0  0.15600  0.25240  0.83230  1.0000 -0.0599341383
C   C52       1.0  0.84400  0.74760  0.33230  1.0000 -0.0599341383
C   C53       1.0  0.74760  0.84400  0.66770  1.0000 -0.0599341383
C   C54       1.0  0.25240  0.15600  0.16770  1.0000 -0.0599341383
C   C55       1.0  0.65600  0.24760  0.91770  1.0000 -0.0599341383
C   C56       1.0  0.34400  0.75240  0.41770  1.0000 -0.0599341383
C   C57       1.0  0.22920  0.62050  0.14160  1.0000 -0.1690686038
C   C58       1.0  0.77080  0.37950  0.64160  1.0000 -0.1690686038
C   C59       1.0  0.12050  0.27080  0.89160  1.0000 -0.1690686038
C   C60       1.0  0.87950  0.72920  0.39160  1.0000 -0.1690686038
C   C61       1.0  0.72920  0.87950  0.60840  1.0000 -0.1690686038
C   C62       1.0  0.27080  0.12050  0.10840  1.0000 -0.1690686038
C   C63       1.0  0.62050  0.22920  0.85840  1.0000 -0.1690686038
C   C64       1.0  0.37950  0.77080  0.35840  1.0000 -0.1690686038
C   C65       1.0  0.27890  0.58810  0.19220  1.0000 0.0742813135
C   C66       1.0  0.72110  0.41190  0.69220  1.0000 0.0775286828
C   C67       1.0  0.08810  0.22110  0.94220  1.0000 0.0775286828
C   C68       1.0  0.91190  0.77890  0.44220  1.0000 0.0775286828
C   C69       1.0  0.77890  0.91190  0.55780  1.0000 0.0775286828
C   C70       1.0  0.22110  0.08810  0.05780  1.0000 0.0775286828
C   C71       1.0  0.58810  0.27890  0.80780  1.0000 0.0775286828
C   C72       1.0  0.41190  0.72110  0.30780  1.0000 0.0775286828
C   C73       1.0  0.79060  0.69710  0.89170  1.0000 0.1088535609
C   C74       1.0  0.20940  0.30290  0.39170  1.0000 0.1088535609
C   C75       1.0  0.19710  0.70940  0.64170  1.0000 0.1088535609
C   C76       1.0  0.80290  0.29060  0.14170  1.0000 0.1088535609
C   C77       1.0  0.29060  0.80290  0.85830  1.0000 0.1088535609
C   C78       1.0  0.70940  0.19710  0.35830  1.0000 0.1088535609
C   C79       1.0  0.69710  0.79060  0.10830  1.0000 0.1088535609
C   C80       1.0  0.30290  0.20940  0.60830  1.0000 0.1088535609
C   C81       1.0  0.87800  0.64070  0.94000  1.0000 0.2192231002
C   C82       1.0  0.12200  0.35930  0.44000  1.0000 0.2192231002
C   C83       1.0  0.14070  0.62200  0.69000  1.0000 0.2192231002
C   C84       1.0  0.85930  0.37800  0.19000  1.0000 0.2192231002
C   C85       1.0  0.37800  0.85930  0.81000  1.0000 0.2192231002
C   C86       1.0  0.62200  0.14070  0.31000  1.0000 0.2192231002
C   C87       1.0  0.64070  0.87800  0.06000  1.0000 0.2192231002
C   C88       1.0  0.35930  0.12200  0.56000  1.0000 0.2192231002
C   C89       1.0  0.94580  0.60400  0.95980  1.0000 0.2328461195
C   C90       1.0  0.05420  0.39600  0.45980  1.0000 0.2328461195
C   C91       1.0  0.10400  0.55420  0.70980  1.0000 0.2328461195
C   C92       1.0  0.89600  0.44580  0.20980  1.0000 0.2328461195
C   C93       1.0  0.44580  0.89600  0.79020  1.0000 0.2328461195
C   C94       1.0  0.55420  0.10400  0.29020  1.0000 0.2328461195
C   C95       1.0  0.60400  0.94580  0.04020  1.0000 0.2328461195
C   C96       1.0  0.39600  0.05420  0.54020  1.0000 0.2328461195
C   C97       1.0  0.05080  0.56350  0.97140  1.0000 0.2192231002
C   C98       1.0  0.94920  0.43650  0.47140  1.0000 0.2192231002
C   C99       1.0  0.06350  0.44920  0.72140  1.0000 0.2192231002
C   C100      1.0  0.93650  0.55080  0.22140  1.0000 0.2192231002
C   C101      1.0  0.55080  0.93650  0.77860  1.0000 0.2192231002
C   C102      1.0  0.44920  0.06350  0.27860  1.0000 0.2192231002
C   C103      1.0  0.56350  0.05080  0.02860  1.0000 0.2192231002
C   C104      1.0  0.43650  0.94920  0.52860  1.0000 0.2192231002
C   C105      1.0  0.12820  0.55280  0.95480  1.0000 0.1401446943
C   C106      1.0  0.87180  0.44720  0.45480  1.0000 0.1401446943
C   C107      1.0  0.05280  0.37180  0.70480  1.0000 0.1401446943
C   C108      1.0  0.94720  0.62820  0.20480  1.0000 0.1401446943
C   C109      1.0  0.62820  0.94720  0.79520  1.0000 0.1401446943
C   C110      1.0  0.37180  0.05280  0.29520  1.0000 0.1401446943
C   C111      1.0  0.55280  0.12820  0.04520  1.0000 0.1401446943
C   C112      1.0  0.44720  0.87180  0.54520  1.0000 0.1401446943
C   C113      1.0  0.17410  0.50500  0.99230  1.0000 -0.1933465945
C   C114      1.0  0.82590  0.49500  0.49230  1.0000 -0.1933465945
C   C115      1.0  0.00500  0.32590  0.74230  1.0000 -0.1933465945
C   C116      1.0  0.99500  0.67410  0.24230  1.0000 -0.1933465945
C   C117      1.0  0.67410  0.99500  0.75770  1.0000 -0.1933465945
C   C118      1.0  0.32590  0.00500  0.25770  1.0000 -0.1933465945
C   C119      1.0  0.50500  0.17410  0.00770  1.0000 -0.1933465945
C   C120      1.0  0.49500  0.82590  0.50770  1.0000 -0.1933465945
C   C121      1.0  0.24370  0.49850  0.97460  1.0000 -0.0599341383
C   C122      1.0  0.75630  0.50150  0.47460  1.0000 -0.0599341383
C   C123      1.0  0.99850  0.25630  0.72460  1.0000 -0.0599341383
C   C124      1.0  0.00150  0.74370  0.22460  1.0000 -0.0599341383
C   C125      1.0  0.74370  0.00150  0.77540  1.0000 -0.0599341383
C   C126      1.0  0.25630  0.99850  0.27540  1.0000 -0.0599341383
C   C127      1.0  0.49850  0.24370  0.02540  1.0000 -0.0599341383
C   C128      1.0  0.50150  0.75630  0.52540  1.0000 -0.0599341383
C   C129      1.0  0.26830  0.53660  0.91790  1.0000 -0.1789792404
C   C130      1.0  0.73170  0.46340  0.41790  1.0000 -0.1789792404
C   C131      1.0  0.03660  0.23170  0.66790  1.0000 -0.1789792404
C   C132      1.0  0.96340  0.76830  0.16790  1.0000 -0.1789792404
C   C133      1.0  0.76830  0.96340  0.83210  1.0000 -0.1789792404
C   C134      1.0  0.23170  0.03660  0.33210  1.0000 -0.1789792404
C   C135      1.0  0.53660  0.26830  0.08210  1.0000 -0.1789792404
C   C136      1.0  0.46340  0.73170  0.58210  1.0000 -0.1789792404
C   C137      1.0  0.22350  0.58560  0.87940  1.0000 0.0775286828
C   C138      1.0  0.77650  0.41440  0.37940  1.0000 0.0775286828
C   C139      1.0  0.08560  0.27650  0.62940  1.0000 0.0775286828
C   C140      1.0  0.91440  0.72350  0.12940  1.0000 0.0775286828
C   C141      1.0  0.72350  0.91440  0.87060  1.0000 0.0775286828
C   C142      1.0  0.27650  0.08560  0.37060  1.0000 0.0775286828
C   C143      1.0  0.58560  0.22350  0.12060  1.0000 0.0775286828
C   C144      1.0  0.41440  0.77650  0.62060  1.0000 0.0775286828
N   N1        1.0  0.75130  0.58750  0.14315  1.0000 -0.2013624748
N   N2        1.0  0.24870  0.41250  0.64315  1.0000 -0.2013624748
N   N3        1.0  0.08750  0.74870  0.89315  1.0000 -0.2013624748
N   N4        1.0  0.91250  0.25130  0.39315  1.0000 -0.2013624748
N   N5        1.0  0.25130  0.91250  0.60685  1.0000 -0.2013624748
N   N6        1.0  0.74870  0.08750  0.10685  1.0000 -0.2013624748
N   N7        1.0  0.58750  0.75130  0.85685  1.0000 -0.2013624748
N   N8        1.0  0.41250  0.24870  0.35685  1.0000 -0.2013624748
N   N9        1.0  0.68732  0.61092  0.10533  1.0000 -0.2203644971
N   N10       1.0  0.31268  0.38908  0.60533  1.0000 -0.2203644971
N   N11       1.0  0.11092  0.81268  0.85533  1.0000 -0.2203644971
N   N12       1.0  0.88908  0.18732  0.35533  1.0000 -0.2203644971
N   N13       1.0  0.18732  0.88908  0.64467  1.0000 -0.2203644971
N   N14       1.0  0.81268  0.11092  0.14467  1.0000 -0.2203644971
N   N15       1.0  0.61092  0.68732  0.89467  1.0000 -0.2203644971
N   N16       1.0  0.38908  0.31268  0.39467  1.0000 -0.2203644971
N   N17       1.0  0.65420  0.57370  0.22060  1.0000 -0.3689990705
N   N18       1.0  0.34580  0.42630  0.72060  1.0000 -0.3689990705
N   N19       1.0  0.07370  0.84580  0.97060  1.0000 -0.3689990705
N   N20       1.0  0.92630  0.15420  0.47060  1.0000 -0.3689990705
N   N21       1.0  0.15420  0.92630  0.52940  1.0000 -0.3689990705
N   N22       1.0  0.84580  0.07370  0.02940  1.0000 -0.3689990705
N   N23       1.0  0.57370  0.65420  0.77940  1.0000 -0.3689990705
N   N24       1.0  0.42630  0.34580  0.27940  1.0000 -0.3689990705
N   N25       1.0  0.55640  0.64770  0.05720  1.0000 -0.205911546
N   N26       1.0  0.44360  0.35230  0.55720  1.0000 -0.205911546
N   N27       1.0  0.14770  0.94360  0.80720  1.0000 -0.205911546
N   N28       1.0  0.85230  0.05640  0.30720  1.0000 -0.205911546
N   N29       1.0  0.05640  0.85230  0.69280  1.0000 -0.205911546
N   N30       1.0  0.94360  0.14770  0.19280  1.0000 -0.205911546
N   N31       1.0  0.64770  0.55640  0.94280  1.0000 -0.205911546
N   N32       1.0  0.35230  0.44360  0.44280  1.0000 -0.205911546
N   N33       1.0  0.48310  0.65890  0.04260  1.0000 -0.2465825202
N   N34       1.0  0.51690  0.34110  0.54260  1.0000 -0.2465825202
N   N35       1.0  0.15890  0.01690  0.79260  1.0000 -0.2465825202
N   N36       1.0  0.84110  0.98310  0.29260  1.0000 -0.2465825202
N   N37       1.0  0.98310  0.84110  0.70740  1.0000 -0.2465825202
N   N38       1.0  0.01690  0.15890  0.20740  1.0000 -0.2465825202
N   N39       1.0  0.65890  0.48310  0.95740  1.0000 -0.2465825202
N   N40       1.0  0.34110  0.51690  0.45740  1.0000 -0.2465825202
N   N41       1.0  0.49470  0.61090  0.15910  1.0000 -0.4017871609
N   N42       1.0  0.50530  0.38910  0.65910  1.0000 -0.4017871609
N   N43       1.0  0.11090  0.00530  0.90910  1.0000 -0.4017871609
N   N44       1.0  0.88910  0.99470  0.40910  1.0000 -0.4017871609
N   N45       1.0  0.99470  0.88910  0.59090  1.0000 -0.4017871609
N   N46       1.0  0.00530  0.11090  0.09090  1.0000 -0.4017871609
N   N47       1.0  0.61090  0.49470  0.84090  1.0000 -0.4017871609
N   N48       1.0  0.38910  0.50530  0.34090  1.0000 -0.4017871609
N   N49       1.0  0.35130  0.59360  0.17860  1.0000 -0.2628938844
N   N50       1.0  0.64870  0.40640  0.67860  1.0000 -0.2628938844
N   N51       1.0  0.09360  0.14870  0.92860  1.0000 -0.2628938844
N   N52       1.0  0.90640  0.85130  0.42860  1.0000 -0.2628938844
N   N53       1.0  0.85130  0.90640  0.57140  1.0000 -0.2628938844
N   N54       1.0  0.14870  0.09360  0.07140  1.0000 -0.2628938844
N   N55       1.0  0.59360  0.35130  0.82140  1.0000 -0.2628938844
N   N56       1.0  0.40640  0.64870  0.32140  1.0000 -0.2628938844
N   N57       1.0  0.82180  0.63106  0.98740  1.0000 -0.2401299914
N   N58       1.0  0.17820  0.36894  0.48740  1.0000 -0.2401299914
N   N59       1.0  0.13106  0.67820  0.73740  1.0000 -0.2401299914
N   N60       1.0  0.86894  0.32180  0.23740  1.0000 -0.2401299914
N   N61       1.0  0.32180  0.86894  0.76260  1.0000 -0.2401299914
N   N62       1.0  0.67820  0.13106  0.26260  1.0000 -0.2401299914
N   N63       1.0  0.63106  0.82180  0.01260  1.0000 -0.2401299914
N   N64       1.0  0.36894  0.17820  0.51260  1.0000 -0.2401299914
N   N65       1.0  0.76420  0.66700  0.95530  1.0000 -0.1789792404
N   N66       1.0  0.23580  0.33300  0.45530  1.0000 -0.1789792404
N   N67       1.0  0.16700  0.73580  0.70530  1.0000 -0.1789792404
N   N68       1.0  0.83300  0.26420  0.20530  1.0000 -0.1789792404
N   N69       1.0  0.26420  0.83300  0.79470  1.0000 -0.1789792404
N   N70       1.0  0.73580  0.16700  0.29470  1.0000 -0.1789792404
N   N71       1.0  0.66700  0.76420  0.04470  1.0000 -0.1789792404
N   N72       1.0  0.33300  0.23580  0.54470  1.0000 -0.1789792404
N   N73       1.0  0.86240  0.68110  0.87920  1.0000 -0.3522072053
N   N74       1.0  0.13760  0.31890  0.37920  1.0000 -0.3522072053
N   N75       1.0  0.18110  0.63760  0.62920  1.0000 -0.3522072053
N   N76       1.0  0.81890  0.36240  0.12920  1.0000 -0.3522072053
N   N77       1.0  0.36240  0.81890  0.87080  1.0000 -0.3522072053
N   N78       1.0  0.63760  0.18110  0.37080  1.0000 -0.3522072053
N   N79       1.0  0.68110  0.86240  0.12080  1.0000 -0.3522072053
N   N80       1.0  0.31890  0.13760  0.62080  1.0000 -0.3522072053
N   N81       1.0  0.94570  0.56060  0.02020  1.0000 -0.2292248299
N   N82       1.0  0.05430  0.43940  0.52020  1.0000 -0.2292248299
N   N83       1.0  0.06060  0.55430  0.77020  1.0000 -0.2292248299
N   N84       1.0  0.93940  0.44570  0.27020  1.0000 -0.2292248299
N   N85       1.0  0.44570  0.93940  0.72980  1.0000 -0.2292248299
N   N86       1.0  0.55430  0.06060  0.22980  1.0000 -0.2292248299
N   N87       1.0  0.56060  0.94570  0.97980  1.0000 -0.2292248299
N   N88       1.0  0.43940  0.05430  0.47980  1.0000 -0.2292248299
N   N89       1.0  0.01440  0.53370  0.02910  1.0000 -0.2628938844
N   N90       1.0  0.98560  0.46630  0.52910  1.0000 -0.2628938844
N   N91       1.0  0.03370  0.48560  0.77910  1.0000 -0.2628938844
N   N92       1.0  0.96630  0.51440  0.27910  1.0000 -0.2628938844
N   N93       1.0  0.51440  0.96630  0.72090  1.0000 -0.2628938844
N   N94       1.0  0.48560  0.03370  0.22090  1.0000 -0.2628938844
N   N95       1.0  0.53370  0.01440  0.97090  1.0000 -0.2628938844
N   N96       1.0  0.46630  0.98560  0.47090  1.0000 -0.2628938844
N   N97       1.0  0.01054  0.60814  0.92700  1.0000 -0.3689990705
N   N98       1.0  0.98946  0.39186  0.42700  1.0000 -0.3689990705
N   N99       1.0  0.10814  0.48946  0.67700  1.0000 -0.3689990705
N   N100      1.0  0.89186  0.51054  0.17700  1.0000 -0.3689990705
N   N101      1.0  0.51054  0.89186  0.82300  1.0000 -0.3689990705
N   N102      1.0  0.48946  0.10814  0.32300  1.0000 -0.3689990705
N   N103      1.0  0.60814  0.01054  0.07300  1.0000 -0.3689990705
N   N104      1.0  0.39186  0.98946  0.57300  1.0000 -0.3689990705
N   N105      1.0  0.15510  0.59320  0.89680  1.0000 -0.2465825202
N   N106      1.0  0.84490  0.40680  0.39680  1.0000 -0.2465825202
N   N107      1.0  0.09320  0.34490  0.64680  1.0000 -0.2465825202
N   N108      1.0  0.90680  0.65510  0.14680  1.0000 -0.2465825202
N   N109      1.0  0.65510  0.90680  0.85320  1.0000 -0.2465825202
N   N110      1.0  0.34490  0.09320  0.35320  1.0000 -0.2465825202
N   N111      1.0  0.59320  0.15510  0.10320  1.0000 -0.2465825202
N   N112      1.0  0.40680  0.84490  0.60320  1.0000 -0.2465825202
O   O1        1.0  0.79937  0.47397  0.03060  1.0000 -0.6504750317
O   O2        1.0  0.20063  0.52603  0.53060  1.0000 -0.6504750317
O   O3        1.0  0.97397  0.70063  0.78060  1.0000 -0.6504750317
O   O4        1.0  0.02603  0.29937  0.28060  1.0000 -0.6504750317
O   O5        1.0  0.29937  0.02603  0.71940  1.0000 -0.6504750317
O   O6        1.0  0.70063  0.97397  0.21940  1.0000 -0.6504750317
O   O7        1.0  0.47397  0.79937  0.96940  1.0000 -0.6504750317
O   O8        1.0  0.52603  0.20063  0.46940  1.0000 -0.6504750317
O   O9        1.0  0.53880  0.54630  0.31290  1.0000 -0.7181005096
O   O10       1.0  0.46120  0.45370  0.81290  1.0000 -0.7181005096
O   O11       1.0  0.04630  0.96120  0.06290  1.0000 -0.7181005096
O   O12       1.0  0.95370  0.03880  0.56290  1.0000 -0.7181005096
O   O13       1.0  0.03880  0.95370  0.43710  1.0000 -0.7181005096
O   O14       1.0  0.96120  0.04630  0.93710  1.0000 -0.7181005096
O   O15       1.0  0.54630  0.53880  0.68710  1.0000 -0.7181005096
O   O16       1.0  0.45370  0.46120  0.18710  1.0000 -0.7181005096
