# DDEC6 charges by PACMAN v1.1 (https://github.com/mtap-research/PACMAN-charge/)
data_2013[Cd][nan]3[FSR]7
_chemical_formula_sum              "Cd12 H224 C244 N16 O84"
_cell_length_a       5.819
_cell_length_b       33.079
_cell_length_c       36.68
_cell_angle_alpha    90
_cell_angle_beta     90
_cell_angle_gamma    90

_symmetry_space_group_name_H-M    "P 1"
_symmetry_Int_Tables_number       1

loop_
  _symmetry_equiv_pos_as_xyz
  'x, y, z'

loop_
  _atom_site_type_symbol
  _atom_site_label
  _atom_site_symmetry_multiplicity
  _atom_site_fract_x
  _atom_site_fract_y
  _atom_site_fract_z
  _atom_site_occupancy
  _atom_site_charge
Cd  Cd1       1.0  0.49724  0.32851  0.26360  1.0000 0.8971945392
Cd  Cd2       1.0  0.50276  0.82851  0.73640  1.0000 0.8971945392
Cd  Cd3       1.0  0.00276  0.32851  0.76360  1.0000 0.8971945392
Cd  Cd4       1.0  0.99724  0.82851  0.23640  1.0000 0.8971945392
Cd  Cd5       1.0  0.98934  0.23135  0.26209  1.0000 0.8806463825
Cd  Cd6       1.0  0.01066  0.73135  0.73791  1.0000 0.8806463825
Cd  Cd7       1.0  0.51066  0.23135  0.76209  1.0000 0.8806463825
Cd  Cd8       1.0  0.48934  0.73135  0.23791  1.0000 0.8806463825
Cd  Cd9       1.0  0.06630  0.02831  0.48298  1.0000 0.9750667559
Cd  Cd10      1.0  0.93370  0.52831  0.51702  1.0000 0.9750667559
Cd  Cd11      1.0  0.43370  0.02831  0.98298  1.0000 0.9743404733
Cd  Cd12      1.0  0.56630  0.52831  0.01702  1.0000 0.9750667559
H   H1        1.0  0.12020  0.89310  0.50910  1.0000 0.139325683
H   H2        1.0  0.87980  0.39310  0.49090  1.0000 0.139325683
H   H3        1.0  0.37980  0.89310  0.00910  1.0000 0.139325683
H   H4        1.0  0.62020  0.39310  0.99090  1.0000 0.139325683
H   H5        1.0  0.68650  0.79890  0.48820  1.0000 0.1698990809
H   H6        1.0  0.31350  0.29890  0.51180  1.0000 0.1698990809
H   H7        1.0  0.81350  0.79890  0.98820  1.0000 0.1698990809
H   H8        1.0  0.18650  0.29890  0.01180  1.0000 0.1698990809
H   H9        1.0  0.51750  0.91180  0.45800  1.0000 0.151845358
H   H10       1.0  0.48250  0.41180  0.54200  1.0000 0.151845358
H   H11       1.0  0.98250  0.91180  0.95800  1.0000 0.151845358
H   H12       1.0  0.01750  0.41180  0.04200  1.0000 0.151845358
H   H13       1.0  0.84380  0.84830  0.57430  1.0000 0.1305763432
H   H14       1.0  0.15620  0.34830  0.42570  1.0000 0.1305763432
H   H15       1.0  0.65620  0.84830  0.07430  1.0000 0.1305763432
H   H16       1.0  0.34380  0.34830  0.92570  1.0000 0.1305763432
H   H17       1.0  0.95080  0.85060  0.63520  1.0000 0.1203875071
H   H18       1.0  0.04920  0.35060  0.36480  1.0000 0.1203875071
H   H19       1.0  0.54920  0.85060  0.13520  1.0000 0.1203875071
H   H20       1.0  0.45080  0.35060  0.86480  1.0000 0.1203875071
H   H21       1.0  0.55810  0.80000  0.60990  1.0000 0.1115365339
H   H22       1.0  0.44190  0.30000  0.39010  1.0000 0.1115365339
H   H23       1.0  0.94190  0.80000  0.10990  1.0000 0.1115365339
H   H24       1.0  0.05810  0.30000  0.89010  1.0000 0.1115365339
H   H25       1.0  0.45100  0.79780  0.54900  1.0000 0.1305763432
H   H26       1.0  0.54900  0.29780  0.45100  1.0000 0.1305763432
H   H27       1.0  0.04900  0.79780  0.04900  1.0000 0.1305763432
H   H28       1.0  0.95100  0.29780  0.95100  1.0000 0.1305763432
H   H29       1.0  0.01480  0.81750  0.42650  1.0000 0.1305763432
H   H30       1.0  0.98520  0.31750  0.57350  1.0000 0.1305763432
H   H31       1.0  0.48520  0.81750  0.92650  1.0000 0.1305763432
H   H32       1.0  0.51480  0.31750  0.07350  1.0000 0.1305763432
H   H33       1.0  0.91230  0.81350  0.36550  1.0000 0.1115365339
H   H34       1.0  0.08770  0.31350  0.63450  1.0000 0.1115365339
H   H35       1.0  0.58770  0.81350  0.86550  1.0000 0.1115365339
H   H36       1.0  0.41230  0.31350  0.13450  1.0000 0.1115365339
H   H37       1.0  0.53290  0.85640  0.33700  1.0000 0.1203875071
H   H38       1.0  0.46710  0.35640  0.66300  1.0000 0.1203875071
H   H39       1.0  0.96710  0.85640  0.83700  1.0000 0.1203875071
H   H40       1.0  0.03290  0.35640  0.16300  1.0000 0.1203875071
H   H41       1.0  0.63540  0.86040  0.39800  1.0000 0.1305763432
H   H42       1.0  0.36460  0.36040  0.60200  1.0000 0.1305763432
H   H43       1.0  0.86460  0.86040  0.89800  1.0000 0.1305763432
H   H44       1.0  0.13540  0.36040  0.10200  1.0000 0.1305763432
H   H45       1.0  0.12870  0.16060  0.53280  1.0000 0.151845358
H   H46       1.0  0.87130  0.66060  0.46720  1.0000 0.151845358
H   H47       1.0  0.37130  0.16060  0.03280  1.0000 0.151845358
H   H48       1.0  0.62870  0.66060  0.96720  1.0000 0.151845358
H   H49       1.0  0.69390  0.25420  0.51610  1.0000 0.1632141368
H   H50       1.0  0.30610  0.75420  0.48390  1.0000 0.1632141368
H   H51       1.0  0.80610  0.25420  0.01610  1.0000 0.1632141368
H   H52       1.0  0.19390  0.75420  0.98390  1.0000 0.1632141368
H   H53       1.0  0.52860  0.14330  0.48110  1.0000 0.139325683
H   H54       1.0  0.47140  0.64330  0.51890  1.0000 0.139325683
H   H55       1.0  0.97140  0.14330  0.98110  1.0000 0.139325683
H   H56       1.0  0.02860  0.64330  0.01890  1.0000 0.139325683
H   H57       1.0  0.85820  0.20570  0.59950  1.0000 0.1305763432
H   H58       1.0  0.14180  0.70570  0.40050  1.0000 0.1305763432
H   H59       1.0  0.64180  0.20570  0.09950  1.0000 0.1305763432
H   H60       1.0  0.35820  0.70570  0.90050  1.0000 0.1305763432
H   H61       1.0  0.95560  0.20270  0.66140  1.0000 0.1305763432
H   H62       1.0  0.04440  0.70270  0.33860  1.0000 0.1305763432
H   H63       1.0  0.54440  0.20270  0.16140  1.0000 0.1305763432
H   H64       1.0  0.45560  0.70270  0.83860  1.0000 0.1305763432
H   H65       1.0  0.55640  0.25680  0.63510  1.0000 0.1203875071
H   H66       1.0  0.44360  0.75680  0.36490  1.0000 0.1203875071
H   H67       1.0  0.94360  0.25680  0.13510  1.0000 0.1203875071
H   H68       1.0  0.05640  0.75680  0.86490  1.0000 0.1203875071
H   H69       1.0  0.46340  0.25430  0.57480  1.0000 0.1305763432
H   H70       1.0  0.53660  0.75430  0.42520  1.0000 0.1305763432
H   H71       1.0  0.03660  0.25430  0.07480  1.0000 0.1305763432
H   H72       1.0  0.96340  0.75430  0.92520  1.0000 0.1305763432
H   H73       1.0  0.64650  0.19430  0.42230  1.0000 0.1305763432
H   H74       1.0  0.35350  0.69430  0.57770  1.0000 0.1305763432
H   H75       1.0  0.85350  0.19430  0.92230  1.0000 0.1305763432
H   H76       1.0  0.14650  0.69430  0.07770  1.0000 0.1305763432
H   H77       1.0  0.54050  0.19890  0.36150  1.0000 0.1203875071
H   H78       1.0  0.45950  0.69890  0.63850  1.0000 0.1203875071
H   H79       1.0  0.95950  0.19890  0.86150  1.0000 0.1203875071
H   H80       1.0  0.04050  0.69890  0.13850  1.0000 0.1203875071
H   H81       1.0  0.92440  0.24280  0.39130  1.0000 0.1115365339
H   H82       1.0  0.07560  0.74280  0.60870  1.0000 0.1115365339
H   H83       1.0  0.57560  0.24280  0.89130  1.0000 0.1115365339
H   H84       1.0  0.42440  0.74280  0.10870  1.0000 0.1115365339
H   H85       1.0  0.03040  0.23810  0.45210  1.0000 0.1305763432
H   H86       1.0  0.96960  0.73810  0.54790  1.0000 0.1305763432
H   H87       1.0  0.46960  0.23810  0.95210  1.0000 0.1305763432
H   H88       1.0  0.53040  0.73810  0.04790  1.0000 0.1305763432
H   H89       1.0  0.39750  0.97980  0.52700  1.0000 0.1002139694
H   H90       1.0  0.60250  0.47980  0.47300  1.0000 0.1002139694
H   H91       1.0  0.10250  0.97980  0.02700  1.0000 0.1002139694
H   H92       1.0  0.89750  0.47980  0.97300  1.0000 0.1002139694
H   H93       1.0  0.58080  0.91770  0.55570  1.0000 0.1305763432
H   H94       1.0  0.41920  0.41770  0.44430  1.0000 0.1305763432
H   H95       1.0  0.91920  0.91770  0.05570  1.0000 0.1305763432
H   H96       1.0  0.08080  0.41770  0.94430  1.0000 0.1305763432
H   H97       1.0  0.44080  0.89830  0.58780  1.0000 0.1305763432
H   H98       1.0  0.55920  0.39830  0.41220  1.0000 0.1305763432
H   H99       1.0  0.05920  0.89830  0.08780  1.0000 0.1305763432
H   H100      1.0  0.94080  0.39830  0.91220  1.0000 0.1305763432
H   H101      1.0  0.63130  0.93050  0.59610  1.0000 0.1305763432
H   H102      1.0  0.36870  0.43050  0.40390  1.0000 0.1305763432
H   H103      1.0  0.86870  0.93050  0.09610  1.0000 0.1305763432
H   H104      1.0  0.13130  0.43050  0.90390  1.0000 0.1305763432
H   H105      1.0  0.24810  0.96390  0.62900  1.0000 0.1115365339
H   H106      1.0  0.75190  0.46390  0.37100  1.0000 0.1115365339
H   H107      1.0  0.25190  0.96390  0.12900  1.0000 0.1115365339
H   H108      1.0  0.74810  0.46390  0.87100  1.0000 0.1115365339
H   H109      1.0  0.09240  0.93220  0.60890  1.0000 0.1203875071
H   H110      1.0  0.90760  0.43220  0.39110  1.0000 0.1203875071
H   H111      1.0  0.40760  0.93220  0.10890  1.0000 0.1203875071
H   H112      1.0  0.59240  0.43220  0.89110  1.0000 0.1203875071
H   H113      1.0  0.05650  0.97850  0.60200  1.0000 0.139325683
H   H114      1.0  0.94350  0.47850  0.39800  1.0000 0.139325683
H   H115      1.0  0.44350  0.97850  0.10200  1.0000 0.139325683
H   H116      1.0  0.55650  0.47850  0.89800  1.0000 0.139325683
H   H117      1.0  0.19190  0.08070  0.41500  1.0000 0.0940476032
H   H118      1.0  0.80810  0.58070  0.58500  1.0000 0.0940476032
H   H119      1.0  0.30810  0.08070  0.91500  1.0000 0.0940476032
H   H120      1.0  0.69190  0.58070  0.08500  1.0000 0.0940476032
H   H121      1.0  0.64160  0.06420  0.36320  1.0000 0.1305763432
H   H122      1.0  0.35840  0.56420  0.63680  1.0000 0.1305763432
H   H123      1.0  0.85840  0.06420  0.86320  1.0000 0.1305763432
H   H124      1.0  0.14160  0.56420  0.13680  1.0000 0.1305763432
H   H125      1.0  0.61490  0.11110  0.36690  1.0000 0.1203875071
H   H126      1.0  0.38510  0.61110  0.63310  1.0000 0.1203875071
H   H127      1.0  0.88510  0.11110  0.86690  1.0000 0.1203875071
H   H128      1.0  0.11490  0.61110  0.13310  1.0000 0.1203875071
H   H129      1.0  0.62130  0.08390  0.40190  1.0000 0.1305763432
H   H130      1.0  0.37870  0.58390  0.59810  1.0000 0.1305763432
H   H131      1.0  0.87870  0.08390  0.90190  1.0000 0.1305763432
H   H132      1.0  0.12130  0.58390  0.09810  1.0000 0.139325683
H   H133      1.0  0.12690  0.13910  0.36270  1.0000 0.1305763432
H   H134      1.0  0.87310  0.63910  0.63730  1.0000 0.1305763432
H   H135      1.0  0.37310  0.13910  0.86270  1.0000 0.1305763432
H   H136      1.0  0.62690  0.63910  0.13730  1.0000 0.1305763432
H   H137      1.0  0.96420  0.12310  0.33180  1.0000 0.1305763432
H   H138      1.0  0.03580  0.62310  0.66820  1.0000 0.1305763432
H   H139      1.0  0.53580  0.12310  0.83180  1.0000 0.1305763432
H   H140      1.0  0.46420  0.62310  0.16820  1.0000 0.1305763432
H   H141      1.0  0.18690  0.09900  0.34200  1.0000 0.1203875071
H   H142      1.0  0.81310  0.59900  0.65800  1.0000 0.1203875071
H   H143      1.0  0.31310  0.09900  0.84200  1.0000 0.1203875071
H   H144      1.0  0.68690  0.59900  0.15800  1.0000 0.1203875071
H   H145      1.0  0.12000  0.38270  0.22980  1.0000 0.1115365339
H   H146      1.0  0.88000  0.88270  0.77020  1.0000 0.1115365339
H   H147      1.0  0.38000  0.38270  0.72980  1.0000 0.1115365339
H   H148      1.0  0.62000  0.88270  0.27020  1.0000 0.1115365339
H   H149      1.0  0.91180  0.44440  0.23770  1.0000 0.139325683
H   H150      1.0  0.08820  0.94440  0.76230  1.0000 0.139325683
H   H151      1.0  0.58820  0.44440  0.73770  1.0000 0.139325683
H   H152      1.0  0.41180  0.94440  0.26230  1.0000 0.139325683
H   H153      1.0  0.24910  0.46390  0.32680  1.0000 0.139325683
H   H154      1.0  0.75090  0.96390  0.67320  1.0000 0.139325683
H   H155      1.0  0.25090  0.46390  0.82680  1.0000 0.139325683
H   H156      1.0  0.74910  0.96390  0.17320  1.0000 0.139325683
H   H157      1.0  0.48830  0.41160  0.31420  1.0000 0.1115365339
H   H158      1.0  0.51170  0.91160  0.68580  1.0000 0.1115365339
H   H159      1.0  0.01170  0.41160  0.81420  1.0000 0.1115365339
H   H160      1.0  0.98830  0.91160  0.18580  1.0000 0.1115365339
H   H161      1.0  0.77960  0.49550  0.27000  1.0000 0.1115365339
H   H162      1.0  0.22040  0.99550  0.73000  1.0000 0.1115365339
H   H163      1.0  0.72040  0.49550  0.77000  1.0000 0.1115365339
H   H164      1.0  0.27960  0.99550  0.23000  1.0000 0.1115365339
H   H165      1.0  0.82190  0.49250  0.31220  1.0000 0.1115365339
H   H166      1.0  0.17810  0.99250  0.68780  1.0000 0.1115365339
H   H167      1.0  0.67810  0.49250  0.81220  1.0000 0.1115365339
H   H168      1.0  0.32190  0.99250  0.18780  1.0000 0.1115365339
H   H169      1.0  0.14130  0.53490  0.30650  1.0000 0.1002139694
H   H170      1.0  0.85870  0.03490  0.69350  1.0000 0.1002139694
H   H171      1.0  0.35870  0.53490  0.80650  1.0000 0.1002139694
H   H172      1.0  0.64130  0.03490  0.19350  1.0000 0.1002139694
H   H173      1.0  0.91670  0.55660  0.29320  1.0000 0.1002139694
H   H174      1.0  0.08330  0.05660  0.70680  1.0000 0.1002139694
H   H175      1.0  0.58330  0.55660  0.79320  1.0000 0.1002139694
H   H176      1.0  0.41670  0.05660  0.20680  1.0000 0.1002139694
H   H177      1.0  0.02220  0.53590  0.23220  1.0000 0.1115365339
H   H178      1.0  0.97780  0.03590  0.76780  1.0000 0.1115365339
H   H179      1.0  0.47780  0.53590  0.73220  1.0000 0.1115365339
H   H180      1.0  0.52220  0.03590  0.26780  1.0000 0.1115365339
H   H181      1.0  0.26250  0.52410  0.24830  1.0000 0.1203875071
H   H182      1.0  0.73750  0.02410  0.75170  1.0000 0.1203875071
H   H183      1.0  0.23750  0.52410  0.74830  1.0000 0.1203875071
H   H184      1.0  0.76250  0.02410  0.25170  1.0000 0.1203875071
H   H185      1.0  0.10140  0.66980  0.20830  1.0000 0.1115365339
H   H186      1.0  0.89860  0.16980  0.79170  1.0000 0.1115365339
H   H187      1.0  0.39860  0.66980  0.70830  1.0000 0.1115365339
H   H188      1.0  0.60140  0.16980  0.29170  1.0000 0.1115365339
H   H189      1.0  0.94490  0.60490  0.22030  1.0000 0.1305763432
H   H190      1.0  0.05510  0.10490  0.77970  1.0000 0.1305763432
H   H191      1.0  0.55510  0.60490  0.72030  1.0000 0.1305763432
H   H192      1.0  0.44490  0.10490  0.27970  1.0000 0.1305763432
H   H193      1.0  0.49940  0.57830  0.27850  1.0000 0.1305763432
H   H194      1.0  0.50060  0.07830  0.72150  1.0000 0.1305763432
H   H195      1.0  0.00060  0.57830  0.77850  1.0000 0.1305763432
H   H196      1.0  0.99940  0.07830  0.22150  1.0000 0.1305763432
H   H197      1.0  0.62970  0.64680  0.26840  1.0000 0.1115365339
H   H198      1.0  0.37030  0.14680  0.73160  1.0000 0.1115365339
H   H199      1.0  0.87030  0.64680  0.76840  1.0000 0.1115365339
H   H200      1.0  0.12970  0.14680  0.23160  1.0000 0.1115365339
H   H201      1.0  0.48730  0.06190  0.46740  1.0000 0.4002697812
H   H202      1.0  0.51270  0.56190  0.53260  1.0000 0.4002697812
H   H203      1.0  0.01270  0.06190  0.96740  1.0000 0.4002697812
H   H204      1.0  0.98730  0.56190  0.03260  1.0000 0.4002697812
H   H205      1.0  0.52990  0.01580  0.47470  1.0000 0.4002697812
H   H206      1.0  0.47010  0.51580  0.52530  1.0000 0.4002697812
H   H207      1.0  0.97010  0.01580  0.97470  1.0000 0.4002697812
H   H208      1.0  0.02990  0.51580  0.02530  1.0000 0.4002697812
H   H209      1.0  0.54230  0.24490  0.28090  1.0000 0.3622920709
H   H210      1.0  0.45770  0.74490  0.71910  1.0000 0.3622920709
H   H211      1.0  0.95770  0.24490  0.78090  1.0000 0.3622920709
H   H212      1.0  0.04230  0.74490  0.21910  1.0000 0.3622920709
H   H213      1.0  0.54110  0.24590  0.24300  1.0000 0.3702272
H   H214      1.0  0.45890  0.74590  0.75700  1.0000 0.3702272
H   H215      1.0  0.95890  0.24590  0.74300  1.0000 0.3702272
H   H216      1.0  0.04110  0.74590  0.25700  1.0000 0.3702272
H   H217      1.0  0.04110  0.31260  0.24460  1.0000 0.3496957207
H   H218      1.0  0.95890  0.81260  0.75540  1.0000 0.3496957207
H   H219      1.0  0.45890  0.31260  0.74460  1.0000 0.3496957207
H   H220      1.0  0.54110  0.81260  0.25540  1.0000 0.3496957207
H   H221      1.0  0.04190  0.31180  0.28170  1.0000 0.3496957207
H   H222      1.0  0.95810  0.81180  0.71830  1.0000 0.3496957207
H   H223      1.0  0.45810  0.31180  0.78170  1.0000 0.3496957207
H   H224      1.0  0.54190  0.81180  0.21830  1.0000 0.3496957207
C   C1        1.0  0.90740  0.94958  0.47856  1.0000 0.5572487907
C   C2        1.0  0.09260  0.44958  0.52144  1.0000 0.5572487907
C   C3        1.0  0.59260  0.94958  0.97856  1.0000 0.5572487907
C   C4        1.0  0.40740  0.44958  0.02144  1.0000 0.5572487907
C   C5        1.0  0.84140  0.90728  0.48124  1.0000 -0.0074345409
C   C6        1.0  0.15860  0.40728  0.51876  1.0000 -0.0074345409
C   C7        1.0  0.65860  0.90728  0.98124  1.0000 -0.0074345409
C   C8        1.0  0.34140  0.40728  0.01876  1.0000 -0.0074345409
C   C9        1.0  0.98430  0.88293  0.49941  1.0000 -0.2306599772
C   C10       1.0  0.01570  0.38293  0.50059  1.0000 -0.2306599772
C   C11       1.0  0.51570  0.88293  0.99941  1.0000 -0.2306599772
C   C12       1.0  0.48430  0.38293  0.00059  1.0000 -0.2306599772
C   C13       1.0  0.92780  0.84093  0.50395  1.0000 0.3237103419
C   C14       1.0  0.07220  0.34093  0.49605  1.0000 0.3237103419
C   C15       1.0  0.57220  0.84093  0.00395  1.0000 0.3237103419
C   C16       1.0  0.42780  0.34093  0.99605  1.0000 0.3237103419
C   C17       1.0  0.72500  0.82611  0.48717  1.0000 -0.333037525
C   C18       1.0  0.27500  0.32611  0.51283  1.0000 -0.333037525
C   C19       1.0  0.77500  0.82611  0.98717  1.0000 -0.333037525
C   C20       1.0  0.22500  0.32611  0.01283  1.0000 -0.333037525
C   C21       1.0  0.58820  0.85338  0.46948  1.0000 0.2527323672
C   C22       1.0  0.41180  0.35338  0.53052  1.0000 0.2527323672
C   C23       1.0  0.91180  0.85338  0.96948  1.0000 0.2527323672
C   C24       1.0  0.08820  0.35338  0.03052  1.0000 0.2527323672
C   C25       1.0  0.62560  0.89402  0.46758  1.0000 -0.241067001
C   C26       1.0  0.37440  0.39402  0.53242  1.0000 -0.241067001
C   C27       1.0  0.87440  0.89402  0.96758  1.0000 -0.241067001
C   C28       1.0  0.12560  0.39402  0.03242  1.0000 -0.241067001
C   C29       1.0  0.13680  0.82282  0.55560  1.0000 0.261449518
C   C30       1.0  0.86320  0.32282  0.44440  1.0000 0.261449518
C   C31       1.0  0.36320  0.82282  0.05560  1.0000 0.261449518
C   C32       1.0  0.63680  0.32282  0.94440  1.0000 0.261449518
C   C33       1.0  0.98690  0.83863  0.58144  1.0000 -0.2494480163
C   C34       1.0  0.01310  0.33863  0.41856  1.0000 -0.2494480163
C   C35       1.0  0.51310  0.83863  0.08144  1.0000 -0.2494480163
C   C36       1.0  0.48690  0.33863  0.91856  1.0000 -0.2494480163
C   C37       1.0  0.05110  0.83999  0.61792  1.0000 -0.0603804653
C   C38       1.0  0.94890  0.33999  0.38208  1.0000 -0.0603804653
C   C39       1.0  0.44890  0.83999  0.11792  1.0000 -0.0603804653
C   C40       1.0  0.55110  0.33999  0.88208  1.0000 -0.0603804653
C   C41       1.0  0.26510  0.82552  0.62857  1.0000 -0.0876686228
C   C42       1.0  0.73490  0.32552  0.37143  1.0000 -0.0876686228
C   C43       1.0  0.23490  0.82552  0.12857  1.0000 -0.0876686228
C   C44       1.0  0.76510  0.32552  0.87143  1.0000 -0.0876686228
C   C45       1.0  0.41490  0.80971  0.60273  1.0000 -0.0746414987
C   C46       1.0  0.58510  0.30971  0.39727  1.0000 -0.0746414987
C   C47       1.0  0.08510  0.80971  0.10273  1.0000 -0.0746414987
C   C48       1.0  0.91490  0.30971  0.89727  1.0000 -0.0746414987
C   C49       1.0  0.35080  0.80836  0.56625  1.0000 -0.2216736721
C   C50       1.0  0.64920  0.30836  0.43375  1.0000 -0.2216736721
C   C51       1.0  0.14920  0.80836  0.06625  1.0000 -0.2216736721
C   C52       1.0  0.85080  0.30836  0.93375  1.0000 -0.2216736721
C   C53       1.0  0.33920  0.82623  0.66534  1.0000 0.5166759836
C   C54       1.0  0.66080  0.32623  0.33466  1.0000 0.5166759836
C   C55       1.0  0.16080  0.82623  0.16534  1.0000 0.5166759836
C   C56       1.0  0.83920  0.32623  0.83466  1.0000 0.5166759836
C   C57       1.0  0.33520  0.83938  0.41833  1.0000 0.261449518
C   C58       1.0  0.66480  0.33938  0.58167  1.0000 0.261449518
C   C59       1.0  0.16480  0.83938  0.91833  1.0000 0.261449518
C   C60       1.0  0.83520  0.33938  0.08167  1.0000 0.261449518
C   C61       1.0  0.11860  0.82530  0.40859  1.0000 -0.2216736721
C   C62       1.0  0.88140  0.32530  0.59141  1.0000 -0.2216736721
C   C63       1.0  0.38140  0.82530  0.90859  1.0000 -0.2216736721
C   C64       1.0  0.61860  0.32530  0.09141  1.0000 -0.2216736721
C   C65       1.0  0.05720  0.82292  0.37204  1.0000 -0.0812801117
C   C66       1.0  0.94280  0.32292  0.62796  1.0000 -0.0812801117
C   C67       1.0  0.44280  0.82292  0.87204  1.0000 -0.0812801117
C   C68       1.0  0.55720  0.32292  0.12796  1.0000 -0.0812801117
C   C69       1.0  0.21250  0.83456  0.34521  1.0000 -0.0374533469
C   C70       1.0  0.78750  0.33456  0.65479  1.0000 -0.0374533469
C   C71       1.0  0.28750  0.83456  0.84521  1.0000 -0.0374533469
C   C72       1.0  0.71250  0.33456  0.15479  1.0000 -0.0374533469
C   C73       1.0  0.42910  0.84860  0.35495  1.0000 -0.0812801117
C   C74       1.0  0.57090  0.34860  0.64505  1.0000 -0.0812801117
C   C75       1.0  0.07090  0.84860  0.85495  1.0000 -0.0812801117
C   C76       1.0  0.92910  0.34860  0.14505  1.0000 -0.0812801117
C   C77       1.0  0.49040  0.85100  0.39151  1.0000 -0.2306599772
C   C78       1.0  0.50960  0.35100  0.60849  1.0000 -0.2306599772
C   C79       1.0  0.00960  0.85100  0.89151  1.0000 -0.2306599772
C   C80       1.0  0.99040  0.35100  0.10849  1.0000 -0.2306599772
C   C81       1.0  0.14490  0.83302  0.30586  1.0000 0.5572487907
C   C82       1.0  0.85510  0.33302  0.69414  1.0000 0.5572487907
C   C83       1.0  0.35510  0.83302  0.80586  1.0000 0.5572487907
C   C84       1.0  0.64490  0.33302  0.19414  1.0000 0.5572487907
C   C85       1.0  0.92500  0.10459  0.49990  1.0000 0.5493713068
C   C86       1.0  0.07500  0.60459  0.50010  1.0000 0.5493713068
C   C87       1.0  0.57500  0.10459  0.99990  1.0000 0.5493713068
C   C88       1.0  0.42500  0.60459  0.00010  1.0000 0.5493713068
C   C89       1.0  0.85430  0.14653  0.50468  1.0000 0.0088757262
C   C90       1.0  0.14570  0.64653  0.49532  1.0000 0.0088757262
C   C91       1.0  0.64570  0.14653  0.00468  1.0000 0.0088757262
C   C92       1.0  0.35430  0.64653  0.99532  1.0000 0.0088757262
C   C93       1.0  0.99380  0.17138  0.52325  1.0000 -0.2306599772
C   C94       1.0  0.00620  0.67138  0.47675  1.0000 -0.2306599772
C   C95       1.0  0.50620  0.17138  0.02325  1.0000 -0.2306599772
C   C96       1.0  0.49380  0.67138  0.97675  1.0000 -0.2306599772
C   C97       1.0  0.95090  0.21168  0.52917  1.0000 0.304883902
C   C98       1.0  0.04910  0.71168  0.47083  1.0000 0.304883902
C   C99       1.0  0.54910  0.21168  0.02917  1.0000 0.304883902
C   C100      1.0  0.45090  0.71168  0.97083  1.0000 0.304883902
C   C101      1.0  0.73650  0.22734  0.51296  1.0000 -0.3139864159
C   C102      1.0  0.26350  0.72734  0.48704  1.0000 -0.3139864159
C   C103      1.0  0.76350  0.22734  0.01296  1.0000 -0.3139864159
C   C104      1.0  0.23650  0.72734  0.98704  1.0000 -0.3139864159
C   C105      1.0  0.60390  0.20182  0.49359  1.0000 0.2527323672
C   C106      1.0  0.39610  0.70182  0.50641  1.0000 0.2527323672
C   C107      1.0  0.89610  0.20182  0.99359  1.0000 0.2527323672
C   C108      1.0  0.10390  0.70182  0.00641  1.0000 0.2527323672
C   C109      1.0  0.63790  0.16060  0.49099  1.0000 -0.241067001
C   C110      1.0  0.36210  0.66060  0.50901  1.0000 -0.241067001
C   C111      1.0  0.86210  0.16060  0.99099  1.0000 -0.241067001
C   C112      1.0  0.13790  0.66060  0.00901  1.0000 -0.241067001
C   C113      1.0  0.14350  0.23375  0.58161  1.0000 0.2389650093
C   C114      1.0  0.85650  0.73375  0.41839  1.0000 0.2389650093
C   C115      1.0  0.35650  0.23375  0.08161  1.0000 0.2389650093
C   C116      1.0  0.64350  0.73375  0.91839  1.0000 0.2389650093
C   C117      1.0  0.99790  0.21630  0.60730  1.0000 -0.2306599772
C   C118      1.0  0.00210  0.71630  0.39270  1.0000 -0.2306599772
C   C119      1.0  0.50210  0.21630  0.10730  1.0000 -0.2306599772
C   C120      1.0  0.49790  0.71630  0.89270  1.0000 -0.2306599772
C   C121      1.0  0.05330  0.21406  0.64417  1.0000 -0.0812801117
C   C122      1.0  0.94670  0.71406  0.35583  1.0000 -0.0812801117
C   C123      1.0  0.44670  0.21406  0.14417  1.0000 -0.0812801117
C   C124      1.0  0.55330  0.71406  0.85583  1.0000 -0.0812801117
C   C125      1.0  0.26730  0.23030  0.65320  1.0000 -0.0171031989
C   C126      1.0  0.73270  0.73030  0.34680  1.0000 -0.0171031989
C   C127      1.0  0.23270  0.23030  0.15320  1.0000 -0.0171031989
C   C128      1.0  0.76730  0.73030  0.84680  1.0000 -0.0171031989
C   C129      1.0  0.41600  0.24610  0.62777  1.0000 -0.0812801117
C   C130      1.0  0.58400  0.74610  0.37223  1.0000 -0.0812801117
C   C131      1.0  0.08400  0.24610  0.12777  1.0000 -0.0812801117
C   C132      1.0  0.91600  0.74610  0.87223  1.0000 -0.0812801117
C   C133      1.0  0.35730  0.24598  0.59225  1.0000 -0.2007293766
C   C134      1.0  0.64270  0.74598  0.40775  1.0000 -0.2007293766
C   C135      1.0  0.14270  0.24598  0.09225  1.0000 -0.2007293766
C   C136      1.0  0.85730  0.74598  0.90775  1.0000 -0.2007293766
C   C137      1.0  0.33810  0.22942  0.69360  1.0000 0.5419790493
C   C138      1.0  0.66190  0.72942  0.30640  1.0000 0.5419790493
C   C139      1.0  0.16190  0.22942  0.19360  1.0000 0.5419790493
C   C140      1.0  0.83810  0.72942  0.80640  1.0000 0.5419790493
C   C141      1.0  0.34890  0.21572  0.44325  1.0000 0.261449518
C   C142      1.0  0.65110  0.71572  0.55675  1.0000 0.261449518
C   C143      1.0  0.15110  0.21572  0.94325  1.0000 0.261449518
C   C144      1.0  0.84890  0.71572  0.05675  1.0000 0.261449518
C   C145      1.0  0.50170  0.20400  0.41611  1.0000 -0.241067001
C   C146      1.0  0.49830  0.70400  0.58389  1.0000 -0.241067001
C   C147      1.0  0.99830  0.20400  0.91611  1.0000 -0.241067001
C   C148      1.0  0.00170  0.70400  0.08389  1.0000 -0.241067001
C   C149      1.0  0.43830  0.20679  0.37967  1.0000 -0.0959085329
C   C150      1.0  0.56170  0.70679  0.62033  1.0000 -0.0959085329
C   C151      1.0  0.06170  0.20679  0.87967  1.0000 -0.0959085329
C   C152      1.0  0.93830  0.70679  0.12033  1.0000 -0.0959085329
C   C153      1.0  0.22200  0.22133  0.37036  1.0000 -0.0603804653
C   C154      1.0  0.77800  0.72133  0.62964  1.0000 -0.0603804653
C   C155      1.0  0.27800  0.22133  0.87036  1.0000 -0.0603804653
C   C156      1.0  0.72200  0.72133  0.12964  1.0000 -0.0603804653
C   C157      1.0  0.06920  0.23306  0.39749  1.0000 -0.0812801117
C   C158      1.0  0.93080  0.73306  0.60251  1.0000 -0.0812801117
C   C159      1.0  0.43080  0.23306  0.89749  1.0000 -0.0812801117
C   C160      1.0  0.56920  0.73306  0.10251  1.0000 -0.0812801117
C   C161      1.0  0.13260  0.23026  0.43394  1.0000 -0.2216736721
C   C162      1.0  0.86740  0.73026  0.56606  1.0000 -0.2216736721
C   C163      1.0  0.36740  0.23026  0.93394  1.0000 -0.2216736721
C   C164      1.0  0.63260  0.73026  0.06606  1.0000 -0.2216736721
C   C165      1.0  0.15390  0.22577  0.33136  1.0000 0.5493713068
C   C166      1.0  0.84610  0.72577  0.66864  1.0000 0.5493713068
C   C167      1.0  0.34610  0.22577  0.83136  1.0000 0.5493713068
C   C168      1.0  0.65390  0.72577  0.16864  1.0000 0.5493713068
C   C169      1.0  0.29870  0.98262  0.54681  1.0000 0.2882285463
C   C170      1.0  0.70130  0.48262  0.45319  1.0000 0.2882285463
C   C171      1.0  0.20130  0.98262  0.04681  1.0000 0.2882285463
C   C172      1.0  0.79870  0.48262  0.95319  1.0000 0.2882285463
C   C173      1.0  0.51360  0.92260  0.57920  1.0000 -0.3496331079
C   C174      1.0  0.48640  0.42260  0.42080  1.0000 -0.3496331079
C   C175      1.0  0.98640  0.92260  0.07920  1.0000 -0.3496331079
C   C176      1.0  0.01360  0.42260  0.92080  1.0000 -0.3496331079
C   C177      1.0  0.16830  0.95785  0.60670  1.0000 -0.3496331079
C   C178      1.0  0.83170  0.45785  0.39330  1.0000 -0.3496331079
C   C179      1.0  0.33170  0.95785  0.10670  1.0000 -0.3496331079
C   C180      1.0  0.66830  0.45785  0.89330  1.0000 -0.3496331079
C   C181      1.0  0.05000  0.07090  0.40734  1.0000 0.280158897
C   C182      1.0  0.95000  0.57090  0.59266  1.0000 0.280158897
C   C183      1.0  0.45000  0.07090  0.90734  1.0000 0.280158897
C   C184      1.0  0.55000  0.57090  0.09266  1.0000 0.280158897
C   C185      1.0  0.68060  0.08730  0.37769  1.0000 -0.333037525
C   C186      1.0  0.31940  0.58730  0.62231  1.0000 -0.333037525
C   C187      1.0  0.81940  0.08730  0.87769  1.0000 -0.333037525
C   C188      1.0  0.18060  0.58730  0.12231  1.0000 -0.3357035173
C   C189      1.0  0.06420  0.11540  0.35142  1.0000 -0.3558086706
C   C190      1.0  0.93580  0.61540  0.64858  1.0000 -0.3558086706
C   C191      1.0  0.43580  0.11540  0.85142  1.0000 -0.3558086706
C   C192      1.0  0.56420  0.61540  0.14858  1.0000 -0.3558086706
C   C193      1.0  0.15760  0.40002  0.24886  1.0000 0.1203875071
C   C194      1.0  0.84240  0.90002  0.75114  1.0000 0.1203875071
C   C195      1.0  0.34240  0.40002  0.74886  1.0000 0.1203875071
C   C196      1.0  0.65760  0.90002  0.25114  1.0000 0.1203875071
C   C197      1.0  0.02280  0.43680  0.25458  1.0000 -0.1869178386
C   C198      1.0  0.97720  0.93680  0.74542  1.0000 -0.1869178386
C   C199      1.0  0.47720  0.43680  0.75458  1.0000 -0.1869178386
C   C200      1.0  0.52280  0.93680  0.24542  1.0000 -0.1869178386
C   C201      1.0  0.05820  0.45802  0.28253  1.0000 0.139325683
C   C202      1.0  0.94180  0.95802  0.71747  1.0000 0.139325683
C   C203      1.0  0.44180  0.45802  0.78253  1.0000 0.139325683
C   C204      1.0  0.55820  0.95802  0.21747  1.0000 0.139325683
C   C205      1.0  0.22670  0.44853  0.30583  1.0000 -0.2086719079
C   C206      1.0  0.77330  0.94853  0.69417  1.0000 -0.2086719079
C   C207      1.0  0.27330  0.44853  0.80583  1.0000 -0.2086719079
C   C208      1.0  0.72670  0.94853  0.19417  1.0000 -0.2086719079
C   C209      1.0  0.36440  0.41653  0.29879  1.0000 0.0191332409
C   C210      1.0  0.63560  0.91653  0.70121  1.0000 0.0191332409
C   C211      1.0  0.13560  0.41653  0.79879  1.0000 0.0191332409
C   C212      1.0  0.86440  0.91653  0.20121  1.0000 0.0191332409
C   C213      1.0  0.89760  0.49529  0.28873  1.0000 -0.2494480163
C   C214      1.0  0.10240  0.99529  0.71127  1.0000 -0.2494480163
C   C215      1.0  0.60240  0.49529  0.78873  1.0000 -0.2494480163
C   C216      1.0  0.39760  0.99529  0.21127  1.0000 -0.2494480163
C   C217      1.0  0.02320  0.53480  0.28783  1.0000 -0.155039127
C   C218      1.0  0.97680  0.03480  0.71217  1.0000 -0.155039127
C   C219      1.0  0.47680  0.53480  0.78783  1.0000 -0.155039127
C   C220      1.0  0.52320  0.03480  0.21217  1.0000 -0.155039127
C   C221      1.0  0.13250  0.54220  0.25119  1.0000 -0.2494480163
C   C222      1.0  0.86750  0.04220  0.74881  1.0000 -0.2494480163
C   C223      1.0  0.36750  0.54220  0.75119  1.0000 -0.2494480163
C   C224      1.0  0.63250  0.04220  0.24881  1.0000 -0.2494480163
C   C225      1.0  0.17620  0.65247  0.22432  1.0000 0.0705067611
C   C226      1.0  0.82380  0.15247  0.77568  1.0000 0.0705067611
C   C227      1.0  0.32380  0.65247  0.72432  1.0000 0.0705067611
C   C228      1.0  0.67620  0.15247  0.27568  1.0000 0.0705067611
C   C229      1.0  0.08870  0.61212  0.22925  1.0000 -0.1869178386
C   C230      1.0  0.91130  0.11212  0.77075  1.0000 -0.1869178386
C   C231      1.0  0.41130  0.61212  0.72925  1.0000 -0.1869178386
C   C232      1.0  0.58870  0.11212  0.27075  1.0000 -0.1869178386
C   C233      1.0  0.21520  0.58629  0.24636  1.0000 0.151845358
C   C234      1.0  0.78480  0.08629  0.75364  1.0000 0.151845358
C   C235      1.0  0.28480  0.58629  0.74636  1.0000 0.151845358
C   C236      1.0  0.71520  0.08629  0.25364  1.0000 0.151845358
C   C237      1.0  0.41690  0.59650  0.26439  1.0000 -0.2216736721
C   C238      1.0  0.58310  0.09650  0.73561  1.0000 -0.2216736721
C   C239      1.0  0.08310  0.59650  0.76439  1.0000 -0.2216736721
C   C240      1.0  0.91690  0.09650  0.23561  1.0000 -0.2216736721
C   C241      1.0  0.48830  0.63860  0.25921  1.0000 0.0644365968
C   C242      1.0  0.51170  0.13860  0.74079  1.0000 0.0705067611
C   C243      1.0  0.01170  0.63860  0.75921  1.0000 0.0644365968
C   C244      1.0  0.98830  0.13860  0.24079  1.0000 0.0705067611
N   N1        1.0  0.33490  0.95623  0.57618  1.0000 0.02680957
N   N2        1.0  0.66510  0.45623  0.42382  1.0000 0.02680957
N   N3        1.0  0.16510  0.95623  0.07618  1.0000 0.02680957
N   N4        1.0  0.83490  0.45623  0.92382  1.0000 0.02680957
N   N5        1.0  0.93050  0.09160  0.37921  1.0000 0.0088757262
N   N6        1.0  0.06950  0.59160  0.62079  1.0000 0.0088757262
N   N7        1.0  0.56950  0.09160  0.87921  1.0000 0.0088757262
N   N8        1.0  0.43050  0.59160  0.12079  1.0000 0.0088757262
N   N9        1.0  0.32890  0.39126  0.27005  1.0000 -0.241067001
N   N10       1.0  0.67110  0.89126  0.72995  1.0000 -0.241067001
N   N11       1.0  0.17110  0.39126  0.77005  1.0000 -0.241067001
N   N12       1.0  0.82890  0.89126  0.22995  1.0000 -0.241067001
N   N13       1.0  0.35800  0.66544  0.24178  1.0000 -0.2494480163
N   N14       1.0  0.64200  0.16544  0.75822  1.0000 -0.2494480163
N   N15       1.0  0.14200  0.66544  0.74178  1.0000 -0.2494480163
N   N16       1.0  0.85800  0.16544  0.25822  1.0000 -0.2494480163
O   O1        1.0  0.11340  0.95911  0.47318  1.0000 -0.5220096363
O   O2        1.0  0.88660  0.45911  0.52682  1.0000 -0.5220096363
O   O3        1.0  0.38660  0.95911  0.97318  1.0000 -0.5220096363
O   O4        1.0  0.61340  0.45911  0.02682  1.0000 -0.5220096363
O   O5        1.0  0.76010  0.97873  0.47728  1.0000 -0.5602212204
O   O6        1.0  0.23990  0.47873  0.52272  1.0000 -0.5602212204
O   O7        1.0  0.73990  0.97873  0.97728  1.0000 -0.5602212204
O   O8        1.0  0.26010  0.47873  0.02272  1.0000 -0.5602212204
O   O9        1.0  0.07540  0.81504  0.52027  1.0000 -0.2007293766
O   O10       1.0  0.92460  0.31504  0.47973  1.0000 -0.2007293766
O   O11       1.0  0.42460  0.81504  0.02027  1.0000 -0.2007293766
O   O12       1.0  0.57540  0.31504  0.97973  1.0000 -0.2007293766
O   O13       1.0  0.19730  0.83955  0.69159  1.0000 -0.5696166012
O   O14       1.0  0.80270  0.33955  0.30841  1.0000 -0.5696166012
O   O15       1.0  0.30270  0.83955  0.19159  1.0000 -0.5696166012
O   O16       1.0  0.69730  0.33955  0.80841  1.0000 -0.5696166012
O   O17       1.0  0.53020  0.81762  0.67629  1.0000 -0.4623805536
O   O18       1.0  0.46980  0.31762  0.32371  1.0000 -0.4623805536
O   O19       1.0  0.96980  0.81762  0.17629  1.0000 -0.4623805536
O   O20       1.0  0.03020  0.31762  0.82371  1.0000 -0.4623805536
O   O21       1.0  0.38280  0.83652  0.45526  1.0000 -0.2306599772
O   O22       1.0  0.61720  0.33652  0.54474  1.0000 -0.2306599772
O   O23       1.0  0.11720  0.83652  0.95526  1.0000 -0.2306599772
O   O24       1.0  0.88280  0.33652  0.04474  1.0000 -0.2306599772
O   O25       1.0  0.28820  0.83996  0.28098  1.0000 -0.5602212204
O   O26       1.0  0.71180  0.33996  0.71902  1.0000 -0.5602212204
O   O27       1.0  0.21180  0.83996  0.78098  1.0000 -0.5602212204
O   O28       1.0  0.78820  0.33996  0.21902  1.0000 -0.5602212204
O   O29       1.0  0.93250  0.82479  0.29963  1.0000 -0.5696166012
O   O30       1.0  0.06750  0.32479  0.70037  1.0000 -0.5696166012
O   O31       1.0  0.56750  0.82479  0.79963  1.0000 -0.5696166012
O   O32       1.0  0.43250  0.32479  0.20037  1.0000 -0.5696166012
O   O33       1.0  0.77230  0.07715  0.49352  1.0000 -0.5772192729
O   O34       1.0  0.22770  0.57715  0.50648  1.0000 -0.5772192729
O   O35       1.0  0.72770  0.07715  0.99352  1.0000 -0.5772192729
O   O36       1.0  0.27230  0.57715  0.00648  1.0000 -0.5772192729
O   O37       1.0  0.12920  0.09521  0.49973  1.0000 -0.508649203
O   O38       1.0  0.87080  0.59521  0.50027  1.0000 -0.508649203
O   O39       1.0  0.37080  0.09521  0.99973  1.0000 -0.508649203
O   O40       1.0  0.62920  0.59521  0.00027  1.0000 -0.508649203
O   O41       1.0  0.08570  0.23964  0.54515  1.0000 -0.2007293766
O   O42       1.0  0.91430  0.73964  0.45485  1.0000 -0.2007293766
O   O43       1.0  0.41430  0.23964  0.04515  1.0000 -0.2007293766
O   O44       1.0  0.58570  0.73964  0.95485  1.0000 -0.2007293766
O   O45       1.0  0.20930  0.21819  0.71720  1.0000 -0.508649203
O   O46       1.0  0.79070  0.71819  0.28280  1.0000 -0.508649203
O   O47       1.0  0.29070  0.21819  0.21720  1.0000 -0.508649203
O   O48       1.0  0.70930  0.71819  0.78280  1.0000 -0.508649203
O   O49       1.0  0.54910  0.24234  0.70118  1.0000 -0.5696166012
O   O50       1.0  0.45090  0.74234  0.29882  1.0000 -0.5696166012
O   O51       1.0  0.95090  0.24234  0.20118  1.0000 -0.5696166012
O   O52       1.0  0.04910  0.74234  0.79882  1.0000 -0.5696166012
O   O53       1.0  0.38870  0.21754  0.48021  1.0000 -0.241067001
O   O54       1.0  0.61130  0.71754  0.51979  1.0000 -0.241067001
O   O55       1.0  0.11130  0.21754  0.98021  1.0000 -0.241067001
O   O56       1.0  0.88870  0.71754  0.01979  1.0000 -0.241067001
O   O57       1.0  0.95400  0.23416  0.32289  1.0000 -0.5028895391
O   O58       1.0  0.04600  0.73416  0.67711  1.0000 -0.5028895391
O   O59       1.0  0.54600  0.23416  0.82289  1.0000 -0.5028895391
O   O60       1.0  0.45400  0.73416  0.17711  1.0000 -0.5028895391
O   O61       1.0  0.29680  0.21822  0.30638  1.0000 -0.5479579819
O   O62       1.0  0.70320  0.71822  0.69362  1.0000 -0.5479579819
O   O63       1.0  0.20320  0.21822  0.80638  1.0000 -0.5479579819
O   O64       1.0  0.79680  0.71822  0.19362  1.0000 -0.5479579819
O   O65       1.0  0.14820  0.00963  0.54416  1.0000 -0.4481590344
O   O66       1.0  0.85180  0.50963  0.45584  1.0000 -0.4481590344
O   O67       1.0  0.35180  0.00963  0.04416  1.0000 -0.4481590344
O   O68       1.0  0.64820  0.50963  0.95584  1.0000 -0.4481590344
O   O69       1.0  0.96740  0.03907  0.42248  1.0000 -0.4360706462
O   O70       1.0  0.03260  0.53907  0.57752  1.0000 -0.4360706462
O   O71       1.0  0.53260  0.03907  0.92248  1.0000 -0.4360706462
O   O72       1.0  0.46740  0.53907  0.07752  1.0000 -0.4360706462
O   O73       1.0  0.43340  0.03503  0.46246  1.0000 -0.7380367769
O   O74       1.0  0.56660  0.53503  0.53754  1.0000 -0.7380367769
O   O75       1.0  0.06660  0.03503  0.96246  1.0000 -0.7380367769
O   O76       1.0  0.93340  0.53503  0.03754  1.0000 -0.7380367769
O   O77       1.0  0.59720  0.25658  0.26213  1.0000 -0.659701745
O   O78       1.0  0.40280  0.75658  0.73787  1.0000 -0.659701745
O   O79       1.0  0.90280  0.25658  0.76213  1.0000 -0.659701745
O   O80       1.0  0.09720  0.75658  0.23787  1.0000 -0.659701745
O   O81       1.0  0.10630  0.30178  0.26296  1.0000 -0.659701745
O   O82       1.0  0.89370  0.80178  0.73704  1.0000 -0.659701745
O   O83       1.0  0.39370  0.30178  0.76296  1.0000 -0.659701745
O   O84       1.0  0.60630  0.80178  0.23704  1.0000 -0.659701745
