# DDEC6 charges by PACMAN v1.1 (https://github.com/mtap-research/PACMAN-charge/)
data_2013[PrSi][flu]3[FSR]1
_chemical_formula_sum              "Pr4 Si4 H64 C112 O36"
_cell_length_a       14.571
_cell_length_b       14.571
_cell_length_c       22.0331
_cell_angle_alpha    81.501
_cell_angle_beta     98.499
_cell_angle_gamma    112.809

_symmetry_space_group_name_H-M    "P 1"
_symmetry_Int_Tables_number       1

loop_
  _symmetry_equiv_pos_as_xyz
  'x, y, z'

loop_
  _atom_site_type_symbol
  _atom_site_label
  _atom_site_symmetry_multiplicity
  _atom_site_fract_x
  _atom_site_fract_y
  _atom_site_fract_z
  _atom_site_occupancy
  _atom_site_charge
Pr  Pr1       1.0  0.53069  0.04823  0.40437  1.0000 2.065057582
Pr  Pr2       1.0  0.04823  0.53069  0.09563  1.0000 2.0640514556
Pr  Pr3       1.0  0.46931  0.95177  0.59563  1.0000 2.0640514556
Pr  Pr4       1.0  0.95177  0.46931  0.90437  1.0000 2.0640514556
Si  Si1       1.0  0.34664  0.10574  0.99330  1.0000 0.6686942938
Si  Si2       1.0  0.10574  0.34664  0.50670  1.0000 0.6686942938
Si  Si3       1.0  0.65336  0.89426  0.00670  1.0000 0.6686942938
Si  Si4       1.0  0.89426  0.65336  0.49330  1.0000 0.6686942938
H   H1        1.0  0.34820  0.20820  0.10170  1.0000 0.1115003061
H   H2        1.0  0.20820  0.34820  0.39830  1.0000 0.1115003061
H   H3        1.0  0.65180  0.79180  0.89830  1.0000 0.1115003061
H   H4        1.0  0.79180  0.65180  0.60170  1.0000 0.1115003061
H   H5        1.0  0.44170  0.99250  0.08090  1.0000 0.118479168
H   H6        1.0  0.99250  0.44170  0.41910  1.0000 0.118479168
H   H7        1.0  0.55830  0.00750  0.91910  1.0000 0.118479168
H   H8        1.0  0.00750  0.55830  0.58090  1.0000 0.118479168
H   H9        1.0  0.48270  0.97470  0.18560  1.0000 0.1290936999
H   H10       1.0  0.97470  0.48270  0.31440  1.0000 0.1290936999
H   H11       1.0  0.51730  0.02530  0.81440  1.0000 0.1290936999
H   H12       1.0  0.02530  0.51730  0.68560  1.0000 0.1290936999
H   H13       1.0  0.38620  0.18780  0.20620  1.0000 0.1290936999
H   H14       1.0  0.18780  0.38620  0.29380  1.0000 0.1290936999
H   H15       1.0  0.61380  0.81220  0.79380  1.0000 0.1290936999
H   H16       1.0  0.81220  0.61380  0.70620  1.0000 0.1290936999
H   H17       1.0  0.13880  0.07420  0.94690  1.0000 0.118479168
H   H18       1.0  0.07420  0.13880  0.55310  1.0000 0.118479168
H   H19       1.0  0.86120  0.92580  0.05310  1.0000 0.118479168
H   H20       1.0  0.92580  0.86120  0.44690  1.0000 0.118479168
H   H21       1.0  0.37580  0.31420  0.98790  1.0000 0.1115003061
H   H22       1.0  0.31420  0.37580  0.51210  1.0000 0.1115003061
H   H23       1.0  0.62420  0.68580  0.01210  1.0000 0.1115003061
H   H24       1.0  0.68580  0.62420  0.48790  1.0000 0.1115003061
H   H25       1.0  0.04420  0.17180  0.91620  1.0000 0.118479168
H   H26       1.0  0.17180  0.04420  0.58380  1.0000 0.118479168
H   H27       1.0  0.95580  0.82820  0.08380  1.0000 0.118479168
H   H28       1.0  0.82820  0.95580  0.41620  1.0000 0.118479168
H   H29       1.0  0.28080  0.41220  0.96360  1.0000 0.1290936999
H   H30       1.0  0.41220  0.28080  0.53640  1.0000 0.1290936999
H   H31       1.0  0.71920  0.58780  0.03640  1.0000 0.1290936999
H   H32       1.0  0.58780  0.71920  0.46360  1.0000 0.1290936999
H   H33       1.0  0.18420  0.94420  0.04400  1.0000 0.118479168
H   H34       1.0  0.94420  0.18420  0.45600  1.0000 0.118479168
H   H35       1.0  0.81580  0.05580  0.95600  1.0000 0.118479168
H   H36       1.0  0.05580  0.81580  0.54400  1.0000 0.118479168
H   H37       1.0  0.33780  0.96920  0.90170  1.0000 0.1115003061
H   H38       1.0  0.96920  0.33780  0.59830  1.0000 0.1115003061
H   H39       1.0  0.66220  0.03080  0.09830  1.0000 0.1115003061
H   H40       1.0  0.03080  0.66220  0.40170  1.0000 0.1115003061
H   H41       1.0  0.23280  0.80540  0.88120  1.0000 0.135804816
H   H42       1.0  0.80540  0.23280  0.61880  1.0000 0.135804816
H   H43       1.0  0.76720  0.19460  0.11880  1.0000 0.135804816
H   H44       1.0  0.19460  0.76720  0.38120  1.0000 0.135804816
H   H45       1.0  0.08880  0.77780  0.02660  1.0000 0.135804816
H   H46       1.0  0.77780  0.08880  0.47340  1.0000 0.135804816
H   H47       1.0  0.91120  0.22220  0.97340  1.0000 0.135804816
H   H48       1.0  0.22220  0.91120  0.52660  1.0000 0.135804816
H   H49       1.0  0.56420  0.19200  0.02080  1.0000 0.118479168
H   H50       1.0  0.19200  0.56420  0.47920  1.0000 0.118479168
H   H51       1.0  0.43580  0.80800  0.97920  1.0000 0.118479168
H   H52       1.0  0.80800  0.43580  0.52080  1.0000 0.118479168
H   H53       1.0  0.38410  0.15990  0.86610  1.0000 0.118479168
H   H54       1.0  0.15990  0.38410  0.63390  1.0000 0.118479168
H   H55       1.0  0.61590  0.84010  0.13390  1.0000 0.118479168
H   H56       1.0  0.84010  0.61590  0.36610  1.0000 0.118479168
H   H57       1.0  0.52180  0.23660  0.81050  1.0000 0.1290936999
H   H58       1.0  0.23660  0.52180  0.68950  1.0000 0.1290936999
H   H59       1.0  0.47820  0.76340  0.18950  1.0000 0.1290936999
H   H60       1.0  0.76340  0.47820  0.31050  1.0000 0.1290936999
H   H61       1.0  0.70180  0.26340  0.96660  1.0000 0.118479168
H   H62       1.0  0.26340  0.70180  0.53340  1.0000 0.118479168
H   H63       1.0  0.29820  0.73660  0.03340  1.0000 0.118479168
H   H64       1.0  0.73660  0.29820  0.46660  1.0000 0.118479168
C   C1        1.0  0.38400  0.09840  0.07780  1.0000 -0.1984191275
C   C2        1.0  0.09840  0.38400  0.42220  1.0000 -0.1984191275
C   C3        1.0  0.61600  0.90160  0.92220  1.0000 -0.1984191275
C   C4        1.0  0.90160  0.61600  0.57780  1.0000 -0.1984191275
C   C5        1.0  0.37320  0.15900  0.11810  1.0000 -0.0826748915
C   C6        1.0  0.15900  0.37320  0.38190  1.0000 -0.0826748915
C   C7        1.0  0.62680  0.84100  0.88190  1.0000 -0.0826748915
C   C8        1.0  0.84100  0.62680  0.61810  1.0000 -0.0826748915
C   C9        1.0  0.42880  0.03180  0.10570  1.0000 -0.0826748915
C   C10       1.0  0.03180  0.42880  0.39430  1.0000 -0.0826748915
C   C11       1.0  0.57120  0.96820  0.89430  1.0000 -0.0826748915
C   C12       1.0  0.96820  0.57120  0.60570  1.0000 -0.0826748915
C   C13       1.0  0.45510  0.02170  0.16860  1.0000 -0.0826748915
C   C14       1.0  0.02170  0.45510  0.33140  1.0000 -0.0887970572
C   C15       1.0  0.54490  0.97830  0.83140  1.0000 -0.0826748915
C   C16       1.0  0.97830  0.54490  0.66860  1.0000 -0.0887970572
C   C17       1.0  0.39800  0.14880  0.18080  1.0000 -0.0826748915
C   C18       1.0  0.14880  0.39800  0.31920  1.0000 -0.0826748915
C   C19       1.0  0.60200  0.85120  0.81920  1.0000 -0.0826748915
C   C20       1.0  0.85120  0.60200  0.68080  1.0000 -0.0826748915
C   C21       1.0  0.44020  0.08020  0.20530  1.0000 0.0207165477
C   C22       1.0  0.08020  0.44020  0.29470  1.0000 0.0207165477
C   C23       1.0  0.55980  0.91980  0.79470  1.0000 0.0207165477
C   C24       1.0  0.91980  0.55980  0.70530  1.0000 0.0207165477
C   C25       1.0  0.46990  0.06870  0.27430  1.0000 0.5814830575
C   C26       1.0  0.06870  0.46990  0.22570  1.0000 0.5814830575
C   C27       1.0  0.53010  0.93130  0.72570  1.0000 0.5814830575
C   C28       1.0  0.93130  0.53010  0.77430  1.0000 0.5814830575
C   C29       1.0  0.26670  0.18190  0.97200  1.0000 -0.1984191275
C   C30       1.0  0.18190  0.26670  0.52800  1.0000 -0.1984191275
C   C31       1.0  0.73330  0.81810  0.02800  1.0000 -0.1984191275
C   C32       1.0  0.81810  0.73330  0.47200  1.0000 -0.1984191275
C   C33       1.0  0.16850  0.14270  0.95000  1.0000 -0.0887970572
C   C34       1.0  0.14270  0.16850  0.55000  1.0000 -0.0887970572
C   C35       1.0  0.83150  0.85730  0.05000  1.0000 -0.0887970572
C   C36       1.0  0.85730  0.83150  0.45000  1.0000 -0.0887970572
C   C37       1.0  0.30810  0.28430  0.97500  1.0000 -0.0887970572
C   C38       1.0  0.28430  0.30810  0.52500  1.0000 -0.0887970572
C   C39       1.0  0.69190  0.71570  0.02500  1.0000 -0.0887970572
C   C40       1.0  0.71570  0.69190  0.47500  1.0000 -0.0887970572
C   C41       1.0  0.11070  0.20110  0.93200  1.0000 -0.0887970572
C   C42       1.0  0.20110  0.11070  0.56800  1.0000 -0.0887970572
C   C43       1.0  0.88930  0.79890  0.06800  1.0000 -0.0887970572
C   C44       1.0  0.79890  0.88930  0.43200  1.0000 -0.0887970572
C   C45       1.0  0.25140  0.34400  0.95940  1.0000 -0.0826748915
C   C46       1.0  0.34400  0.25140  0.54060  1.0000 -0.0826748915
C   C47       1.0  0.74860  0.65600  0.04060  1.0000 -0.0826748915
C   C48       1.0  0.65600  0.74860  0.45940  1.0000 -0.0826748915
C   C49       1.0  0.15230  0.30250  0.93780  1.0000 -0.0013265717
C   C50       1.0  0.30250  0.15230  0.56220  1.0000 -0.0013265717
C   C51       1.0  0.84770  0.69750  0.06220  1.0000 -0.0013265717
C   C52       1.0  0.69750  0.84770  0.43780  1.0000 -0.0013265717
C   C53       1.0  0.08780  0.36360  0.92070  1.0000 0.5602960799
C   C54       1.0  0.36360  0.08780  0.57930  1.0000 0.5602960799
C   C55       1.0  0.91220  0.63640  0.07930  1.0000 0.5602960799
C   C56       1.0  0.63640  0.91220  0.42070  1.0000 0.5602960799
C   C57       1.0  0.27340  0.97540  0.97390  1.0000 -0.1859791477
C   C58       1.0  0.97540  0.27340  0.52610  1.0000 -0.1859791477
C   C59       1.0  0.72660  0.02460  0.02610  1.0000 -0.1859791477
C   C60       1.0  0.02460  0.72660  0.47390  1.0000 -0.1859791477
C   C61       1.0  0.19630  0.91670  0.01200  1.0000 -0.0739474643
C   C62       1.0  0.91670  0.19630  0.48800  1.0000 -0.0739474643
C   C63       1.0  0.80370  0.08330  0.98800  1.0000 -0.0739474643
C   C64       1.0  0.08330  0.80370  0.51200  1.0000 -0.0739474643
C   C65       1.0  0.28700  0.93240  0.92670  1.0000 -0.0826748915
C   C66       1.0  0.93240  0.28700  0.57330  1.0000 -0.0826748915
C   C67       1.0  0.71300  0.06760  0.07330  1.0000 -0.0826748915
C   C68       1.0  0.06760  0.71300  0.42670  1.0000 -0.0826748915
C   C69       1.0  0.22480  0.83220  0.91490  1.0000 -0.0826748915
C   C70       1.0  0.83220  0.22480  0.58510  1.0000 -0.0826748915
C   C71       1.0  0.77520  0.16780  0.08510  1.0000 -0.0826748915
C   C72       1.0  0.16780  0.77520  0.41490  1.0000 -0.0826748915
C   C73       1.0  0.13820  0.81640  0.00100  1.0000 -0.0826748915
C   C74       1.0  0.81640  0.13820  0.49900  1.0000 -0.0826748915
C   C75       1.0  0.86180  0.18360  0.99900  1.0000 -0.0826748915
C   C76       1.0  0.18360  0.86180  0.50100  1.0000 -0.0826748915
C   C77       1.0  0.15350  0.77570  0.95340  1.0000 -0.0286737086
C   C78       1.0  0.77570  0.15350  0.54660  1.0000 -0.0286737086
C   C79       1.0  0.84650  0.22430  0.04660  1.0000 -0.0286737086
C   C80       1.0  0.22430  0.84650  0.45340  1.0000 -0.0286737086
C   C81       1.0  0.09150  0.67110  0.94130  1.0000 0.6136733952
C   C82       1.0  0.67110  0.09150  0.55870  1.0000 0.6136733952
C   C83       1.0  0.90850  0.32890  0.05870  1.0000 0.6136733952
C   C84       1.0  0.32890  0.90850  0.44130  1.0000 0.6136733952
C   C85       1.0  0.45880  0.16440  0.95000  1.0000 -0.1984191275
C   C86       1.0  0.16440  0.45880  0.55000  1.0000 -0.1984191275
C   C87       1.0  0.54120  0.83560  0.05000  1.0000 -0.1984191275
C   C88       1.0  0.83560  0.54120  0.45000  1.0000 -0.1984191275
C   C89       1.0  0.55470  0.19910  0.97790  1.0000 -0.0826748915
C   C90       1.0  0.19910  0.55470  0.52210  1.0000 -0.0826748915
C   C91       1.0  0.44530  0.80090  0.02210  1.0000 -0.0826748915
C   C92       1.0  0.80090  0.44530  0.47790  1.0000 -0.0826748915
C   C93       1.0  0.44810  0.18050  0.88690  1.0000 -0.0887970572
C   C94       1.0  0.18050  0.44810  0.61310  1.0000 -0.0887970572
C   C95       1.0  0.55190  0.81950  0.11310  1.0000 -0.0887970572
C   C96       1.0  0.81950  0.55190  0.38690  1.0000 -0.0887970572
C   C97       1.0  0.53100  0.22720  0.85330  1.0000 -0.0887970572
C   C98       1.0  0.22720  0.53100  0.64670  1.0000 -0.0887970572
C   C99       1.0  0.46900  0.77280  0.14670  1.0000 -0.0826748915
C   C100      1.0  0.77280  0.46900  0.35330  1.0000 -0.0887970572
C   C101      1.0  0.63830  0.24410  0.94540  1.0000 -0.0887970572
C   C102      1.0  0.24410  0.63830  0.55460  1.0000 -0.0887970572
C   C103      1.0  0.36170  0.75590  0.05460  1.0000 -0.0887970572
C   C104      1.0  0.75590  0.36170  0.44540  1.0000 -0.0887970572
C   C105      1.0  0.62790  0.25990  0.88370  1.0000 -0.0130998205
C   C106      1.0  0.25990  0.62790  0.61630  1.0000 -0.0130998205
C   C107      1.0  0.37210  0.74010  0.11630  1.0000 -0.0130998205
C   C108      1.0  0.74010  0.37210  0.38370  1.0000 -0.0130998205
C   C109      1.0  0.72080  0.30560  0.84970  1.0000 0.6044653121
C   C110      1.0  0.30560  0.72080  0.65030  1.0000 0.6044653121
C   C111      1.0  0.27920  0.69440  0.15030  1.0000 0.6044653121
C   C112      1.0  0.69440  0.27920  0.34970  1.0000 0.6044653121
O   O1        1.0  0.44920  0.11760  0.30940  1.0000 -0.591198289
O   O2        1.0  0.11760  0.44920  0.19060  1.0000 -0.591198289
O   O3        1.0  0.55080  0.88240  0.69060  1.0000 -0.591198289
O   O4        1.0  0.88240  0.55080  0.80940  1.0000 -0.591198289
O   O5        1.0  0.51400  0.01020  0.29530  1.0000 -0.5833240908
O   O6        1.0  0.01020  0.51400  0.20470  1.0000 -0.5833240908
O   O7        1.0  0.48600  0.98980  0.70470  1.0000 -0.5833240908
O   O8        1.0  0.98980  0.48600  0.79530  1.0000 -0.5833240908
O   O9        1.0  0.12354  0.45386  0.93470  1.0000 -0.5660200354
O   O10       1.0  0.45386  0.12354  0.56530  1.0000 -0.5660200354
O   O11       1.0  0.87646  0.54614  0.06530  1.0000 -0.5660200354
O   O12       1.0  0.54614  0.87646  0.43470  1.0000 -0.5660200354
O   O13       1.0  0.00242  0.32518  0.89330  1.0000 -0.6018563296
O   O14       1.0  0.32518  0.00242  0.60670  1.0000 -0.6018563296
O   O15       1.0  0.99758  0.67482  0.10670  1.0000 -0.6018563296
O   O16       1.0  0.67482  0.99758  0.39330  1.0000 -0.6018563296
O   O17       1.0  0.07800  0.64400  0.88790  1.0000 -0.5833240908
O   O18       1.0  0.64400  0.07800  0.61210  1.0000 -0.5833240908
O   O19       1.0  0.92200  0.35600  0.11210  1.0000 -0.5833240908
O   O20       1.0  0.35600  0.92200  0.38790  1.0000 -0.5833240908
O   O21       1.0  0.05260  0.60680  0.98620  1.0000 -0.6925356027
O   O22       1.0  0.60680  0.05260  0.51380  1.0000 -0.6925356027
O   O23       1.0  0.94740  0.39320  0.01380  1.0000 -0.6925356027
O   O24       1.0  0.39320  0.94740  0.48620  1.0000 -0.6925356027
O   O25       1.0  0.70490  0.30530  0.79050  1.0000 -0.5070703413
O   O26       1.0  0.30530  0.70490  0.70950  1.0000 -0.5070703413
O   O27       1.0  0.29510  0.69470  0.20950  1.0000 -0.5070703413
O   O28       1.0  0.69470  0.29510  0.29050  1.0000 -0.5070703413
O   O29       1.0  0.80360  0.33800  0.87700  1.0000 -0.6066863176
O   O30       1.0  0.33800  0.80360  0.62300  1.0000 -0.6066863176
O   O31       1.0  0.19640  0.66200  0.12300  1.0000 -0.6066863176
O   O32       1.0  0.66200  0.19640  0.37700  1.0000 -0.6066863176
O   O33       1.0  0.47820  0.17200  0.44210  1.0000 -0.1567850981
O   O34       1.0  0.17200  0.47820  0.05790  1.0000 -0.1567850981
O   O35       1.0  0.52180  0.82800  0.55790  1.0000 -0.1567850981
O   O36       1.0  0.82800  0.52180  0.94210  1.0000 -0.1567850981
