# DDEC6 charges by PACMAN v1.1 (https://github.com/mtap-research/PACMAN-charge/)
data_2013[Zn][ths]3[FSR]9
_chemical_formula_sum              "Zn12 H96 C144 I24 N48"
_cell_length_a       19.3422
_cell_length_b       19.3422
_cell_length_c       30.594
_cell_angle_alpha    79.2468
_cell_angle_beta     100.753
_cell_angle_gamma    135.096

_symmetry_space_group_name_H-M    "P 1"
_symmetry_Int_Tables_number       1

loop_
  _symmetry_equiv_pos_as_xyz
  'x, y, z'

loop_
  _atom_site_type_symbol
  _atom_site_label
  _atom_site_symmetry_multiplicity
  _atom_site_fract_x
  _atom_site_fract_y
  _atom_site_fract_z
  _atom_site_occupancy
  _atom_site_charge
Zn  Zn1       1.0  0.80939  0.47665  0.77546  1.0000 0.4376991929
Zn  Zn2       1.0  0.52335  0.19061  0.27546  1.0000 0.4376991929
Zn  Zn3       1.0  0.26945  0.52035  0.93032  1.0000 0.4563411267
Zn  Zn4       1.0  0.47965  0.73055  0.43032  1.0000 0.4563411267
Zn  Zn5       1.0  0.20559  0.05673  0.09999  1.0000 0.4504274817
Zn  Zn6       1.0  0.94327  0.79441  0.59999  1.0000 0.4504274817
Zn  Zn7       1.0  0.47665  0.80939  0.72454  1.0000 0.4376991929
Zn  Zn8       1.0  0.19061  0.52335  0.22454  1.0000 0.4376991929
Zn  Zn9       1.0  0.52035  0.26945  0.56968  1.0000 0.4563411267
Zn  Zn10      1.0  0.73055  0.47965  0.06968  1.0000 0.4563411267
Zn  Zn11      1.0  0.05673  0.20559  0.40001  1.0000 0.4504274817
Zn  Zn12      1.0  0.79441  0.94327  0.90001  1.0000 0.4504274817
H   H1        1.0  0.65440  0.43660  0.81420  1.0000 0.1020609357
H   H2        1.0  0.56340  0.34560  0.31420  1.0000 0.1020609357
H   H3        1.0  0.63270  0.48990  0.86600  1.0000 0.1386269022
H   H4        1.0  0.51010  0.36730  0.36600  1.0000 0.1386269022
H   H5        1.0  0.92030  0.67190  0.90470  1.0000 0.1293970437
H   H6        1.0  0.32810  0.07970  0.40470  1.0000 0.1293970437
H   H7        1.0  0.93420  0.60900  0.85270  1.0000 0.1079018271
H   H8        1.0  0.39100  0.06580  0.35270  1.0000 0.1079018271
H   H9        1.0  0.43740  0.58880  0.00530  1.0000 0.1079018271
H   H10       1.0  0.41120  0.56260  0.50530  1.0000 0.1079018271
H   H11       1.0  0.58790  0.63510  0.01270  1.0000 0.1386269022
H   H12       1.0  0.36490  0.41210  0.51270  1.0000 0.1386269022
H   H13       1.0  0.54600  0.59540  0.88050  1.0000 0.1386269022
H   H14       1.0  0.40460  0.45400  0.38050  1.0000 0.1386269022
H   H15       1.0  0.40530  0.56350  0.87730  1.0000 0.1020609357
H   H16       1.0  0.43650  0.59470  0.37730  1.0000 0.1020609357
H   H17       1.0  0.13940  0.91780  0.03670  1.0000 0.1020609357
H   H18       1.0  0.08220  0.86060  0.53670  1.0000 0.1020609357
H   H19       1.0  0.00200  0.78700  0.99660  1.0000 0.1386269022
H   H20       1.0  0.21300  0.99800  0.49660  1.0000 0.1386269022
H   H21       1.0  0.85400  0.84580  0.02730  1.0000 0.1386269022
H   H22       1.0  0.15420  0.14600  0.52730  1.0000 0.1386269022
H   H23       1.0  0.00010  0.97610  0.06680  1.0000 0.1020609357
H   H24       1.0  0.02390  0.99990  0.56680  1.0000 0.1020609357
H   H25       1.0  0.04030  0.87990  0.14840  1.0000 0.1020609357
H   H26       1.0  0.12010  0.95970  0.64840  1.0000 0.1020609357
H   H27       1.0  0.99470  0.75270  0.20070  1.0000 0.1293970437
H   H28       1.0  0.24730  0.00530  0.70070  1.0000 0.1293970437
H   H29       1.0  0.27680  0.88120  0.21290  1.0000 0.1293970437
H   H30       1.0  0.11880  0.72320  0.71290  1.0000 0.1293970437
H   H31       1.0  0.31300  0.00320  0.15900  1.0000 0.1079018271
H   H32       1.0  0.99680  0.68700  0.65900  1.0000 0.1079018271
H   H33       1.0  0.71420  0.25580  0.32290  1.0000 0.1079018271
H   H34       1.0  0.74420  0.28580  0.82290  1.0000 0.1079018271
H   H35       1.0  0.87930  0.39610  0.32790  1.0000 0.1386269022
H   H36       1.0  0.60390  0.12070  0.82790  1.0000 0.1386269022
H   H37       1.0  0.83010  0.53650  0.23550  1.0000 0.1386269022
H   H38       1.0  0.46350  0.16990  0.73550  1.0000 0.1386269022
H   H39       1.0  0.66390  0.39550  0.23480  1.0000 0.1020609357
H   H40       1.0  0.60450  0.33610  0.73480  1.0000 0.1020609357
H   H41       1.0  0.45650  0.81830  0.34240  1.0000 0.1020609357
H   H42       1.0  0.18170  0.54350  0.84240  1.0000 0.1020609357
H   H43       1.0  0.33290  0.79850  0.29840  1.0000 0.1293970437
H   H44       1.0  0.20150  0.66710  0.79840  1.0000 0.1293970437
H   H45       1.0  0.13260  0.54340  0.36990  1.0000 0.1386269022
H   H46       1.0  0.45660  0.86740  0.86990  1.0000 0.1386269022
H   H47       1.0  0.26060  0.57360  0.41620  1.0000 0.1079018271
H   H48       1.0  0.42640  0.73940  0.91620  1.0000 0.1079018271
H   H49       1.0  0.43660  0.65440  0.68580  1.0000 0.1020609357
H   H50       1.0  0.34560  0.56340  0.18580  1.0000 0.1020609357
H   H51       1.0  0.48990  0.63270  0.63400  1.0000 0.1386269022
H   H52       1.0  0.36730  0.51010  0.13400  1.0000 0.1386269022
H   H53       1.0  0.67190  0.92030  0.59530  1.0000 0.1293970437
H   H54       1.0  0.07970  0.32810  0.09530  1.0000 0.1293970437
H   H55       1.0  0.60900  0.93420  0.64730  1.0000 0.1079018271
H   H56       1.0  0.06580  0.39100  0.14730  1.0000 0.1079018271
H   H57       1.0  0.58880  0.43740  0.49470  1.0000 0.1079018271
H   H58       1.0  0.56260  0.41120  0.99470  1.0000 0.1079018271
H   H59       1.0  0.63510  0.58790  0.48730  1.0000 0.1386269022
H   H60       1.0  0.41210  0.36490  0.98730  1.0000 0.1386269022
H   H61       1.0  0.59540  0.54600  0.61950  1.0000 0.1386269022
H   H62       1.0  0.45400  0.40460  0.11950  1.0000 0.1386269022
H   H63       1.0  0.56350  0.40530  0.62270  1.0000 0.1020609357
H   H64       1.0  0.59470  0.43650  0.12270  1.0000 0.1020609357
H   H65       1.0  0.91780  0.13940  0.46330  1.0000 0.1079018271
H   H66       1.0  0.86060  0.08220  0.96330  1.0000 0.1079018271
H   H67       1.0  0.78700  0.00200  0.50340  1.0000 0.1386269022
H   H68       1.0  0.99800  0.21300  0.00340  1.0000 0.1386269022
H   H69       1.0  0.84580  0.85400  0.47270  1.0000 0.1386269022
H   H70       1.0  0.14600  0.15420  0.97270  1.0000 0.1386269022
H   H71       1.0  0.97610  0.00010  0.43320  1.0000 0.1020609357
H   H72       1.0  0.99990  0.02390  0.93320  1.0000 0.1020609357
H   H73       1.0  0.87990  0.04030  0.35160  1.0000 0.1020609357
H   H74       1.0  0.95970  0.12010  0.85160  1.0000 0.1020609357
H   H75       1.0  0.75270  0.99470  0.29930  1.0000 0.1293970437
H   H76       1.0  0.00530  0.24730  0.79930  1.0000 0.1293970437
H   H77       1.0  0.88120  0.27680  0.28710  1.0000 0.1293970437
H   H78       1.0  0.72320  0.11880  0.78710  1.0000 0.1293970437
H   H79       1.0  0.00320  0.31300  0.34100  1.0000 0.1079018271
H   H80       1.0  0.68700  0.99680  0.84100  1.0000 0.1079018271
H   H81       1.0  0.25580  0.71420  0.17710  1.0000 0.1079018271
H   H82       1.0  0.28580  0.74420  0.67710  1.0000 0.1079018271
H   H83       1.0  0.39610  0.87930  0.17210  1.0000 0.1386269022
H   H84       1.0  0.12070  0.60390  0.67210  1.0000 0.1386269022
H   H85       1.0  0.53650  0.83010  0.26450  1.0000 0.1386269022
H   H86       1.0  0.16990  0.46350  0.76450  1.0000 0.1386269022
H   H87       1.0  0.39550  0.66390  0.26520  1.0000 0.1020609357
H   H88       1.0  0.33610  0.60450  0.76520  1.0000 0.1020609357
H   H89       1.0  0.81830  0.45650  0.15760  1.0000 0.1020609357
H   H90       1.0  0.54350  0.18170  0.65760  1.0000 0.1020609357
H   H91       1.0  0.79850  0.33290  0.20160  1.0000 0.1293970437
H   H92       1.0  0.66710  0.20150  0.70160  1.0000 0.1293970437
H   H93       1.0  0.54340  0.13260  0.13010  1.0000 0.1386269022
H   H94       1.0  0.86740  0.45660  0.63010  1.0000 0.1386269022
H   H95       1.0  0.57360  0.26060  0.08380  1.0000 0.1079018271
H   H96       1.0  0.73940  0.42640  0.58380  1.0000 0.1079018271
C   C1        1.0  0.71020  0.48700  0.83210  1.0000 0.0885307045
C   C2        1.0  0.51300  0.28980  0.33210  1.0000 0.0885307045
C   C3        1.0  0.69670  0.51830  0.86290  1.0000 -0.1701920699
C   C4        1.0  0.48170  0.30330  0.36290  1.0000 -0.1701920699
C   C5        1.0  0.77510  0.59070  0.88950  1.0000 0.0815007557
C   C6        1.0  0.40930  0.22490  0.38950  1.0000 0.0815007557
C   C7        1.0  0.86460  0.62420  0.88580  1.0000 -0.1249864905
C   C8        1.0  0.37580  0.13540  0.38580  1.0000 -0.1302565891
C   C9        1.0  0.87300  0.58800  0.85450  1.0000 0.0627518117
C   C10       1.0  0.41200  0.12700  0.35450  1.0000 0.0627518117
C   C11       1.0  0.76470  0.63450  0.92060  1.0000 0.3854250701
C   C12       1.0  0.36550  0.23530  0.42060  1.0000 0.3854250701
C   C13       1.0  0.67200  0.64060  0.95030  1.0000 0.375866171
C   C14       1.0  0.35940  0.32800  0.45030  1.0000 0.375866171
C   C15       1.0  0.82960  0.73260  0.97670  1.0000 0.375866171
C   C16       1.0  0.26740  0.17040  0.47670  1.0000 0.375866171
C   C17       1.0  0.46090  0.59090  0.98000  1.0000 0.0815007557
C   C18       1.0  0.40910  0.53910  0.48000  1.0000 0.0815007557
C   C19       1.0  0.54890  0.61690  0.98510  1.0000 -0.1580492763
C   C20       1.0  0.38310  0.45110  0.48510  1.0000 -0.1580492763
C   C21       1.0  0.57720  0.61460  0.94680  1.0000 0.0627518117
C   C22       1.0  0.38540  0.42280  0.44680  1.0000 0.0627518117
C   C23       1.0  0.52510  0.59490  0.90640  1.0000 -0.1383675544
C   C24       1.0  0.40510  0.47490  0.40640  1.0000 -0.1383675544
C   C25       1.0  0.44150  0.57430  0.90530  1.0000 0.0815007557
C   C26       1.0  0.42570  0.55850  0.40530  1.0000 0.0815007557
C   C27       1.0  0.08020  0.90220  0.03540  1.0000 0.0721618415
C   C28       1.0  0.09780  0.91980  0.53540  1.0000 0.0721618415
C   C29       1.0  0.99970  0.82570  0.01000  1.0000 -0.1302565891
C   C30       1.0  0.17430  0.00030  0.51000  1.0000 -0.1302565891
C   C31       1.0  0.91620  0.80820  0.00510  1.0000 0.0468027049
C   C32       1.0  0.19180  0.08380  0.50510  1.0000 0.0468027049
C   C33       1.0  0.91250  0.86010  0.02800  1.0000 -0.1383675544
C   C34       1.0  0.13990  0.08750  0.52800  1.0000 -0.1383675544
C   C35       1.0  0.00000  0.93600  0.05290  1.0000 0.0721618415
C   C36       1.0  0.06400  0.00000  0.55290  1.0000 0.0721618415
C   C37       1.0  0.08790  0.87850  0.16130  1.0000 0.0885307045
C   C38       1.0  0.12150  0.91210  0.66130  1.0000 0.0885307045
C   C39       1.0  0.06050  0.80270  0.19250  1.0000 -0.1383675544
C   C40       1.0  0.19730  0.93950  0.69250  1.0000 -0.1383675544
C   C41       1.0  0.12840  0.80040  0.21120  1.0000 0.0721618415
C   C42       1.0  0.19960  0.87160  0.71120  1.0000 0.0721618415
C   C43       1.0  0.22680  0.87880  0.19930  1.0000 -0.1580492763
C   C44       1.0  0.12120  0.77320  0.69930  1.0000 -0.1580492763
C   C45       1.0  0.24780  0.95100  0.16760  1.0000 0.0885307045
C   C46       1.0  0.04900  0.75220  0.66760  1.0000 0.0885307045
C   C47       1.0  0.10040  0.71800  0.24410  1.0000 0.3720757323
C   C48       1.0  0.28200  0.89960  0.74410  1.0000 0.3720757323
C   C49       1.0  0.98440  0.57420  0.28020  1.0000 0.3555207492
C   C50       1.0  0.42580  0.01560  0.78020  1.0000 0.3555207492
C   C51       1.0  0.14030  0.65470  0.29950  1.0000 0.3720757323
C   C52       1.0  0.34530  0.85970  0.79950  1.0000 0.3720757323
C   C53       1.0  0.73780  0.31420  0.30550  1.0000 0.0815007557
C   C54       1.0  0.68580  0.26220  0.80550  1.0000 0.0815007557
C   C55       1.0  0.83620  0.39720  0.30790  1.0000 -0.1701920699
C   C56       1.0  0.60280  0.16380  0.80790  1.0000 -0.1701920699
C   C57       1.0  0.87450  0.48250  0.28200  1.0000 0.0885307045
C   C58       1.0  0.51750  0.12550  0.78200  1.0000 0.0815007557
C   C59       1.0  0.80770  0.47990  0.25430  1.0000 -0.1488930548
C   C60       1.0  0.52010  0.19230  0.75430  1.0000 -0.1488930548
C   C61       1.0  0.70890  0.39570  0.25380  1.0000 0.0721618415
C   C62       1.0  0.60430  0.29110  0.75380  1.0000 0.0721618415
C   C63       1.0  0.39000  0.76400  0.34900  1.0000 0.0815007557
C   C64       1.0  0.23600  0.61000  0.84900  1.0000 0.0815007557
C   C65       1.0  0.31700  0.75080  0.32210  1.0000 -0.1488930548
C   C66       1.0  0.24920  0.68300  0.82210  1.0000 -0.1488930548
C   C67       1.0  0.22040  0.66800  0.32950  1.0000 0.0721618415
C   C68       1.0  0.33200  0.77960  0.82950  1.0000 0.0721618415
C   C69       1.0  0.19890  0.60130  0.36450  1.0000 -0.1383675544
C   C70       1.0  0.39870  0.80110  0.86450  1.0000 -0.1383675544
C   C71       1.0  0.27470  0.61950  0.39190  1.0000 0.0885307045
C   C72       1.0  0.38050  0.72530  0.89190  1.0000 0.0885307045
C   C73       1.0  0.48700  0.71020  0.66790  1.0000 0.0885307045
C   C74       1.0  0.28980  0.51300  0.16790  1.0000 0.0885307045
C   C75       1.0  0.51830  0.69670  0.63710  1.0000 -0.1701920699
C   C76       1.0  0.30330  0.48170  0.13710  1.0000 -0.1701920699
C   C77       1.0  0.59070  0.77510  0.61050  1.0000 0.0815007557
C   C78       1.0  0.22490  0.40930  0.11050  1.0000 0.0815007557
C   C79       1.0  0.62420  0.86460  0.61420  1.0000 -0.1249864905
C   C80       1.0  0.13540  0.37580  0.11420  1.0000 -0.1302565891
C   C81       1.0  0.58800  0.87300  0.64550  1.0000 0.0627518117
C   C82       1.0  0.12700  0.41200  0.14550  1.0000 0.0627518117
C   C83       1.0  0.63450  0.76470  0.57940  1.0000 0.3854250701
C   C84       1.0  0.23530  0.36550  0.07940  1.0000 0.3854250701
C   C85       1.0  0.64060  0.67200  0.54970  1.0000 0.375866171
C   C86       1.0  0.32800  0.35940  0.04970  1.0000 0.375866171
C   C87       1.0  0.73260  0.82960  0.52330  1.0000 0.375866171
C   C88       1.0  0.17040  0.26740  0.02330  1.0000 0.3720757323
C   C89       1.0  0.59090  0.46090  0.52000  1.0000 0.0815007557
C   C90       1.0  0.53910  0.40910  0.02000  1.0000 0.0815007557
C   C91       1.0  0.61690  0.54890  0.51490  1.0000 -0.1580492763
C   C92       1.0  0.45110  0.38310  0.01490  1.0000 -0.1580492763
C   C93       1.0  0.61460  0.57720  0.55320  1.0000 0.0627518117
C   C94       1.0  0.42280  0.38540  0.05320  1.0000 0.0627518117
C   C95       1.0  0.59490  0.52510  0.59360  1.0000 -0.1383675544
C   C96       1.0  0.47490  0.40510  0.09360  1.0000 -0.1383675544
C   C97       1.0  0.57430  0.44150  0.59470  1.0000 0.0815007557
C   C98       1.0  0.55850  0.42570  0.09470  1.0000 0.0815007557
C   C99       1.0  0.90220  0.08020  0.46460  1.0000 0.0721618415
C   C100      1.0  0.91980  0.09780  0.96460  1.0000 0.0721618415
C   C101      1.0  0.82570  0.99970  0.49000  1.0000 -0.1302565891
C   C102      1.0  0.00030  0.17430  0.99000  1.0000 -0.1302565891
C   C103      1.0  0.80820  0.91620  0.49490  1.0000 0.0468027049
C   C104      1.0  0.08380  0.19180  0.99490  1.0000 0.0468027049
C   C105      1.0  0.86010  0.91250  0.47200  1.0000 -0.1383675544
C   C106      1.0  0.08750  0.13990  0.97200  1.0000 -0.1383675544
C   C107      1.0  0.93600  0.00000  0.44710  1.0000 0.0721618415
C   C108      1.0  0.00000  0.06400  0.94710  1.0000 0.0721618415
C   C109      1.0  0.87850  0.08790  0.33870  1.0000 0.0885307045
C   C110      1.0  0.91210  0.12150  0.83870  1.0000 0.0885307045
C   C111      1.0  0.80270  0.06050  0.30750  1.0000 -0.1383675544
C   C112      1.0  0.93950  0.19730  0.80750  1.0000 -0.1383675544
C   C113      1.0  0.80040  0.12840  0.28880  1.0000 0.0721618415
C   C114      1.0  0.87160  0.19960  0.78880  1.0000 0.0721618415
C   C115      1.0  0.87880  0.22680  0.30070  1.0000 -0.1580492763
C   C116      1.0  0.77320  0.12120  0.80070  1.0000 -0.1580492763
C   C117      1.0  0.95100  0.24780  0.33240  1.0000 0.0885307045
C   C118      1.0  0.75220  0.04900  0.83240  1.0000 0.0885307045
C   C119      1.0  0.71800  0.10040  0.25590  1.0000 0.3720757323
C   C120      1.0  0.89960  0.28200  0.75590  1.0000 0.3720757323
C   C121      1.0  0.57420  0.98440  0.21980  1.0000 0.3555207492
C   C122      1.0  0.01560  0.42580  0.71980  1.0000 0.3555207492
C   C123      1.0  0.65470  0.14030  0.20050  1.0000 0.3720757323
C   C124      1.0  0.85970  0.34530  0.70050  1.0000 0.3720757323
C   C125      1.0  0.31420  0.73780  0.19450  1.0000 0.0815007557
C   C126      1.0  0.26220  0.68580  0.69450  1.0000 0.0815007557
C   C127      1.0  0.39720  0.83620  0.19210  1.0000 -0.1701920699
C   C128      1.0  0.16380  0.60280  0.69210  1.0000 -0.1701920699
C   C129      1.0  0.48250  0.87450  0.21800  1.0000 0.0885307045
C   C130      1.0  0.12550  0.51750  0.71800  1.0000 0.0885307045
C   C131      1.0  0.47990  0.80770  0.24570  1.0000 -0.1488930548
C   C132      1.0  0.19230  0.52010  0.74570  1.0000 -0.1488930548
C   C133      1.0  0.39570  0.70890  0.24620  1.0000 0.0721618415
C   C134      1.0  0.29110  0.60430  0.74620  1.0000 0.0721618415
C   C135      1.0  0.76400  0.39000  0.15100  1.0000 0.0815007557
C   C136      1.0  0.61000  0.23600  0.65100  1.0000 0.0815007557
C   C137      1.0  0.75080  0.31700  0.17790  1.0000 -0.1488930548
C   C138      1.0  0.68300  0.24920  0.67790  1.0000 -0.1488930548
C   C139      1.0  0.66800  0.22040  0.17050  1.0000 0.0721618415
C   C140      1.0  0.77960  0.33200  0.67050  1.0000 0.0721618415
C   C141      1.0  0.60130  0.19890  0.13550  1.0000 -0.1383675544
C   C142      1.0  0.80110  0.39870  0.63550  1.0000 -0.1383675544
C   C143      1.0  0.61950  0.27470  0.10810  1.0000 0.0885307045
C   C144      1.0  0.72530  0.38050  0.60810  1.0000 0.0885307045
I   I1        1.0  0.96621  0.51311  0.79400  1.0000 -0.4373241738
I   I2        1.0  0.48689  0.03379  0.29400  1.0000 -0.4373241738
I   I3        1.0  0.78200  0.54638  0.70235  1.0000 -0.4331076894
I   I4        1.0  0.45362  0.21800  0.20235  1.0000 -0.4373241738
I   I5        1.0  0.16302  0.36870  0.88619  1.0000 -0.4559831603
I   I6        1.0  0.63130  0.83698  0.38619  1.0000 -0.4559831603
I   I7        1.0  0.22267  0.52785  0.99908  1.0000 -0.4331076894
I   I8        1.0  0.47215  0.77733  0.49908  1.0000 -0.4331076894
I   I9        1.0  0.35012  0.13348  0.05794  1.0000 -0.4331076894
I   I10       1.0  0.86652  0.64988  0.55794  1.0000 -0.4331076894
I   I11       1.0  0.17175  0.13907  0.13386  1.0000 -0.4373241738
I   I12       1.0  0.86093  0.82825  0.63386  1.0000 -0.4373241738
I   I13       1.0  0.51311  0.96621  0.70600  1.0000 -0.4373241738
I   I14       1.0  0.03379  0.48689  0.20600  1.0000 -0.4373241738
I   I15       1.0  0.54638  0.78200  0.79765  1.0000 -0.4331076894
I   I16       1.0  0.21800  0.45362  0.29765  1.0000 -0.4331076894
I   I17       1.0  0.36870  0.16302  0.61381  1.0000 -0.4559831603
I   I18       1.0  0.83698  0.63130  0.11381  1.0000 -0.4559831603
I   I19       1.0  0.52785  0.22267  0.50092  1.0000 -0.4331076894
I   I20       1.0  0.77733  0.47215  0.00092  1.0000 -0.4331076894
I   I21       1.0  0.13348  0.35012  0.44206  1.0000 -0.4331076894
I   I22       1.0  0.64988  0.86652  0.94206  1.0000 -0.4331076894
I   I23       1.0  0.13907  0.17175  0.36614  1.0000 -0.4373241738
I   I24       1.0  0.82825  0.86093  0.86614  1.0000 -0.4373241738
N   N1        1.0  0.79410  0.52190  0.82590  1.0000 -0.1785516872
N   N2        1.0  0.47810  0.20590  0.32590  1.0000 -0.1785516872
N   N3        1.0  0.67640  0.60100  0.92070  1.0000 -0.4048516958
N   N4        1.0  0.39900  0.32360  0.42070  1.0000 -0.4052430002
N   N5        1.0  0.74480  0.70440  0.97940  1.0000 -0.3907316415
N   N6        1.0  0.29560  0.25520  0.47940  1.0000 -0.3907316415
N   N7        1.0  0.84320  0.69880  0.94800  1.0000 -0.3907316415
N   N8        1.0  0.30120  0.15680  0.44800  1.0000 -0.3907316415
N   N9        1.0  0.40700  0.56860  0.94110  1.0000 -0.1921219921
N   N10       1.0  0.43140  0.59300  0.44110  1.0000 -0.1921219921
N   N11       1.0  0.08140  0.95520  0.05800  1.0000 -0.1921219921
N   N12       1.0  0.04480  0.91860  0.55800  1.0000 -0.1921219921
N   N13       1.0  0.17920  0.94960  0.14890  1.0000 -0.1701920699
N   N14       1.0  0.05040  0.82080  0.64890  1.0000 -0.1701920699
N   N15       1.0  0.00450  0.64350  0.24890  1.0000 -0.3907316415
N   N16       1.0  0.35650  0.99550  0.74890  1.0000 -0.3907316415
N   N17       1.0  0.04680  0.57480  0.30760  1.0000 -0.3907316415
N   N18       1.0  0.42520  0.95320  0.80760  1.0000 -0.3907316415
N   N19       1.0  0.17320  0.72780  0.26680  1.0000 -0.3907316415
N   N20       1.0  0.27220  0.82680  0.76680  1.0000 -0.3907316415
N   N21       1.0  0.67450  0.31430  0.27930  1.0000 -0.1785516872
N   N22       1.0  0.68570  0.32550  0.77930  1.0000 -0.1785516872
N   N23       1.0  0.36870  0.70150  0.38430  1.0000 -0.1785516872
N   N24       1.0  0.29850  0.63130  0.88430  1.0000 -0.1785516872
N   N25       1.0  0.52190  0.79410  0.67410  1.0000 -0.1785516872
N   N26       1.0  0.20590  0.47810  0.17410  1.0000 -0.1785516872
N   N27       1.0  0.60100  0.67640  0.57930  1.0000 -0.4048516958
N   N28       1.0  0.32360  0.39900  0.07930  1.0000 -0.4048516958
N   N29       1.0  0.70440  0.74480  0.52060  1.0000 -0.3907316415
N   N30       1.0  0.25520  0.29560  0.02060  1.0000 -0.3907316415
N   N31       1.0  0.69880  0.84320  0.55200  1.0000 -0.3907316415
N   N32       1.0  0.15680  0.30120  0.05200  1.0000 -0.3907316415
N   N33       1.0  0.56860  0.40700  0.55890  1.0000 -0.1921219921
N   N34       1.0  0.59300  0.43140  0.05890  1.0000 -0.1921219921
N   N35       1.0  0.95520  0.08140  0.44200  1.0000 -0.1921219921
N   N36       1.0  0.91860  0.04480  0.94200  1.0000 -0.1921219921
N   N37       1.0  0.94960  0.17920  0.35110  1.0000 -0.1701920699
N   N38       1.0  0.82080  0.05040  0.85110  1.0000 -0.1701920699
N   N39       1.0  0.64350  0.00450  0.25110  1.0000 -0.3907316415
N   N40       1.0  0.99550  0.35650  0.75110  1.0000 -0.3907316415
N   N41       1.0  0.57480  0.04680  0.19240  1.0000 -0.3907316415
N   N42       1.0  0.95320  0.42520  0.69240  1.0000 -0.3907316415
N   N43       1.0  0.72780  0.17320  0.23320  1.0000 -0.3907316415
N   N44       1.0  0.82680  0.27220  0.73320  1.0000 -0.3907316415
N   N45       1.0  0.31430  0.67450  0.22070  1.0000 -0.1785516872
N   N46       1.0  0.32550  0.68570  0.72070  1.0000 -0.1785516872
N   N47       1.0  0.70150  0.36870  0.11570  1.0000 -0.1785516872
N   N48       1.0  0.63130  0.29850  0.61570  1.0000 -0.1785516872
