# DDEC6 charges by PACMAN v1.1 (https://github.com/mtap-research/PACMAN-charge/)
data_2013[Zn][nan]3[FSR]19
_chemical_formula_sum              "Zn8 H96 C120 N16 O32"
_cell_length_a       20.0139
_cell_length_b       20.0139
_cell_length_c       12.3111
_cell_angle_alpha    84.8773
_cell_angle_beta     95.1227
_cell_angle_gamma    77.4477

_symmetry_space_group_name_H-M    "P 1"
_symmetry_Int_Tables_number       1

loop_
  _symmetry_equiv_pos_as_xyz
  'x, y, z'

loop_
  _atom_site_type_symbol
  _atom_site_label
  _atom_site_symmetry_multiplicity
  _atom_site_fract_x
  _atom_site_fract_y
  _atom_site_fract_z
  _atom_site_occupancy
  _atom_site_charge
Zn  Zn1       1.0  0.52985  0.98245  0.90189  1.0000 0.8123753222
Zn  Zn2       1.0  0.98245  0.52985  0.59811  1.0000 0.8123753222
Zn  Zn3       1.0  0.47014  0.01755  0.09811  1.0000 0.8123753222
Zn  Zn4       1.0  0.01754  0.47015  0.40189  1.0000 0.8123753222
Zn  Zn5       1.0  0.79165  0.94257  0.70379  1.0000 0.8412500771
Zn  Zn6       1.0  0.94257  0.79165  0.79621  1.0000 0.8412500771
Zn  Zn7       1.0  0.20835  0.05743  0.29621  1.0000 0.8412500771
Zn  Zn8       1.0  0.05743  0.20835  0.20379  1.0000 0.8412500771
H   H1        1.0  0.67350  0.92950  0.84490  1.0000 0.1111262733
H   H2        1.0  0.92950  0.67350  0.65510  1.0000 0.1111262733
H   H3        1.0  0.32650  0.07050  0.15510  1.0000 0.1111262733
H   H4        1.0  0.07050  0.32650  0.34490  1.0000 0.1111262733
H   H5        1.0  0.65360  0.00520  0.78680  1.0000 0.1210060204
H   H6        1.0  0.00520  0.65360  0.71320  1.0000 0.1210060204
H   H7        1.0  0.34640  0.99480  0.21320  1.0000 0.1210060204
H   H8        1.0  0.99480  0.34640  0.28680  1.0000 0.1210060204
H   H9        1.0  0.54540  0.04600  0.66880  1.0000 0.1111262733
H   H10       1.0  0.04600  0.54540  0.83120  1.0000 0.1111262733
H   H11       1.0  0.45460  0.95400  0.33120  1.0000 0.1111262733
H   H12       1.0  0.95400  0.45460  0.16880  1.0000 0.1111262733
H   H13       1.0  0.49570  0.99630  0.65020  1.0000 0.0997554736
H   H14       1.0  0.99630  0.49570  0.84980  1.0000 0.0997554736
H   H15       1.0  0.50430  0.00370  0.34980  1.0000 0.0997554736
H   H16       1.0  0.00370  0.50430  0.15020  1.0000 0.0997554736
H   H17       1.0  0.52660  0.87820  0.73940  1.0000 0.1111262733
H   H18       1.0  0.87820  0.52660  0.76060  1.0000 0.1111262733
H   H19       1.0  0.47340  0.12180  0.26060  1.0000 0.1111262733
H   H20       1.0  0.12180  0.47340  0.23940  1.0000 0.1111262733
H   H21       1.0  0.59650  0.85190  0.81510  1.0000 0.1111262733
H   H22       1.0  0.85190  0.59650  0.68490  1.0000 0.1111262733
H   H23       1.0  0.40350  0.14810  0.18490  1.0000 0.1111262733
H   H24       1.0  0.14810  0.40350  0.31510  1.0000 0.1111262733
H   H25       1.0  0.67200  0.96600  0.52020  1.0000 0.1111262733
H   H26       1.0  0.96600  0.67200  0.97980  1.0000 0.1111262733
H   H27       1.0  0.32800  0.03400  0.47980  1.0000 0.1111262733
H   H28       1.0  0.03400  0.32800  0.02020  1.0000 0.1111262733
H   H29       1.0  0.65240  0.02720  0.59100  1.0000 0.1111262733
H   H30       1.0  0.02720  0.65240  0.90900  1.0000 0.1111262733
H   H31       1.0  0.34760  0.97280  0.40900  1.0000 0.1111262733
H   H32       1.0  0.97280  0.34760  0.09100  1.0000 0.1111262733
H   H33       1.0  0.52630  0.90350  0.54530  1.0000 0.0997554736
H   H34       1.0  0.90350  0.52630  0.95470  1.0000 0.0997554736
H   H35       1.0  0.47370  0.09650  0.45470  1.0000 0.0997554736
H   H36       1.0  0.09650  0.47370  0.04530  1.0000 0.0997554736
H   H37       1.0  0.59610  0.89130  0.49350  1.0000 0.0997554736
H   H38       1.0  0.89130  0.59610  0.00650  1.0000 0.0997554736
H   H39       1.0  0.40390  0.10870  0.50650  1.0000 0.0997554736
H   H40       1.0  0.10870  0.40390  0.99350  1.0000 0.0997554736
H   H41       1.0  0.70270  0.83310  0.73690  1.0000 0.1111262733
H   H42       1.0  0.83310  0.70270  0.76310  1.0000 0.1111262733
H   H43       1.0  0.29730  0.16690  0.26310  1.0000 0.1111262733
H   H44       1.0  0.16690  0.29730  0.23690  1.0000 0.1111262733
H   H45       1.0  0.70280  0.84700  0.60940  1.0000 0.1111262733
H   H46       1.0  0.84700  0.70280  0.89060  1.0000 0.1111262733
H   H47       1.0  0.29720  0.15300  0.39060  1.0000 0.1111262733
H   H48       1.0  0.15300  0.29720  0.10940  1.0000 0.1111262733
H   H49       1.0  0.38660  0.86200  0.78270  1.0000 0.1210060204
H   H50       1.0  0.86200  0.38660  0.71730  1.0000 0.1210060204
H   H51       1.0  0.61340  0.13800  0.21730  1.0000 0.1210060204
H   H52       1.0  0.13800  0.61340  0.28270  1.0000 0.1210060204
H   H53       1.0  0.29950  0.80990  0.73420  1.0000 0.1210060204
H   H54       1.0  0.80990  0.29950  0.76580  1.0000 0.1210060204
H   H55       1.0  0.70050  0.19010  0.26580  1.0000 0.1210060204
H   H56       1.0  0.19010  0.70050  0.23420  1.0000 0.1210060204
H   H57       1.0  0.18830  0.77990  0.77140  1.0000 0.1210060204
H   H58       1.0  0.77990  0.18830  0.72860  1.0000 0.1210060204
H   H59       1.0  0.81170  0.22010  0.22860  1.0000 0.1210060204
H   H60       1.0  0.22010  0.81170  0.27140  1.0000 0.1210060204
H   H61       1.0  0.09870  0.84230  0.03260  1.0000 0.1210060204
H   H62       1.0  0.84230  0.09870  0.46740  1.0000 0.1210060204
H   H63       1.0  0.90130  0.15770  0.96740  1.0000 0.1210060204
H   H64       1.0  0.15770  0.90130  0.53260  1.0000 0.1210060204
H   H65       1.0  0.19020  0.88740  0.08930  1.0000 0.1283794122
H   H66       1.0  0.88740  0.19020  0.41070  1.0000 0.1283794122
H   H67       1.0  0.80980  0.11260  0.91070  1.0000 0.1283794122
H   H68       1.0  0.11260  0.80980  0.58930  1.0000 0.1283794122
H   H69       1.0  0.30270  0.91490  0.05440  1.0000 0.1283794122
H   H70       1.0  0.91490  0.30270  0.44560  1.0000 0.1283794122
H   H71       1.0  0.69730  0.08510  0.94560  1.0000 0.1283794122
H   H72       1.0  0.08510  0.69730  0.55440  1.0000 0.1283794122
H   H73       1.0  0.60790  0.86010  0.32450  1.0000 0.1111262733
H   H74       1.0  0.86010  0.60790  0.17550  1.0000 0.1111262733
H   H75       1.0  0.39210  0.13990  0.67550  1.0000 0.1111262733
H   H76       1.0  0.13990  0.39210  0.82450  1.0000 0.1111262733
H   H77       1.0  0.68010  0.79310  0.05270  1.0000 0.1210060204
H   H78       1.0  0.79310  0.68010  0.44730  1.0000 0.1210060204
H   H79       1.0  0.31990  0.20690  0.94730  1.0000 0.1210060204
H   H80       1.0  0.20690  0.31990  0.55270  1.0000 0.1210060204
H   H81       1.0  0.69030  0.77870  0.43040  1.0000 0.1111262733
H   H82       1.0  0.77870  0.69030  0.06960  1.0000 0.1111262733
H   H83       1.0  0.30970  0.22130  0.56960  1.0000 0.1111262733
H   H84       1.0  0.22130  0.30970  0.93040  1.0000 0.1111262733
H   H85       1.0  0.75090  0.95750  0.03440  1.0000 0.1210060204
H   H86       1.0  0.95750  0.75090  0.46560  1.0000 0.1210060204
H   H87       1.0  0.24910  0.04250  0.96560  1.0000 0.1210060204
H   H88       1.0  0.04250  0.24910  0.53440  1.0000 0.1210060204
H   H89       1.0  0.91040  0.79280  0.08880  1.0000 0.1210060204
H   H90       1.0  0.79280  0.91040  0.41120  1.0000 0.1210060204
H   H91       1.0  0.08960  0.20720  0.91120  1.0000 0.1210060204
H   H92       1.0  0.20720  0.08960  0.58880  1.0000 0.1210060204
H   H93       1.0  0.74610  0.95850  0.21900  1.0000 0.1210060204
H   H94       1.0  0.95850  0.74610  0.28100  1.0000 0.1210060204
H   H95       1.0  0.25390  0.04150  0.78100  1.0000 0.1210060204
H   H96       1.0  0.04150  0.25390  0.71900  1.0000 0.1210060204
C   C1        1.0  0.65071  0.95817  0.77850  1.0000 -0.028217176
C   C2        1.0  0.95817  0.65071  0.72150  1.0000 -0.028217176
C   C3        1.0  0.34929  0.04183  0.22150  1.0000 -0.028217176
C   C4        1.0  0.04183  0.34929  0.27850  1.0000 -0.028217176
C   C5        1.0  0.54367  0.99853  0.66130  1.0000 -0.028217176
C   C6        1.0  0.99853  0.54367  0.83870  1.0000 -0.028217176
C   C7        1.0  0.45633  0.00147  0.33870  1.0000 -0.028217176
C   C8        1.0  0.00147  0.45633  0.16130  1.0000 -0.028217176
C   C9        1.0  0.57438  0.88162  0.74940  1.0000 -0.028217176
C   C10       1.0  0.88162  0.57438  0.75060  1.0000 -0.028217176
C   C11       1.0  0.42562  0.11838  0.25060  1.0000 -0.028217176
C   C12       1.0  0.11838  0.42562  0.24940  1.0000 -0.028217176
C   C13       1.0  0.64958  0.98000  0.58370  1.0000 -0.028217176
C   C14       1.0  0.98000  0.64958  0.91630  1.0000 -0.028217176
C   C15       1.0  0.35042  0.02000  0.41630  1.0000 -0.028217176
C   C16       1.0  0.02000  0.35042  0.08370  1.0000 -0.028217176
C   C17       1.0  0.57417  0.90617  0.55710  1.0000 -0.0358256491
C   C18       1.0  0.90617  0.57417  0.94290  1.0000 -0.0358256491
C   C19       1.0  0.42583  0.09383  0.44290  1.0000 -0.0358256491
C   C20       1.0  0.09383  0.42583  0.05710  1.0000 -0.0358256491
C   C21       1.0  0.67997  0.86301  0.67160  1.0000 -0.028217176
C   C22       1.0  0.86301  0.67997  0.82840  1.0000 -0.028217176
C   C23       1.0  0.32003  0.13699  0.32840  1.0000 -0.028217176
C   C24       1.0  0.13699  0.32003  0.17160  1.0000 -0.028217176
C   C25       1.0  0.40940  0.93040  0.95310  1.0000 0.5810807349
C   C26       1.0  0.93040  0.40940  0.54690  1.0000 0.5810807349
C   C27       1.0  0.59060  0.06960  0.04690  1.0000 0.5810807349
C   C28       1.0  0.06960  0.59060  0.45310  1.0000 0.5810807349
C   C29       1.0  0.35256  0.89472  0.92370  1.0000 -0.0242072746
C   C30       1.0  0.89472  0.35256  0.57630  1.0000 -0.0242072746
C   C31       1.0  0.64744  0.10528  0.07630  1.0000 -0.0242072746
C   C32       1.0  0.10528  0.64744  0.42370  1.0000 -0.0242072746
C   C33       1.0  0.35135  0.86235  0.82720  1.0000 -0.1277839968
C   C34       1.0  0.86235  0.35135  0.67280  1.0000 -0.1277839968
C   C35       1.0  0.64865  0.13765  0.17280  1.0000 -0.1277839968
C   C36       1.0  0.13765  0.64865  0.32720  1.0000 -0.1277839968
C   C37       1.0  0.29922  0.83142  0.79820  1.0000 -0.1502561278
C   C38       1.0  0.83142  0.29922  0.70180  1.0000 -0.1502561278
C   C39       1.0  0.70078  0.16858  0.20180  1.0000 -0.1409645674
C   C40       1.0  0.16858  0.70078  0.29820  1.0000 -0.1502561278
C   C41       1.0  0.24477  0.83143  0.86330  1.0000 0.0787076467
C   C42       1.0  0.83143  0.24477  0.63670  1.0000 0.0787076467
C   C43       1.0  0.75523  0.16857  0.13670  1.0000 0.0787076467
C   C44       1.0  0.16857  0.75523  0.36330  1.0000 0.0787076467
C   C45       1.0  0.18871  0.80245  0.83420  1.0000 -0.1502561278
C   C46       1.0  0.80245  0.18871  0.66580  1.0000 -0.1502561278
C   C47       1.0  0.81129  0.19755  0.16580  1.0000 -0.1502561278
C   C48       1.0  0.19755  0.81129  0.33420  1.0000 -0.1502561278
C   C49       1.0  0.13492  0.80664  0.89550  1.0000 -0.0141486021
C   C50       1.0  0.80664  0.13492  0.60450  1.0000 -0.0141486021
C   C51       1.0  0.86508  0.19336  0.10450  1.0000 -0.0141486021
C   C52       1.0  0.19336  0.86508  0.39550  1.0000 -0.0141486021
C   C53       1.0  0.13561  0.83923  0.99100  1.0000 -0.1092016006
C   C54       1.0  0.83923  0.13561  0.50900  1.0000 -0.1092016006
C   C55       1.0  0.86439  0.16077  0.00900  1.0000 -0.1092016006
C   C56       1.0  0.16077  0.86439  0.49100  1.0000 -0.1092016006
C   C57       1.0  0.18996  0.86688  0.02450  1.0000 -0.1502561278
C   C58       1.0  0.86688  0.18996  0.47550  1.0000 -0.1502561278
C   C59       1.0  0.81004  0.13312  0.97550  1.0000 -0.1502561278
C   C60       1.0  0.13312  0.81004  0.52450  1.0000 -0.1502561278
C   C61       1.0  0.24566  0.86420  0.96050  1.0000 0.0787076467
C   C62       1.0  0.86420  0.24566  0.53950  1.0000 0.0787076467
C   C63       1.0  0.75434  0.13580  0.03950  1.0000 0.0787076467
C   C64       1.0  0.13580  0.75434  0.46050  1.0000 0.0787076467
C   C65       1.0  0.30111  0.89457  0.98940  1.0000 -0.1502561278
C   C66       1.0  0.89457  0.30111  0.51060  1.0000 -0.1502561278
C   C67       1.0  0.69889  0.10543  0.01060  1.0000 -0.1502561278
C   C68       1.0  0.10543  0.69889  0.48940  1.0000 -0.1502561278
C   C69       1.0  0.07146  0.78342  0.85290  1.0000 0.5442469867
C   C70       1.0  0.78342  0.07146  0.64710  1.0000 0.5442469867
C   C71       1.0  0.92854  0.21658  0.14710  1.0000 0.5442469867
C   C72       1.0  0.21658  0.92854  0.35290  1.0000 0.5442469867
C   C73       1.0  0.58490  0.89372  0.10940  1.0000 0.5810807349
C   C74       1.0  0.89372  0.58490  0.39060  1.0000 0.5810807349
C   C75       1.0  0.41510  0.10628  0.89060  1.0000 0.5810807349
C   C76       1.0  0.10628  0.41510  0.60940  1.0000 0.5810807349
C   C77       1.0  0.63675  0.83615  0.17640  1.0000 -0.0242072746
C   C78       1.0  0.83615  0.63675  0.32360  1.0000 -0.0242072746
C   C79       1.0  0.36325  0.16385  0.82360  1.0000 -0.0242072746
C   C80       1.0  0.16385  0.36325  0.67640  1.0000 -0.0242072746
C   C81       1.0  0.63993  0.82993  0.29120  1.0000 -0.1277839968
C   C82       1.0  0.82993  0.63993  0.20880  1.0000 -0.1277839968
C   C83       1.0  0.36007  0.17007  0.70880  1.0000 -0.1277839968
C   C84       1.0  0.17007  0.36007  0.79120  1.0000 -0.1277839968
C   C85       1.0  0.68234  0.78988  0.12880  1.0000 -0.1560987977
C   C86       1.0  0.78988  0.68234  0.37120  1.0000 -0.1560987977
C   C87       1.0  0.31766  0.21012  0.87120  1.0000 -0.1560987977
C   C88       1.0  0.21012  0.31766  0.62880  1.0000 -0.1560987977
C   C89       1.0  0.73289  0.73709  0.19240  1.0000 0.0787076467
C   C90       1.0  0.73709  0.73289  0.30760  1.0000 0.0787076467
C   C91       1.0  0.26711  0.26291  0.80760  1.0000 0.0787076467
C   C92       1.0  0.26291  0.26711  0.69240  1.0000 0.0787076467
C   C93       1.0  0.68876  0.78080  0.35450  1.0000 -0.1502561278
C   C94       1.0  0.78080  0.68876  0.14550  1.0000 -0.1502561278
C   C95       1.0  0.31124  0.21920  0.64550  1.0000 -0.1560987977
C   C96       1.0  0.21920  0.31124  0.85450  1.0000 -0.1560987977
C   C97       1.0  0.83433  0.87285  0.92270  1.0000 0.5810807349
C   C98       1.0  0.87285  0.83433  0.57730  1.0000 0.5810807349
C   C99       1.0  0.16567  0.12715  0.07730  1.0000 0.5810807349
C   C100      1.0  0.12715  0.16567  0.42270  1.0000 0.5810807349
C   C101      1.0  0.83164  0.87332  0.04390  1.0000 -0.0242072746
C   C102      1.0  0.87332  0.83164  0.45610  1.0000 -0.0242072746
C   C103      1.0  0.16836  0.12668  0.95610  1.0000 -0.0242072746
C   C104      1.0  0.12668  0.16836  0.54390  1.0000 -0.0242072746
C   C105      1.0  0.78176  0.92458  0.08350  1.0000 -0.1092016006
C   C106      1.0  0.92458  0.78176  0.41650  1.0000 -0.1092016006
C   C107      1.0  0.21824  0.07542  0.91650  1.0000 -0.1092016006
C   C108      1.0  0.07542  0.21824  0.58350  1.0000 -0.1092016006
C   C109      1.0  0.87771  0.82589  0.11570  1.0000 -0.1658305673
C   C110      1.0  0.82589  0.87771  0.38430  1.0000 -0.1658305673
C   C111      1.0  0.12229  0.17411  0.88430  1.0000 -0.1658305673
C   C112      1.0  0.17411  0.12229  0.61570  1.0000 -0.1658305673
C   C113      1.0  0.77930  0.92536  0.19350  1.0000 -0.1409645674
C   C114      1.0  0.92536  0.77930  0.30650  1.0000 -0.1409645674
C   C115      1.0  0.22070  0.07464  0.80650  1.0000 -0.1409645674
C   C116      1.0  0.07464  0.22070  0.69350  1.0000 -0.1409645674
C   C117      1.0  0.87682  0.82612  0.23070  1.0000 0.0787076467
C   C118      1.0  0.82612  0.87682  0.26930  1.0000 0.0787076467
C   C119      1.0  0.12318  0.17388  0.76930  1.0000 0.0787076467
C   C120      1.0  0.17388  0.12318  0.73070  1.0000 0.0787076467
N   N1        1.0  0.57718  0.95438  0.76398  1.0000 -0.190827377
N   N2        1.0  0.95438  0.57718  0.73602  1.0000 -0.190827377
N   N3        1.0  0.42282  0.04562  0.23602  1.0000 -0.190827377
N   N4        1.0  0.04562  0.42282  0.26398  1.0000 -0.190827377
N   N5        1.0  0.68662  0.93502  0.68352  1.0000 -0.2048220931
N   N6        1.0  0.93502  0.68662  0.81648  1.0000 -0.2048220931
N   N7        1.0  0.31338  0.06498  0.31648  1.0000 -0.2048220931
N   N8        1.0  0.06498  0.31338  0.18352  1.0000 -0.2048220931
N   N9        1.0  0.57737  0.97677  0.56640  1.0000 -0.1778550743
N   N10       1.0  0.97677  0.57737  0.93360  1.0000 -0.1778550743
N   N11       1.0  0.42263  0.02323  0.43360  1.0000 -0.1778550743
N   N12       1.0  0.02323  0.42263  0.06640  1.0000 -0.1778550743
N   N13       1.0  0.60819  0.85847  0.65560  1.0000 -0.1409645674
N   N14       1.0  0.85847  0.60819  0.84440  1.0000 -0.1409645674
N   N15       1.0  0.39181  0.14153  0.34440  1.0000 -0.1409645674
N   N16       1.0  0.14153  0.39181  0.15560  1.0000 -0.1409645674
O   O1        1.0  0.45411  0.93045  0.88720  1.0000 -0.5450948922
O   O2        1.0  0.93045  0.45411  0.61280  1.0000 -0.5450948922
O   O3        1.0  0.54589  0.06955  0.11280  1.0000 -0.5438103342
O   O4        1.0  0.06955  0.54589  0.38720  1.0000 -0.5450948922
O   O5        1.0  0.40811  0.95875  0.03910  1.0000 -0.5309447297
O   O6        1.0  0.95875  0.40811  0.46090  1.0000 -0.5309447297
O   O7        1.0  0.59189  0.04125  0.96090  1.0000 -0.5309447297
O   O8        1.0  0.04125  0.59189  0.53910  1.0000 -0.5309447297
O   O9        1.0  0.01757  0.80537  0.89610  1.0000 -0.5309447297
O   O10       1.0  0.80537  0.01757  0.60390  1.0000 -0.5309447297
O   O11       1.0  0.98243  0.19463  0.10390  1.0000 -0.5309447297
O   O12       1.0  0.19463  0.98243  0.39610  1.0000 -0.5309447297
O   O13       1.0  0.07249  0.74711  0.77750  1.0000 -0.5438103342
O   O14       1.0  0.74711  0.07249  0.72250  1.0000 -0.5438103342
O   O15       1.0  0.92751  0.25289  0.22250  1.0000 -0.5438103342
O   O16       1.0  0.25289  0.92751  0.27750  1.0000 -0.5438103342
O   O17       1.0  0.58817  0.90179  0.00776  1.0000 -0.5438103342
O   O18       1.0  0.90179  0.58817  0.49224  1.0000 -0.5438103342
O   O19       1.0  0.41183  0.09821  0.99224  1.0000 -0.5438103342
O   O20       1.0  0.09821  0.41183  0.50776  1.0000 -0.5438103342
O   O21       1.0  0.54214  0.93128  0.15980  1.0000 -0.5438103342
O   O22       1.0  0.93128  0.54214  0.34020  1.0000 -0.5438103342
O   O23       1.0  0.45786  0.06872  0.84020  1.0000 -0.5438103342
O   O24       1.0  0.06872  0.45786  0.65980  1.0000 -0.5438103342
O   O25       1.0  0.80216  0.92606  0.86306  1.0000 -0.5309447297
O   O26       1.0  0.92606  0.80216  0.63694  1.0000 -0.5309447297
O   O27       1.0  0.19784  0.07394  0.13694  1.0000 -0.5309447297
O   O28       1.0  0.07394  0.19784  0.36306  1.0000 -0.5309447297
O   O29       1.0  0.86690  0.81952  0.88826  1.0000 -0.5763531176
O   O30       1.0  0.81952  0.86690  0.61174  1.0000 -0.5763531176
O   O31       1.0  0.13310  0.18048  0.11174  1.0000 -0.5763531176
O   O32       1.0  0.18048  0.13310  0.38826  1.0000 -0.5763531176
