# DDEC6 charges by PACMAN v1.1 (https://github.com/mtap-research/PACMAN-charge/)
data_2013[Zn][nan]3[FSR]17
_chemical_formula_sum              "Zn16 H216 C264 N32 O72"
_cell_length_a       12.0746
_cell_length_b       31.4093
_cell_length_c       26.0824
_cell_angle_alpha    90
_cell_angle_beta     111.065
_cell_angle_gamma    90

_symmetry_space_group_name_H-M    "P 1"
_symmetry_Int_Tables_number       1

loop_
  _symmetry_equiv_pos_as_xyz
  'x, y, z'

loop_
  _atom_site_type_symbol
  _atom_site_label
  _atom_site_symmetry_multiplicity
  _atom_site_fract_x
  _atom_site_fract_y
  _atom_site_fract_z
  _atom_site_occupancy
  _atom_site_charge
Zn  Zn1       1.0  0.38021  0.26391  0.78943  1.0000 0.8105186452
Zn  Zn2       1.0  0.61979  0.76391  0.71057  1.0000 0.8105186452
Zn  Zn3       1.0  0.61979  0.73609  0.21057  1.0000 0.8105186452
Zn  Zn4       1.0  0.38021  0.23609  0.28943  1.0000 0.8105186452
Zn  Zn5       1.0  0.12908  0.27554  0.74175  1.0000 0.8188608219
Zn  Zn6       1.0  0.87092  0.77554  0.75825  1.0000 0.8188608219
Zn  Zn7       1.0  0.87092  0.72446  0.25825  1.0000 0.8188608219
Zn  Zn8       1.0  0.12908  0.22446  0.24175  1.0000 0.8188608219
Zn  Zn9       1.0  0.73134  0.35640  0.42792  1.0000 0.8105186452
Zn  Zn10      1.0  0.26866  0.85640  0.07208  1.0000 0.8105186452
Zn  Zn11      1.0  0.26866  0.64360  0.57208  1.0000 0.8105186452
Zn  Zn12      1.0  0.73134  0.14360  0.92792  1.0000 0.8105186452
Zn  Zn13      1.0  0.78432  0.38537  0.58288  1.0000 0.776681893
Zn  Zn14      1.0  0.21568  0.88537  0.91712  1.0000 0.776681893
Zn  Zn15      1.0  0.21568  0.61463  0.41712  1.0000 0.776681893
Zn  Zn16      1.0  0.78432  0.11463  0.08288  1.0000 0.776681893
H   H1        1.0  0.54050  0.18700  0.83310  1.0000 0.120108843
H   H2        1.0  0.45950  0.68700  0.66690  1.0000 0.120108843
H   H3        1.0  0.45950  0.81300  0.16690  1.0000 0.120108843
H   H4        1.0  0.54050  0.31300  0.33310  1.0000 0.120108843
H   H5        1.0  0.54220  0.21320  0.88610  1.0000 0.1110300682
H   H6        1.0  0.45780  0.71320  0.61390  1.0000 0.1110300682
H   H7        1.0  0.45780  0.78680  0.11390  1.0000 0.1110300682
H   H8        1.0  0.54220  0.28680  0.38610  1.0000 0.1110300682
H   H9        1.0  0.60610  0.27290  0.76200  1.0000 0.0996009507
H   H10       1.0  0.39390  0.77290  0.73800  1.0000 0.0996009507
H   H11       1.0  0.39390  0.72710  0.23800  1.0000 0.0996009507
H   H12       1.0  0.60610  0.22710  0.26200  1.0000 0.0996009507
H   H13       1.0  0.57830  0.22290  0.75820  1.0000 0.120108843
H   H14       1.0  0.42170  0.72290  0.74180  1.0000 0.120108843
H   H15       1.0  0.42170  0.77710  0.24180  1.0000 0.120108843
H   H16       1.0  0.57830  0.27710  0.25820  1.0000 0.120108843
H   H17       1.0  0.58680  0.28940  0.89270  1.0000 0.120108843
H   H18       1.0  0.41320  0.78940  0.60730  1.0000 0.120108843
H   H19       1.0  0.41320  0.71060  0.10730  1.0000 0.120108843
H   H20       1.0  0.58680  0.21060  0.39270  1.0000 0.120108843
H   H21       1.0  0.61030  0.31330  0.84330  1.0000 0.1110300682
H   H22       1.0  0.38970  0.81330  0.65670  1.0000 0.1110300682
H   H23       1.0  0.38970  0.68670  0.15670  1.0000 0.1110300682
H   H24       1.0  0.61030  0.18670  0.34330  1.0000 0.1110300682
H   H25       1.0  0.72210  0.17440  0.81610  1.0000 0.1110300682
H   H26       1.0  0.27790  0.67440  0.68390  1.0000 0.1110300682
H   H27       1.0  0.27790  0.82560  0.18390  1.0000 0.1110300682
H   H28       1.0  0.72210  0.32560  0.31610  1.0000 0.1110300682
H   H29       1.0  0.84610  0.19190  0.85810  1.0000 0.1110300682
H   H30       1.0  0.15390  0.69190  0.64190  1.0000 0.1110300682
H   H31       1.0  0.15390  0.80810  0.14190  1.0000 0.1110300682
H   H32       1.0  0.84610  0.30810  0.35810  1.0000 0.1110300682
H   H33       1.0  0.85070  0.23240  0.93960  1.0000 0.1110300682
H   H34       1.0  0.14930  0.73240  0.56040  1.0000 0.1110300682
H   H35       1.0  0.14930  0.76760  0.06040  1.0000 0.1110300682
H   H36       1.0  0.85070  0.26760  0.43960  1.0000 0.1110300682
H   H37       1.0  0.73010  0.24140  0.95020  1.0000 0.1110300682
H   H38       1.0  0.26990  0.74140  0.54980  1.0000 0.1110300682
H   H39       1.0  0.26990  0.75860  0.04980  1.0000 0.1110300682
H   H40       1.0  0.73010  0.25860  0.45020  1.0000 0.1110300682
H   H41       1.0  0.88600  0.26730  0.86420  1.0000 0.0996009507
H   H42       1.0  0.11400  0.76730  0.63580  1.0000 0.0996009507
H   H43       1.0  0.11400  0.73270  0.13580  1.0000 0.0996009507
H   H44       1.0  0.88600  0.23270  0.36420  1.0000 0.0996009507
H   H45       1.0  0.78890  0.29940  0.82550  1.0000 0.0996009507
H   H46       1.0  0.21110  0.79940  0.67450  1.0000 0.0996009507
H   H47       1.0  0.21110  0.70060  0.17450  1.0000 0.0996009507
H   H48       1.0  0.78890  0.20060  0.32550  1.0000 0.0996009507
H   H49       1.0  0.97700  0.32150  0.64120  1.0000 0.120108843
H   H50       1.0  0.02300  0.82150  0.85880  1.0000 0.120108843
H   H51       1.0  0.02300  0.67850  0.35880  1.0000 0.120108843
H   H52       1.0  0.97700  0.17850  0.14120  1.0000 0.120108843
H   H53       1.0  0.96000  0.34910  0.68950  1.0000 0.120108843
H   H54       1.0  0.04000  0.84910  0.81050  1.0000 0.120108843
H   H55       1.0  0.04000  0.65090  0.31050  1.0000 0.120108843
H   H56       1.0  0.96000  0.15090  0.18950  1.0000 0.120108843
H   H57       1.0  0.91300  0.22150  0.68650  1.0000 0.1110300682
H   H58       1.0  0.08700  0.72150  0.81350  1.0000 0.1110300682
H   H59       1.0  0.08700  0.77850  0.31350  1.0000 0.1110300682
H   H60       1.0  0.91300  0.27850  0.18650  1.0000 0.1110300682
H   H61       1.0  0.94680  0.24380  0.63890  1.0000 0.120108843
H   H62       1.0  0.05320  0.74380  0.86110  1.0000 0.120108843
H   H63       1.0  0.05320  0.75620  0.36110  1.0000 0.120108843
H   H64       1.0  0.94680  0.25620  0.13890  1.0000 0.120108843
H   H65       1.0  0.90850  0.31490  0.76140  1.0000 0.1110300682
H   H66       1.0  0.09150  0.81490  0.73860  1.0000 0.1110300682
H   H67       1.0  0.09150  0.68510  0.23860  1.0000 0.1110300682
H   H68       1.0  0.90850  0.18510  0.26140  1.0000 0.1110300682
H   H69       1.0  0.89080  0.26430  0.76070  1.0000 0.0996009507
H   H70       1.0  0.10920  0.76430  0.73930  1.0000 0.0996009507
H   H71       1.0  0.10920  0.73570  0.23930  1.0000 0.0996009507
H   H72       1.0  0.89080  0.23570  0.26070  1.0000 0.0996009507
H   H73       1.0  0.80510  0.28750  0.57260  1.0000 0.1110300682
H   H74       1.0  0.19490  0.78750  0.92740  1.0000 0.1110300682
H   H75       1.0  0.19490  0.71250  0.42740  1.0000 0.1110300682
H   H76       1.0  0.80510  0.21250  0.07260  1.0000 0.1110300682
H   H77       1.0  0.67600  0.29410  0.57550  1.0000 0.0945100714
H   H78       1.0  0.32400  0.79410  0.92450  1.0000 0.0945100714
H   H79       1.0  0.32400  0.70590  0.42450  1.0000 0.0945100714
H   H80       1.0  0.67600  0.20590  0.07550  1.0000 0.0945100714
H   H81       1.0  0.65170  0.33670  0.64900  1.0000 0.1110300682
H   H82       1.0  0.34830  0.83670  0.85100  1.0000 0.1110300682
H   H83       1.0  0.34830  0.66330  0.35100  1.0000 0.1110300682
H   H84       1.0  0.65170  0.16330  0.14900  1.0000 0.1110300682
H   H85       1.0  0.76500  0.35830  0.69430  1.0000 0.1110300682
H   H86       1.0  0.23500  0.85830  0.80570  1.0000 0.1110300682
H   H87       1.0  0.23500  0.64170  0.30570  1.0000 0.1110300682
H   H88       1.0  0.76500  0.14170  0.19430  1.0000 0.1110300682
H   H89       1.0  0.72350  0.23200  0.69260  1.0000 0.0996009507
H   H90       1.0  0.27650  0.73200  0.80740  1.0000 0.0996009507
H   H91       1.0  0.27650  0.76800  0.30740  1.0000 0.0996009507
H   H92       1.0  0.72350  0.26800  0.19260  1.0000 0.0996009507
H   H93       1.0  0.62650  0.26080  0.64800  1.0000 0.0996009507
H   H94       1.0  0.37350  0.76080  0.85200  1.0000 0.0996009507
H   H95       1.0  0.37350  0.73920  0.35200  1.0000 0.0996009507
H   H96       1.0  0.62650  0.23920  0.14800  1.0000 0.0996009507
H   H97       1.0  0.11710  0.23030  0.57530  1.0000 0.120108843
H   H98       1.0  0.88290  0.73030  0.92470  1.0000 0.120108843
H   H99       1.0  0.88290  0.76970  0.42470  1.0000 0.120108843
H   H100      1.0  0.11710  0.26970  0.07530  1.0000 0.120108843
H   H101      1.0  0.04200  0.20410  0.47730  1.0000 0.1110300682
H   H102      1.0  0.95800  0.70410  0.02270  1.0000 0.1110300682
H   H103      1.0  0.95800  0.79590  0.52270  1.0000 0.1110300682
H   H104      1.0  0.04200  0.29590  0.97730  1.0000 0.1110300682
H   H105      1.0  0.06500  0.19960  0.39330  1.0000 0.1110300682
H   H106      1.0  0.93500  0.69960  0.10670  1.0000 0.1110300682
H   H107      1.0  0.93500  0.80040  0.60670  1.0000 0.1110300682
H   H108      1.0  0.06500  0.30040  0.89330  1.0000 0.1110300682
H   H109      1.0  0.38770  0.25490  0.45590  1.0000 0.1110300682
H   H110      1.0  0.61230  0.75490  0.04410  1.0000 0.120108843
H   H111      1.0  0.61230  0.74510  0.54410  1.0000 0.120108843
H   H112      1.0  0.38770  0.24510  0.95590  1.0000 0.1110300682
H   H113      1.0  0.46320  0.27990  0.55310  1.0000 0.0996009507
H   H114      1.0  0.53680  0.77990  0.94690  1.0000 0.0996009507
H   H115      1.0  0.53680  0.72010  0.44690  1.0000 0.0996009507
H   H116      1.0  0.46320  0.22010  0.05310  1.0000 0.0996009507
H   H117      1.0  0.43890  0.28700  0.63640  1.0000 0.1110300682
H   H118      1.0  0.56110  0.78700  0.86360  1.0000 0.1110300682
H   H119      1.0  0.56110  0.71300  0.36360  1.0000 0.1110300682
H   H120      1.0  0.43890  0.21300  0.13640  1.0000 0.1110300682
H   H121      1.0  0.02260  0.14620  0.76090  1.0000 0.120108843
H   H122      1.0  0.97740  0.64620  0.73910  1.0000 0.120108843
H   H123      1.0  0.97740  0.85380  0.23910  1.0000 0.120108843
H   H124      1.0  0.02260  0.35380  0.26090  1.0000 0.120108843
H   H125      1.0  0.99610  0.07650  0.78170  1.0000 0.120108843
H   H126      1.0  0.00390  0.57650  0.71830  1.0000 0.120108843
H   H127      1.0  0.00390  0.92350  0.21830  1.0000 0.120108843
H   H128      1.0  0.99610  0.42350  0.28170  1.0000 0.120108843
H   H129      1.0  0.08360  0.00470  0.81580  1.0000 0.120108843
H   H130      1.0  0.91640  0.50470  0.68420  1.0000 0.120108843
H   H131      1.0  0.91640  0.99530  0.18420  1.0000 0.120108843
H   H132      1.0  0.08360  0.49530  0.31580  1.0000 0.120108843
H   H133      1.0  0.43620  0.98620  0.85740  1.0000 0.120108843
H   H134      1.0  0.56380  0.48620  0.64260  1.0000 0.120108843
H   H135      1.0  0.56380  0.01380  0.14260  1.0000 0.120108843
H   H136      1.0  0.43620  0.51380  0.35740  1.0000 0.120108843
H   H137      1.0  0.46040  0.05490  0.83280  1.0000 0.120108843
H   H138      1.0  0.53960  0.55490  0.66720  1.0000 0.120108843
H   H139      1.0  0.53960  0.94510  0.16720  1.0000 0.120108843
H   H140      1.0  0.46040  0.44510  0.33280  1.0000 0.120108843
H   H141      1.0  0.37390  0.12610  0.79930  1.0000 0.1287515341
H   H142      1.0  0.62610  0.62610  0.70070  1.0000 0.1287515341
H   H143      1.0  0.62610  0.87390  0.20070  1.0000 0.1287515341
H   H144      1.0  0.37390  0.37390  0.29930  1.0000 0.1287515341
H   H145      1.0  0.13900  0.40510  0.70140  1.0000 0.120108843
H   H146      1.0  0.86100  0.90510  0.79860  1.0000 0.120108843
H   H147      1.0  0.86100  0.59490  0.29860  1.0000 0.120108843
H   H148      1.0  0.13900  0.09490  0.20140  1.0000 0.120108843
H   H149      1.0  0.05510  0.47180  0.65010  1.0000 0.1287515341
H   H150      1.0  0.94490  0.97180  0.84990  1.0000 0.1287515341
H   H151      1.0  0.94490  0.52820  0.34990  1.0000 0.1287515341
H   H152      1.0  0.05510  0.02820  0.15010  1.0000 0.1287515341
H   H153      1.0  0.08460  0.53890  0.62170  1.0000 0.120108843
H   H154      1.0  0.91540  0.03890  0.87830  1.0000 0.120108843
H   H155      1.0  0.91540  0.46110  0.37830  1.0000 0.120108843
H   H156      1.0  0.08460  0.96110  0.12170  1.0000 0.120108843
H   H157      1.0  0.42980  0.53650  0.72190  1.0000 0.120108843
H   H158      1.0  0.57020  0.03650  0.77810  1.0000 0.120108843
H   H159      1.0  0.57020  0.46350  0.27810  1.0000 0.120108843
H   H160      1.0  0.42980  0.96350  0.22190  1.0000 0.120108843
H   H161      1.0  0.51400  0.46940  0.77460  1.0000 0.120108843
H   H162      1.0  0.48600  0.96940  0.72540  1.0000 0.120108843
H   H163      1.0  0.48600  0.53060  0.22540  1.0000 0.120108843
H   H164      1.0  0.51400  0.03060  0.27460  1.0000 0.120108843
H   H165      1.0  0.48790  0.39980  0.79570  1.0000 0.120108843
H   H166      1.0  0.51210  0.89980  0.70430  1.0000 0.120108843
H   H167      1.0  0.51210  0.60020  0.20430  1.0000 0.120108843
H   H168      1.0  0.48790  0.10020  0.29570  1.0000 0.120108843
H   H169      1.0  0.02940  0.34450  0.44920  1.0000 0.120108843
H   H170      1.0  0.97060  0.84450  0.05080  1.0000 0.120108843
H   H171      1.0  0.97060  0.65550  0.55080  1.0000 0.120108843
H   H172      1.0  0.02940  0.15550  0.94920  1.0000 0.120108843
H   H173      1.0  0.16910  0.34070  0.39810  1.0000 0.120108843
H   H174      1.0  0.83090  0.84070  0.10190  1.0000 0.120108843
H   H175      1.0  0.83090  0.65930  0.60190  1.0000 0.120108843
H   H176      1.0  0.16910  0.15930  0.89810  1.0000 0.120108843
H   H177      1.0  0.36010  0.34500  0.39830  1.0000 0.120108843
H   H178      1.0  0.63990  0.84500  0.10170  1.0000 0.120108843
H   H179      1.0  0.63990  0.65500  0.60170  1.0000 0.120108843
H   H180      1.0  0.36010  0.15500  0.89830  1.0000 0.120108843
H   H181      1.0  0.48190  0.38220  0.55760  1.0000 0.120108843
H   H182      1.0  0.51810  0.88220  0.94240  1.0000 0.120108843
H   H183      1.0  0.51810  0.61780  0.44240  1.0000 0.120108843
H   H184      1.0  0.48190  0.11780  0.05760  1.0000 0.120108843
H   H185      1.0  0.33930  0.39270  0.60580  1.0000 0.1287515341
H   H186      1.0  0.66070  0.89270  0.89420  1.0000 0.1287515341
H   H187      1.0  0.66070  0.60730  0.39420  1.0000 0.1287515341
H   H188      1.0  0.33930  0.10730  0.10580  1.0000 0.1287515341
H   H189      1.0  0.15090  0.38370  0.60740  1.0000 0.120108843
H   H190      1.0  0.84910  0.88370  0.89260  1.0000 0.120108843
H   H191      1.0  0.84910  0.61630  0.39260  1.0000 0.120108843
H   H192      1.0  0.15090  0.11630  0.10740  1.0000 0.120108843
H   H193      1.0  0.82430  0.44910  0.47530  1.0000 0.1922329445
H   H194      1.0  0.17570  0.94910  0.02470  1.0000 0.1922329445
H   H195      1.0  0.17570  0.55090  0.52470  1.0000 0.1922329445
H   H196      1.0  0.82430  0.05090  0.97530  1.0000 0.1922329445
H   H197      1.0  0.63770  0.47280  0.42280  1.0000 0.1110300682
H   H198      1.0  0.36230  0.97280  0.07720  1.0000 0.1110300682
H   H199      1.0  0.36230  0.52720  0.57720  1.0000 0.1110300682
H   H200      1.0  0.63770  0.02720  0.92280  1.0000 0.1110300682
H   H201      1.0  0.54300  0.51170  0.47110  1.0000 0.1110300682
H   H202      1.0  0.45700  0.01170  0.02890  1.0000 0.1110300682
H   H203      1.0  0.45700  0.48830  0.52890  1.0000 0.1110300682
H   H204      1.0  0.54300  0.98830  0.97110  1.0000 0.1110300682
H   H205      1.0  0.65990  0.54950  0.54910  1.0000 0.1110300682
H   H206      1.0  0.34010  0.04950  0.95090  1.0000 0.1110300682
H   H207      1.0  0.34010  0.45050  0.45090  1.0000 0.1110300682
H   H208      1.0  0.65990  0.95050  0.04910  1.0000 0.1110300682
H   H209      1.0  0.86280  0.54520  0.57790  1.0000 0.1110300682
H   H210      1.0  0.13720  0.04520  0.92210  1.0000 0.1110300682
H   H211      1.0  0.13720  0.45480  0.42210  1.0000 0.1110300682
H   H212      1.0  0.86280  0.95480  0.07790  1.0000 0.1110300682
H   H213      1.0  0.95390  0.49290  0.53760  1.0000 0.120108843
H   H214      1.0  0.04610  0.99290  0.96240  1.0000 0.120108843
H   H215      1.0  0.04610  0.50710  0.46240  1.0000 0.120108843
H   H216      1.0  0.95390  0.00710  0.03760  1.0000 0.120108843
C   C1        1.0  0.57925  0.21080  0.85795  1.0000 -0.0316769151
C   C2        1.0  0.42075  0.71080  0.64205  1.0000 -0.0316769151
C   C3        1.0  0.42075  0.78920  0.14205  1.0000 -0.0316769151
C   C4        1.0  0.57925  0.28920  0.35795  1.0000 -0.0316769151
C   C5        1.0  0.61719  0.24635  0.78369  1.0000 -0.0316769151
C   C6        1.0  0.38281  0.74635  0.71631  1.0000 -0.0316769151
C   C7        1.0  0.38281  0.75365  0.21631  1.0000 -0.0316769151
C   C8        1.0  0.61719  0.25365  0.28369  1.0000 -0.0316769151
C   C9        1.0  0.62213  0.28621  0.86403  1.0000 -0.0316769151
C   C10       1.0  0.37787  0.78621  0.63597  1.0000 -0.0316769151
C   C11       1.0  0.37787  0.71379  0.13597  1.0000 -0.0316769151
C   C12       1.0  0.62213  0.21379  0.36403  1.0000 -0.0316769151
C   C13       1.0  0.76025  0.19819  0.84105  1.0000 -0.0316769151
C   C14       1.0  0.23975  0.69819  0.65895  1.0000 -0.0316769151
C   C15       1.0  0.23975  0.80181  0.15895  1.0000 -0.0316769151
C   C16       1.0  0.76025  0.30181  0.34105  1.0000 -0.0316769151
C   C17       1.0  0.76480  0.23823  0.92130  1.0000 -0.0316769151
C   C18       1.0  0.23520  0.73823  0.57870  1.0000 -0.0316769151
C   C19       1.0  0.23520  0.76177  0.07870  1.0000 -0.0316769151
C   C20       1.0  0.76480  0.26177  0.42130  1.0000 -0.0316769151
C   C21       1.0  0.79981  0.27271  0.84691  1.0000 -0.0316769151
C   C22       1.0  0.20019  0.77271  0.65309  1.0000 -0.0316769151
C   C23       1.0  0.20019  0.72729  0.15309  1.0000 -0.0316769151
C   C24       1.0  0.79981  0.22729  0.34691  1.0000 -0.0316769151
C   C25       1.0  0.93089  0.32388  0.66569  1.0000 -0.0316769151
C   C26       1.0  0.06911  0.82388  0.83431  1.0000 -0.0316769151
C   C27       1.0  0.06911  0.67612  0.33431  1.0000 -0.0316769151
C   C28       1.0  0.93089  0.17612  0.16569  1.0000 -0.0316769151
C   C29       1.0  0.90180  0.24750  0.66370  1.0000 -0.0316769151
C   C30       1.0  0.09820  0.74750  0.83630  1.0000 -0.0316769151
C   C31       1.0  0.09820  0.75250  0.33630  1.0000 -0.0316769151
C   C32       1.0  0.90180  0.25250  0.16370  1.0000 -0.0316769151
C   C33       1.0  0.87936  0.28986  0.73716  1.0000 -0.0316769151
C   C34       1.0  0.12064  0.78986  0.76284  1.0000 -0.0316769151
C   C35       1.0  0.12064  0.71014  0.26284  1.0000 -0.0316769151
C   C36       1.0  0.87936  0.21014  0.23716  1.0000 -0.0316769151
C   C37       1.0  0.76115  0.29070  0.59795  1.0000 -0.0316769151
C   C38       1.0  0.23885  0.79070  0.90205  1.0000 -0.0316769151
C   C39       1.0  0.23885  0.70930  0.40205  1.0000 -0.0316769151
C   C40       1.0  0.76115  0.20930  0.09795  1.0000 -0.0316769151
C   C41       1.0  0.73734  0.33290  0.67064  1.0000 -0.0316769151
C   C42       1.0  0.26266  0.83290  0.82936  1.0000 -0.0316769151
C   C43       1.0  0.26266  0.66710  0.32936  1.0000 -0.0316769151
C   C44       1.0  0.73734  0.16710  0.17064  1.0000 -0.0316769151
C   C45       1.0  0.71230  0.25777  0.66940  1.0000 -0.0316769151
C   C46       1.0  0.28770  0.75777  0.83060  1.0000 -0.0316769151
C   C47       1.0  0.28770  0.74223  0.33060  1.0000 -0.0316769151
C   C48       1.0  0.71230  0.24223  0.16940  1.0000 -0.0316769151
C   C49       1.0  0.26381  0.26251  0.66871  1.0000 0.5820350527
C   C50       1.0  0.73619  0.76251  0.83129  1.0000 0.5820350527
C   C51       1.0  0.73619  0.73749  0.33129  1.0000 0.5820350527
C   C52       1.0  0.26381  0.23749  0.16871  1.0000 0.5820350527
C   C53       1.0  0.27504  0.25820  0.61344  1.0000 -0.0198234378
C   C54       1.0  0.72496  0.75820  0.88656  1.0000 -0.0198234378
C   C55       1.0  0.72496  0.74180  0.38656  1.0000 -0.0198234378
C   C56       1.0  0.27504  0.24180  0.11344  1.0000 -0.0198234378
C   C57       1.0  0.18749  0.23979  0.57059  1.0000 -0.1600595789
C   C58       1.0  0.81251  0.73979  0.92941  1.0000 -0.1600595789
C   C59       1.0  0.81251  0.76021  0.42941  1.0000 -0.1600595789
C   C60       1.0  0.18749  0.26021  0.07059  1.0000 -0.1600595789
C   C61       1.0  0.20008  0.23456  0.51868  1.0000 0.08177037
C   C62       1.0  0.79992  0.73456  0.98132  1.0000 0.08177037
C   C63       1.0  0.79992  0.76544  0.48132  1.0000 0.08177037
C   C64       1.0  0.20008  0.26544  0.01868  1.0000 0.08177037
C   C65       1.0  0.11160  0.21520  0.47330  1.0000 -0.17933767
C   C66       1.0  0.88840  0.71520  0.02670  1.0000 -0.17933767
C   C67       1.0  0.88840  0.78480  0.52670  1.0000 -0.17933767
C   C68       1.0  0.11160  0.28480  0.97330  1.0000 -0.17933767
C   C69       1.0  0.12570  0.21229  0.42360  1.0000 -0.1291300737
C   C70       1.0  0.87430  0.71229  0.07640  1.0000 -0.1291300737
C   C71       1.0  0.87430  0.78771  0.57640  1.0000 -0.1291300737
C   C72       1.0  0.12570  0.28771  0.92360  1.0000 -0.1291300737
C   C73       1.0  0.22933  0.22786  0.41673  1.0000 -0.0198234378
C   C74       1.0  0.77067  0.72786  0.08327  1.0000 -0.0198234378
C   C75       1.0  0.77067  0.77214  0.58327  1.0000 -0.0198234378
C   C76       1.0  0.22933  0.27214  0.91673  1.0000 -0.0198234378
C   C77       1.0  0.31693  0.24536  0.46033  1.0000 -0.1489245692
C   C78       1.0  0.68307  0.74536  0.03967  1.0000 -0.1489245692
C   C79       1.0  0.68307  0.75464  0.53967  1.0000 -0.1489245692
C   C80       1.0  0.31693  0.25464  0.96033  1.0000 -0.1489245692
C   C81       1.0  0.30502  0.24968  0.51212  1.0000 0.08177037
C   C82       1.0  0.69498  0.74968  0.98788  1.0000 0.08177037
C   C83       1.0  0.69498  0.75032  0.48788  1.0000 0.08177037
C   C84       1.0  0.30502  0.25032  0.01212  1.0000 0.08177037
C   C85       1.0  0.39309  0.26944  0.55719  1.0000 -0.1600595789
C   C86       1.0  0.60691  0.76944  0.94281  1.0000 -0.1600595789
C   C87       1.0  0.60691  0.73056  0.44281  1.0000 -0.1600595789
C   C88       1.0  0.39309  0.23056  0.05719  1.0000 -0.1600595789
C   C89       1.0  0.37889  0.27367  0.60659  1.0000 -0.1291300737
C   C90       1.0  0.62111  0.77367  0.89341  1.0000 -0.1291300737
C   C91       1.0  0.62111  0.72633  0.39341  1.0000 -0.1291300737
C   C92       1.0  0.37889  0.22633  0.10659  1.0000 -0.1291300737
C   C93       1.0  0.24050  0.22627  0.36140  1.0000 0.5820350527
C   C94       1.0  0.75950  0.72627  0.13860  1.0000 0.5820350527
C   C95       1.0  0.75950  0.77373  0.63860  1.0000 0.5820350527
C   C96       1.0  0.24050  0.27373  0.86140  1.0000 0.5820350527
C   C97       1.0  0.21914  0.18880  0.76954  1.0000 0.5870954026
C   C98       1.0  0.78086  0.68880  0.73046  1.0000 0.5870954026
C   C99       1.0  0.78086  0.81120  0.23046  1.0000 0.5870954026
C   C100      1.0  0.21914  0.31120  0.26954  1.0000 0.5870954026
C   C101      1.0  0.20229  0.14280  0.77909  1.0000 -0.0316769151
C   C102      1.0  0.79771  0.64280  0.72091  1.0000 -0.0316769151
C   C103      1.0  0.79771  0.85720  0.22091  1.0000 -0.0316769151
C   C104      1.0  0.20229  0.35720  0.27909  1.0000 -0.0316769151
C   C105      1.0  0.08890  0.12756  0.77330  1.0000 -0.1213269528
C   C106      1.0  0.91110  0.62756  0.72670  1.0000 -0.1213269528
C   C107      1.0  0.91110  0.87244  0.22670  1.0000 -0.1213269528
C   C108      1.0  0.08890  0.37244  0.27330  1.0000 -0.1213269528
C   C109      1.0  0.07310  0.08629  0.78550  1.0000 -0.1600595789
C   C110      1.0  0.92690  0.58629  0.71450  1.0000 -0.1600595789
C   C111      1.0  0.92690  0.91371  0.21450  1.0000 -0.1600595789
C   C112      1.0  0.07310  0.41371  0.28550  1.0000 -0.1600595789
C   C113      1.0  0.17070  0.05785  0.80380  1.0000 0.08177037
C   C114      1.0  0.82930  0.55785  0.69620  1.0000 0.08177037
C   C115      1.0  0.82930  0.94215  0.19620  1.0000 0.08177037
C   C116      1.0  0.17070  0.44215  0.30380  1.0000 0.08177037
C   C117      1.0  0.15970  0.01531  0.81940  1.0000 -0.1718333143
C   C118      1.0  0.84030  0.51531  0.68060  1.0000 -0.1718333143
C   C119      1.0  0.84030  0.98469  0.18060  1.0000 -0.1718333143
C   C120      1.0  0.15970  0.48469  0.31940  1.0000 -0.1718333143
C   C121      1.0  0.25680  0.98920  0.83960  1.0000 -0.008636728
C   C122      1.0  0.74320  0.48920  0.66040  1.0000 -0.008636728
C   C123      1.0  0.74320  0.01080  0.16040  1.0000 -0.008636728
C   C124      1.0  0.25680  0.51080  0.33960  1.0000 -0.008636728
C   C125      1.0  0.36920  0.00446  0.84400  1.0000 -0.1213269528
C   C126      1.0  0.63080  0.50446  0.65600  1.0000 -0.1213269528
C   C127      1.0  0.63080  0.99554  0.15600  1.0000 -0.1213269528
C   C128      1.0  0.36920  0.49554  0.34400  1.0000 -0.1213269528
C   C129      1.0  0.38370  0.04511  0.82950  1.0000 -0.1489245692
C   C130      1.0  0.61630  0.54511  0.67050  1.0000 -0.1489245692
C   C131      1.0  0.61630  0.95489  0.17050  1.0000 -0.1489245692
C   C132      1.0  0.38370  0.45489  0.32950  1.0000 -0.1489245692
C   C133      1.0  0.28513  0.07291  0.80933  1.0000 0.08177037
C   C134      1.0  0.71487  0.57291  0.69067  1.0000 0.08177037
C   C135      1.0  0.71487  0.92709  0.19067  1.0000 0.08177037
C   C136      1.0  0.28513  0.42709  0.30933  1.0000 0.08177037
C   C137      1.0  0.29781  0.11576  0.79621  1.0000 -0.1489245692
C   C138      1.0  0.70219  0.61576  0.70379  1.0000 -0.1489245692
C   C139      1.0  0.70219  0.88424  0.20379  1.0000 -0.1489245692
C   C140      1.0  0.29781  0.38424  0.29621  1.0000 -0.1489245692
C   C141      1.0  0.24450  0.94605  0.86230  1.0000 0.5258623291
C   C142      1.0  0.75550  0.44605  0.63770  1.0000 0.5258623291
C   C143      1.0  0.75550  0.05395  0.13770  1.0000 0.5258623291
C   C144      1.0  0.24450  0.55395  0.36230  1.0000 0.5258623291
C   C145      1.0  0.29429  0.34947  0.76079  1.0000 0.5870954026
C   C146      1.0  0.70571  0.84947  0.73921  1.0000 0.5870954026
C   C147      1.0  0.70571  0.65053  0.23921  1.0000 0.5870954026
C   C148      1.0  0.29429  0.15053  0.26079  1.0000 0.5870954026
C   C149      1.0  0.31007  0.39572  0.74977  1.0000 -0.0198234378
C   C150      1.0  0.68993  0.89572  0.75023  1.0000 -0.0198234378
C   C151      1.0  0.68993  0.60428  0.25023  1.0000 -0.0198234378
C   C152      1.0  0.31007  0.10428  0.24977  1.0000 -0.0198234378
C   C153      1.0  0.21481  0.41826  0.71551  1.0000 -0.1600595789
C   C154      1.0  0.78519  0.91826  0.78449  1.0000 -0.1600595789
C   C155      1.0  0.78519  0.58174  0.28449  1.0000 -0.1600595789
C   C156      1.0  0.21481  0.08174  0.21551  1.0000 -0.1600595789
C   C157      1.0  0.22803  0.46080  0.70083  1.0000 0.08177037
C   C158      1.0  0.77197  0.96080  0.79917  1.0000 0.08177037
C   C159      1.0  0.77197  0.53920  0.29917  1.0000 0.08177037
C   C160      1.0  0.22803  0.03920  0.20083  1.0000 0.08177037
C   C161      1.0  0.13211  0.48409  0.66371  1.0000 -0.1489245692
C   C162      1.0  0.86789  0.98409  0.83629  1.0000 -0.1489245692
C   C163      1.0  0.86789  0.51591  0.33629  1.0000 -0.1489245692
C   C164      1.0  0.13211  0.01591  0.16371  1.0000 -0.1489245692
C   C165      1.0  0.14930  0.52397  0.64740  1.0000 -0.1291300737
C   C166      1.0  0.85070  0.02397  0.85260  1.0000 -0.1291300737
C   C167      1.0  0.85070  0.47603  0.35260  1.0000 -0.1291300737
C   C168      1.0  0.14930  0.97603  0.14740  1.0000 -0.1291300737
C   C169      1.0  0.26254  0.54327  0.66834  1.0000 -0.0198234378
C   C170      1.0  0.73746  0.04327  0.83166  1.0000 -0.0198234378
C   C171      1.0  0.73746  0.45673  0.33166  1.0000 -0.0198234378
C   C172      1.0  0.26254  0.95673  0.16834  1.0000 -0.0198234378
C   C173      1.0  0.35541  0.52254  0.70631  1.0000 -0.1718333143
C   C174      1.0  0.64459  0.02254  0.79369  1.0000 -0.1718333143
C   C175      1.0  0.64459  0.47746  0.29369  1.0000 -0.1718333143
C   C176      1.0  0.35541  0.97746  0.20631  1.0000 -0.1718333143
C   C177      1.0  0.34235  0.48019  0.72295  1.0000 0.08177037
C   C178      1.0  0.65765  0.98019  0.77705  1.0000 0.08177037
C   C179      1.0  0.65765  0.51981  0.27705  1.0000 0.08177037
C   C180      1.0  0.34235  0.01981  0.22295  1.0000 0.08177037
C   C181      1.0  0.43800  0.45659  0.75900  1.0000 -0.1600595789
C   C182      1.0  0.56200  0.95659  0.74100  1.0000 -0.1600595789
C   C183      1.0  0.56200  0.54341  0.24100  1.0000 -0.1600595789
C   C184      1.0  0.43800  0.04341  0.25900  1.0000 -0.1600595789
C   C185      1.0  0.42234  0.41539  0.77174  1.0000 -0.1213269528
C   C186      1.0  0.57766  0.91539  0.72826  1.0000 -0.1213269528
C   C187      1.0  0.57766  0.58461  0.22826  1.0000 -0.1213269528
C   C188      1.0  0.42234  0.08461  0.27174  1.0000 -0.1213269528
C   C189      1.0  0.28430  0.58537  0.64570  1.0000 0.5364642073
C   C190      1.0  0.71570  0.08537  0.85430  1.0000 0.5364642073
C   C191      1.0  0.71570  0.41463  0.35430  1.0000 0.5364642073
C   C192      1.0  0.28430  0.91463  0.14570  1.0000 0.5364642073
C   C193      1.0  0.94937  0.35972  0.52847  1.0000 0.5820350527
C   C194      1.0  0.05063  0.85972  0.97153  1.0000 0.5820350527
C   C195      1.0  0.05063  0.64028  0.47153  1.0000 0.5820350527
C   C196      1.0  0.94937  0.14028  0.02847  1.0000 0.5820350527
C   C197      1.0  0.07170  0.36357  0.52700  1.0000 -0.0198234378
C   C198      1.0  0.92830  0.86357  0.97300  1.0000 -0.0198234378
C   C199      1.0  0.92830  0.63643  0.47300  1.0000 -0.0198234378
C   C200      1.0  0.07170  0.13643  0.02700  1.0000 -0.0198234378
C   C201      1.0  0.09295  0.35409  0.48075  1.0000 -0.1600595789
C   C202      1.0  0.90705  0.85409  0.01925  1.0000 -0.1600595789
C   C203      1.0  0.90705  0.64591  0.51925  1.0000 -0.1600595789
C   C204      1.0  0.09295  0.14591  0.98075  1.0000 -0.1600595789
C   C205      1.0  0.20872  0.35822  0.47842  1.0000 0.08177037
C   C206      1.0  0.79128  0.85822  0.02158  1.0000 0.08177037
C   C207      1.0  0.79128  0.64178  0.52158  1.0000 0.08177037
C   C208      1.0  0.20872  0.14178  0.97842  1.0000 0.08177037
C   C209      1.0  0.23230  0.34886  0.43070  1.0000 -0.1386403238
C   C210      1.0  0.76770  0.84886  0.06930  1.0000 -0.1386403238
C   C211      1.0  0.76770  0.65114  0.56930  1.0000 -0.1386403238
C   C212      1.0  0.23230  0.15114  0.93070  1.0000 -0.1386403238
C   C213      1.0  0.34486  0.35137  0.43076  1.0000 -0.0998017461
C   C214      1.0  0.65514  0.85137  0.06924  1.0000 -0.0998017461
C   C215      1.0  0.65514  0.64863  0.56924  1.0000 -0.0998017461
C   C216      1.0  0.34486  0.14863  0.93076  1.0000 -0.0998017461
C   C217      1.0  0.43930  0.36350  0.47920  1.0000 -0.0896601226
C   C218      1.0  0.56070  0.86350  0.02080  1.0000 -0.0896601226
C   C219      1.0  0.56070  0.63650  0.52080  1.0000 -0.0896601226
C   C220      1.0  0.43930  0.13650  0.97920  1.0000 -0.0896601226
C   C221      1.0  0.41810  0.37360  0.52560  1.0000 -0.17933767
C   C222      1.0  0.58190  0.87360  0.97440  1.0000 -0.17933767
C   C223      1.0  0.58190  0.62640  0.47440  1.0000 -0.17933767
C   C224      1.0  0.41810  0.12640  0.02560  1.0000 -0.17933767
C   C225      1.0  0.30160  0.37140  0.52660  1.0000 0.08177037
C   C226      1.0  0.69840  0.87140  0.97340  1.0000 0.08177037
C   C227      1.0  0.69840  0.62860  0.47340  1.0000 0.08177037
C   C228      1.0  0.30160  0.12860  0.02660  1.0000 0.08177037
C   C229      1.0  0.27750  0.38220  0.57420  1.0000 -0.1386403238
C   C230      1.0  0.72250  0.88220  0.92580  1.0000 -0.1386403238
C   C231      1.0  0.72250  0.61780  0.42580  1.0000 -0.1386403238
C   C232      1.0  0.27750  0.11780  0.07420  1.0000 -0.1386403238
C   C233      1.0  0.16600  0.37760  0.57490  1.0000 -0.0998017461
C   C234      1.0  0.83400  0.87760  0.92510  1.0000 -0.0998017461
C   C235      1.0  0.83400  0.62240  0.42510  1.0000 -0.0998017461
C   C236      1.0  0.16600  0.12240  0.07490  1.0000 -0.0998017461
C   C237      1.0  0.56279  0.36332  0.47999  1.0000 0.4882704545
C   C238      1.0  0.43721  0.86332  0.02001  1.0000 0.4882704545
C   C239      1.0  0.43721  0.63668  0.52001  1.0000 0.4882704545
C   C240      1.0  0.56279  0.13668  0.97999  1.0000 0.4882704545
C   C241      1.0  0.79490  0.47440  0.48590  1.0000 0.062874109
C   C242      1.0  0.20510  0.97440  0.01410  1.0000 0.062874109
C   C243      1.0  0.20510  0.52560  0.51410  1.0000 0.062874109
C   C244      1.0  0.79490  0.02560  0.98590  1.0000 0.062874109
C   C245      1.0  0.67960  0.48370  0.45850  1.0000 -0.0998017461
C   C246      1.0  0.32040  0.98370  0.04150  1.0000 -0.0998017461
C   C247      1.0  0.32040  0.51630  0.54150  1.0000 -0.0998017461
C   C248      1.0  0.67960  0.01630  0.95850  1.0000 -0.0998017461
C   C249      1.0  0.62700  0.50910  0.48440  1.0000 -0.0826730696
C   C250      1.0  0.37300  0.00910  0.01560  1.0000 -0.0826730696
C   C251      1.0  0.37300  0.49090  0.51560  1.0000 -0.0826730696
C   C252      1.0  0.62700  0.99090  0.98440  1.0000 -0.0826730696
C   C253      1.0  0.69620  0.53140  0.53050  1.0000 -0.0896601226
C   C254      1.0  0.30380  0.03140  0.96950  1.0000 -0.0896601226
C   C255      1.0  0.30380  0.46860  0.46950  1.0000 -0.0896601226
C   C256      1.0  0.69620  0.96860  0.03050  1.0000 -0.0896601226
C   C257      1.0  0.81510  0.52740  0.54900  1.0000 -0.0826730696
C   C258      1.0  0.18490  0.02740  0.95100  1.0000 -0.0826730696
C   C259      1.0  0.18490  0.47260  0.45100  1.0000 -0.0826730696
C   C260      1.0  0.81510  0.97260  0.04900  1.0000 -0.0826730696
C   C261      1.0  0.87030  0.49670  0.52550  1.0000 -0.1386403238
C   C262      1.0  0.12970  0.99670  0.97450  1.0000 -0.1386403238
C   C263      1.0  0.12970  0.50330  0.47450  1.0000 -0.1386403238
C   C264      1.0  0.87030  0.00330  0.02550  1.0000 -0.1386403238
N   N1        1.0  0.56007  0.25105  0.82577  1.0000 -0.1718333143
N   N2        1.0  0.43993  0.75105  0.67423  1.0000 -0.1718333143
N   N3        1.0  0.43993  0.74895  0.17423  1.0000 -0.1718333143
N   N4        1.0  0.56007  0.24895  0.32577  1.0000 -0.1718333143
N   N5        1.0  0.70758  0.20165  0.88518  1.0000 -0.1900774646
N   N6        1.0  0.29242  0.70165  0.61482  1.0000 -0.1900774646
N   N7        1.0  0.29242  0.79835  0.11482  1.0000 -0.1900774646
N   N8        1.0  0.70758  0.29835  0.38518  1.0000 -0.1900774646
N   N9        1.0  0.74875  0.27793  0.89015  1.0000 -0.1386403238
N   N10       1.0  0.25125  0.77793  0.60985  1.0000 -0.1386403238
N   N11       1.0  0.25125  0.72207  0.10985  1.0000 -0.1386403238
N   N12       1.0  0.74875  0.22207  0.39015  1.0000 -0.1386403238
N   N13       1.0  0.74376  0.23738  0.80956  1.0000 -0.1718333143
N   N14       1.0  0.25624  0.73738  0.69044  1.0000 -0.1718333143
N   N15       1.0  0.25624  0.76262  0.19044  1.0000 -0.1718333143
N   N16       1.0  0.74376  0.26262  0.30956  1.0000 -0.1718333143
N   N17       1.0  0.94981  0.28520  0.70021  1.0000 -0.1718333143
N   N18       1.0  0.05019  0.78520  0.79979  1.0000 -0.1718333143
N   N19       1.0  0.05019  0.71480  0.29979  1.0000 -0.1718333143
N   N20       1.0  0.94981  0.21480  0.20021  1.0000 -0.1718333143
N   N21       1.0  0.80411  0.32968  0.63221  1.0000 -0.2052721898
N   N22       1.0  0.19589  0.82968  0.86779  1.0000 -0.2052721898
N   N23       1.0  0.19589  0.67032  0.36779  1.0000 -0.2052721898
N   N24       1.0  0.80411  0.17032  0.13221  1.0000 -0.2052721898
N   N25       1.0  0.77718  0.25248  0.63128  1.0000 -0.1386403238
N   N26       1.0  0.22282  0.75248  0.86872  1.0000 -0.1386403238
N   N27       1.0  0.22282  0.74752  0.36872  1.0000 -0.1386403238
N   N28       1.0  0.77718  0.24752  0.13128  1.0000 -0.1386403238
N   N29       1.0  0.75351  0.29519  0.70501  1.0000 -0.17933767
N   N30       1.0  0.24649  0.79519  0.79499  1.0000 -0.17933767
N   N31       1.0  0.24649  0.70481  0.29499  1.0000 -0.17933767
N   N32       1.0  0.75351  0.20481  0.20501  1.0000 -0.17933767
O   O1        1.0  0.16164  0.26045  0.67104  1.0000 -0.548694641
O   O2        1.0  0.83836  0.76045  0.82896  1.0000 -0.548694641
O   O3        1.0  0.83836  0.73955  0.32896  1.0000 -0.548694641
O   O4        1.0  0.16164  0.23955  0.17104  1.0000 -0.548694641
O   O5        1.0  0.35920  0.26837  0.70890  1.0000 -0.548694641
O   O6        1.0  0.64080  0.76837  0.79110  1.0000 -0.548694641
O   O7        1.0  0.64080  0.73163  0.29110  1.0000 -0.548694641
O   O8        1.0  0.35920  0.23163  0.20890  1.0000 -0.548694641
O   O9        1.0  0.33771  0.23728  0.35801  1.0000 -0.548694641
O   O10       1.0  0.66229  0.73728  0.14199  1.0000 -0.548694641
O   O11       1.0  0.66229  0.76272  0.64199  1.0000 -0.548694641
O   O12       1.0  0.33771  0.26272  0.85801  1.0000 -0.548694641
O   O13       1.0  0.14943  0.21436  0.32183  1.0000 -0.548694641
O   O14       1.0  0.85057  0.71436  0.17817  1.0000 -0.548694641
O   O15       1.0  0.85057  0.78564  0.67817  1.0000 -0.548694641
O   O16       1.0  0.14943  0.28564  0.82183  1.0000 -0.548694641
O   O17       1.0  0.12816  0.21264  0.75716  1.0000 -0.5591446306
O   O18       1.0  0.87184  0.71264  0.74284  1.0000 -0.5591446306
O   O19       1.0  0.87184  0.78736  0.24284  1.0000 -0.5591446306
O   O20       1.0  0.12816  0.28736  0.25716  1.0000 -0.5591446306
O   O21       1.0  0.32247  0.20184  0.77577  1.0000 -0.548694641
O   O22       1.0  0.67753  0.70184  0.72423  1.0000 -0.548694641
O   O23       1.0  0.67753  0.79816  0.22423  1.0000 -0.548694641
O   O24       1.0  0.32247  0.29816  0.27577  1.0000 -0.548694641
O   O25       1.0  0.33380  0.92421  0.88520  1.0000 -0.5260044704
O   O26       1.0  0.66620  0.42421  0.61480  1.0000 -0.5260044704
O   O27       1.0  0.66620  0.07579  0.11480  1.0000 -0.5260044704
O   O28       1.0  0.33380  0.57579  0.38520  1.0000 -0.5260044704
O   O29       1.0  0.14492  0.93429  0.86052  1.0000 -0.4961589049
O   O30       1.0  0.85508  0.43429  0.63948  1.0000 -0.4961589049
O   O31       1.0  0.85508  0.06571  0.13948  1.0000 -0.4961589049
O   O32       1.0  0.14492  0.56571  0.36052  1.0000 -0.4961589049
O   O33       1.0  0.19194  0.33416  0.73774  1.0000 -0.548694641
O   O34       1.0  0.80806  0.83416  0.76226  1.0000 -0.548694641
O   O35       1.0  0.80806  0.66584  0.26226  1.0000 -0.548694641
O   O36       1.0  0.19194  0.16584  0.23774  1.0000 -0.548694641
O   O37       1.0  0.38392  0.32933  0.79142  1.0000 -0.548694641
O   O38       1.0  0.61608  0.82933  0.70858  1.0000 -0.548694641
O   O39       1.0  0.61608  0.67067  0.20858  1.0000 -0.548694641
O   O40       1.0  0.38392  0.17067  0.29142  1.0000 -0.548694641
O   O41       1.0  0.37842  0.60510  0.66742  1.0000 -0.5428199242
O   O42       1.0  0.62158  0.10510  0.83258  1.0000 -0.5428199242
O   O43       1.0  0.62158  0.39490  0.33258  1.0000 -0.5428199242
O   O44       1.0  0.37842  0.89490  0.16742  1.0000 -0.5428199242
O   O45       1.0  0.20075  0.59859  0.60245  1.0000 -0.5591446306
O   O46       1.0  0.79925  0.09859  0.89755  1.0000 -0.5591446306
O   O47       1.0  0.79925  0.40141  0.39755  1.0000 -0.5591446306
O   O48       1.0  0.20075  0.90141  0.10245  1.0000 -0.5591446306
O   O49       1.0  0.93244  0.37704  0.56824  1.0000 -0.5178191732
O   O50       1.0  0.06756  0.87704  0.93176  1.0000 -0.5178191732
O   O51       1.0  0.06756  0.62296  0.43176  1.0000 -0.5178191732
O   O52       1.0  0.93244  0.12296  0.06824  1.0000 -0.5178191732
O   O53       1.0  0.87172  0.33915  0.49082  1.0000 -0.5779198478
O   O54       1.0  0.12828  0.83915  0.00918  1.0000 -0.5779198478
O   O55       1.0  0.12828  0.66085  0.50918  1.0000 -0.5779198478
O   O56       1.0  0.87172  0.16085  0.99082  1.0000 -0.5779198478
O   O57       1.0  0.57700  0.36070  0.43520  1.0000 -0.5068513225
O   O58       1.0  0.42300  0.86070  0.06480  1.0000 -0.5068513225
O   O59       1.0  0.42300  0.63930  0.56480  1.0000 -0.5068513225
O   O60       1.0  0.57700  0.13930  0.93520  1.0000 -0.5068513225
O   O61       1.0  0.64120  0.35560  0.52490  1.0000 -0.1386403238
O   O62       1.0  0.35880  0.85560  0.97510  1.0000 -0.1386403238
O   O63       1.0  0.35880  0.64440  0.47510  1.0000 -0.1386403238
O   O64       1.0  0.64120  0.14440  0.02490  1.0000 -0.1386403238
O   O65       1.0  0.74650  0.43230  0.51060  1.0000 -0.4616259854
O   O66       1.0  0.25350  0.93230  0.98940  1.0000 -0.4616259854
O   O67       1.0  0.25350  0.56770  0.48940  1.0000 -0.4616259854
O   O68       1.0  0.74650  0.06770  0.01060  1.0000 -0.4616259854
O   O69       1.0  0.65390  0.38550  0.52130  1.0000 0.0358755183
O   O70       1.0  0.34610  0.88550  0.97870  1.0000 0.0313034211
O   O71       1.0  0.34610  0.61450  0.47870  1.0000 0.0313034211
O   O72       1.0  0.65390  0.11450  0.02130  1.0000 0.0313034211
