# DDEC6 charges by PACMAN v1.1 (https://github.com/mtap-research/PACMAN-charge/)
data_2013[NiV][nan]3[FSR]1
_chemical_formula_sum              "V4 Ni2 H24 C24 N4 O14"
_cell_length_a       7.7086
_cell_length_b       11.4007
_cell_length_c       13.499
_cell_angle_alpha    96.395
_cell_angle_beta     105.619
_cell_angle_gamma    99.339

_symmetry_space_group_name_H-M    "P 1"
_symmetry_Int_Tables_number       1

loop_
  _symmetry_equiv_pos_as_xyz
  'x, y, z'

loop_
  _atom_site_type_symbol
  _atom_site_label
  _atom_site_symmetry_multiplicity
  _atom_site_fract_x
  _atom_site_fract_y
  _atom_site_fract_z
  _atom_site_occupancy
  _atom_site_charge
V   V1        1.0  0.14293  0.32289  0.02534  1.0000 1.9508643699
V   V2        1.0  0.85707  0.67711  0.97466  1.0000 1.9508643699
V   V3        1.0  0.20598  0.57960  0.14078  1.0000 1.9508643699
V   V4        1.0  0.79402  0.42040  0.85922  1.0000 1.9508643699
Ni  Ni1       1.0  0.50000  0.50000  0.00000  1.0000 1.0181154561
Ni  Ni2       1.0  0.00000  0.00000  0.00000  1.0000 0.9399657202
H   H1        1.0  0.90860  0.13280  0.17710  1.0000 0.1075208233
H   H2        1.0  0.09140  0.86720  0.82290  1.0000 0.1075208233
H   H3        1.0  0.90440  0.12220  0.34530  1.0000 0.1310477507
H   H4        1.0  0.09560  0.87780  0.65470  1.0000 0.1310477507
H   H5        1.0  0.12980  0.82860  0.33240  1.0000 0.1457511437
H   H6        1.0  0.87020  0.17140  0.66760  1.0000 0.1457511437
H   H7        1.0  0.13670  0.85230  0.16620  1.0000 0.1075208233
H   H8        1.0  0.86330  0.14770  0.83380  1.0000 0.1075208233
H   H9        1.0  0.04270  0.88830  0.48890  1.0000 0.1220419121
H   H10       1.0  0.95730  0.11170  0.51110  1.0000 0.1220419121
H   H11       1.0  0.34850  0.34550  0.78220  1.0000 0.1075208233
H   H12       1.0  0.65150  0.65450  0.21780  1.0000 0.1075208233
H   H13       1.0  0.17950  0.35470  0.61590  1.0000 0.1220419121
H   H14       1.0  0.82050  0.64530  0.38410  1.0000 0.1220419121
H   H15       1.0  0.08410  0.67260  0.72530  1.0000 0.1220419121
H   H16       1.0  0.91590  0.32740  0.27470  1.0000 0.1220419121
H   H17       1.0  0.26450  0.65800  0.88750  1.0000 0.1220419121
H   H18       1.0  0.73550  0.34200  0.11250  1.0000 0.1220419121
H   H19       1.0  0.93860  0.59390  0.54260  1.0000 0.1220419121
H   H20       1.0  0.06140  0.40610  0.45740  1.0000 0.1220419121
H   H21       1.0  0.33100  0.95000  0.03600  1.0000 0.2939150136
H   H22       1.0  0.66900  0.05000  0.96400  1.0000 0.2939150136
H   H23       1.0  0.33700  0.04600  0.99300  1.0000 0.2939150136
H   H24       1.0  0.66300  0.95400  0.00700  1.0000 0.2939150136
C   C1        1.0  0.95430  0.07144  0.20918  1.0000 0.0814652246
C   C2        1.0  0.04570  0.92856  0.79082  1.0000 0.0814652246
C   C3        1.0  0.95060  0.06552  0.31037  1.0000 -0.2025482404
C   C4        1.0  0.04940  0.93448  0.68963  1.0000 -0.2025482404
C   C5        1.0  0.01720  0.97319  0.35957  1.0000 0.1634906483
C   C6        1.0  0.98280  0.02681  0.64043  1.0000 0.1634906483
C   C7        1.0  0.08560  0.89185  0.30295  1.0000 -0.1752272594
C   C8        1.0  0.91440  0.10815  0.69705  1.0000 -0.1752272594
C   C9        1.0  0.08720  0.90583  0.20227  1.0000 0.0995383885
C   C10       1.0  0.91280  0.09417  0.79773  1.0000 0.0995383885
C   C11       1.0  0.01700  0.95947  0.46642  1.0000 -0.1336718361
C   C12       1.0  0.98300  0.04053  0.53358  1.0000 -0.1336718361
C   C13       1.0  0.29770  0.41307  0.77008  1.0000 0.0995383885
C   C14       1.0  0.70230  0.58693  0.22992  1.0000 0.0995383885
C   C15       1.0  0.19470  0.41758  0.66963  1.0000 -0.1892144839
C   C16       1.0  0.80530  0.58242  0.33037  1.0000 -0.1892144839
C   C17       1.0  0.11360  0.51703  0.64924  1.0000 0.1667116386
C   C18       1.0  0.88640  0.48297  0.35076  1.0000 0.1667116386
C   C19       1.0  0.13930  0.60633  0.73429  1.0000 -0.1892144839
C   C20       1.0  0.86070  0.39367  0.26571  1.0000 -0.1892144839
C   C21       1.0  0.24720  0.59645  0.83234  1.0000 0.1075208233
C   C22       1.0  0.75280  0.40355  0.16766  1.0000 0.1075208233
C   C23       1.0  0.00540  0.53273  0.54529  1.0000 -0.1336718361
C   C24       1.0  0.99460  0.46727  0.45471  1.0000 -0.1336718361
N   N1        1.0  0.02060  0.99313  0.15505  1.0000 -0.2462118018
N   N2        1.0  0.97940  0.00687  0.84495  1.0000 -0.2462118018
N   N3        1.0  0.32764  0.50207  0.85094  1.0000 -0.2192190486
N   N4        1.0  0.67236  0.49793  0.14906  1.0000 -0.2192190486
O   O1        1.0  0.34701  0.59564  0.06755  1.0000 -0.8760936904
O   O2        1.0  0.65299  0.40436  0.93245  1.0000 -0.8760936904
O   O3        1.0  0.35308  0.33542  0.01090  1.0000 -0.8260892081
O   O4        1.0  0.64692  0.66458  0.98910  1.0000 -0.8260892081
O   O5        1.0  0.00041  0.36830  0.91582  1.0000 -0.9950760651
O   O6        1.0  0.99959  0.63170  0.08418  1.0000 -0.989802564
O   O7        1.0  0.05915  0.18331  0.03300  1.0000 -0.8415887701
O   O8        1.0  0.94085  0.81669  0.96700  1.0000 -0.8415887701
O   O9        1.0  0.15249  0.41966  0.14222  1.0000 -0.989802564
O   O10       1.0  0.84751  0.58034  0.85778  1.0000 -0.989802564
O   O11       1.0  0.30706  0.65468  0.25838  1.0000 -0.7736603666
O   O12       1.0  0.69294  0.34532  0.74162  1.0000 -0.7736603666
O   O13       1.0  0.27842  0.00349  0.02852  1.0000 -0.6077824879
O   O14       1.0  0.72158  0.99651  0.97148  1.0000 -0.6077824879
