# DDEC6 charges by PACMAN v1.1 (https://github.com/mtap-research/PACMAN-charge/)
data_2013[Cd][dia]3[FSR]2
_chemical_formula_sum              "Cd4 H28 C48 N8 Cl8 O18"
_cell_length_a       11.4545
_cell_length_b       11.4545
_cell_length_c       15.0777
_cell_angle_alpha    70.3787
_cell_angle_beta     109.621
_cell_angle_gamma    83.4166

_symmetry_space_group_name_H-M    "P 1"
_symmetry_Int_Tables_number       1

loop_
  _symmetry_equiv_pos_as_xyz
  'x, y, z'

loop_
  _atom_site_type_symbol
  _atom_site_label
  _atom_site_symmetry_multiplicity
  _atom_site_fract_x
  _atom_site_fract_y
  _atom_site_fract_z
  _atom_site_occupancy
  _atom_site_charge
Cd  Cd1       1.0  0.73316  0.00398  0.21380  1.0000 0.8998944895
Cd  Cd2       1.0  0.00398  0.73316  0.28620  1.0000 0.8998944895
Cd  Cd3       1.0  0.26684  0.99602  0.78620  1.0000 0.8998944895
Cd  Cd4       1.0  0.99602  0.26684  0.71380  1.0000 0.8998944895
H   H1        1.0  0.94860  0.99780  0.19310  1.0000 0.3814507113
H   H2        1.0  0.99780  0.94860  0.30690  1.0000 0.3814507113
H   H3        1.0  0.05140  0.00220  0.80690  1.0000 0.3814507113
H   H4        1.0  0.00220  0.05140  0.69310  1.0000 0.3814507113
H   H5        1.0  0.16100  0.11620  0.07930  1.0000 0.1505875574
H   H6        1.0  0.11620  0.16100  0.42070  1.0000 0.1505875574
H   H7        1.0  0.83900  0.88380  0.92070  1.0000 0.1505875574
H   H8        1.0  0.88380  0.83900  0.57930  1.0000 0.1505875574
H   H9        1.0  0.51250  0.98430  0.30400  1.0000 0.1209771234
H   H10       1.0  0.98430  0.51250  0.19600  1.0000 0.1209771234
H   H11       1.0  0.48750  0.01570  0.69600  1.0000 0.1209771234
H   H12       1.0  0.01570  0.48750  0.80400  1.0000 0.1209771234
H   H13       1.0  0.47670  0.10510  0.01910  1.0000 0.11418788
H   H14       1.0  0.10510  0.47670  0.48090  1.0000 0.11418788
H   H15       1.0  0.52330  0.89490  0.98090  1.0000 0.11418788
H   H16       1.0  0.89490  0.52330  0.51910  1.0000 0.11418788
H   H17       1.0  0.81640  0.06840  0.40940  1.0000 0.1209771234
H   H18       1.0  0.06840  0.81640  0.09060  1.0000 0.1209771234
H   H19       1.0  0.18360  0.93160  0.59060  1.0000 0.1209771234
H   H20       1.0  0.93160  0.18360  0.90940  1.0000 0.1209771234
H   H21       1.0  0.66280  0.32220  0.12700  1.0000 0.1209771234
H   H22       1.0  0.32220  0.66280  0.37300  1.0000 0.1209771234
H   H23       1.0  0.33720  0.67780  0.87300  1.0000 0.1209771234
H   H24       1.0  0.67780  0.33720  0.62700  1.0000 0.1209771234
H   H25       1.0  0.75480  0.44160  0.35670  1.0000 0.1427903907
H   H26       1.0  0.44160  0.75480  0.14330  1.0000 0.1427903907
H   H27       1.0  0.24520  0.55840  0.64330  1.0000 0.1427903907
H   H28       1.0  0.55840  0.24520  0.85670  1.0000 0.1427903907
C   C1        1.0  0.23000  0.16480  0.91600  1.0000 0.5684492723
C   C2        1.0  0.16480  0.23000  0.58400  1.0000 0.5684492723
C   C3        1.0  0.77000  0.83520  0.08400  1.0000 0.5684492723
C   C4        1.0  0.83520  0.77000  0.41600  1.0000 0.5684492723
C   C5        1.0  0.30640  0.11840  0.03030  1.0000 -0.0327419597
C   C6        1.0  0.11840  0.30640  0.46970  1.0000 -0.0327419597
C   C7        1.0  0.69360  0.88160  0.96970  1.0000 -0.0327419597
C   C8        1.0  0.88160  0.69360  0.53030  1.0000 -0.0327419597
C   C9        1.0  0.24970  0.09610  0.10100  1.0000 -0.1266657603
C   C10       1.0  0.09610  0.24970  0.39900  1.0000 -0.1266657603
C   C11       1.0  0.75030  0.90390  0.89900  1.0000 -0.1266657603
C   C12       1.0  0.90390  0.75030  0.60100  1.0000 -0.1266657603
C   C13       1.0  0.32860  0.04380  0.20360  1.0000 0.0905254097
C   C14       1.0  0.04380  0.32860  0.29640  1.0000 0.0905254097
C   C15       1.0  0.67140  0.95620  0.79640  1.0000 0.0905254097
C   C16       1.0  0.95620  0.67140  0.70360  1.0000 0.0905254097
C   C17       1.0  0.46040  0.01860  0.23420  1.0000 -0.0018362835
C   C18       1.0  0.01860  0.46040  0.26580  1.0000 -0.0018362835
C   C19       1.0  0.53960  0.98140  0.76580  1.0000 -0.0018362835
C   C20       1.0  0.98140  0.53960  0.73420  1.0000 -0.0018362835
C   C21       1.0  0.43880  0.09020  0.06630  1.0000 0.0371175544
C   C22       1.0  0.09020  0.43880  0.43370  1.0000 0.0371175544
C   C23       1.0  0.56120  0.90980  0.93370  1.0000 0.0371175544
C   C24       1.0  0.90980  0.56120  0.56630  1.0000 0.0371175544
C   C25       1.0  0.85210  0.20750  0.51770  1.0000 0.5607352988
C   C26       1.0  0.20750  0.85210  0.98230  1.0000 0.5607352988
C   C27       1.0  0.14790  0.79250  0.48230  1.0000 0.5607352988
C   C28       1.0  0.79250  0.14790  0.01770  1.0000 0.5607352988
C   C29       1.0  0.79310  0.24830  0.40240  1.0000 -0.0450840196
C   C30       1.0  0.24830  0.79310  0.09760  1.0000 -0.0450840196
C   C31       1.0  0.20690  0.75170  0.59760  1.0000 -0.0450840196
C   C32       1.0  0.75170  0.20690  0.90240  1.0000 -0.0450840196
C   C33       1.0  0.78610  0.15390  0.36330  1.0000 0.0584037662
C   C34       1.0  0.15390  0.78610  0.13670  1.0000 0.0584037662
C   C35       1.0  0.21390  0.84610  0.63670  1.0000 0.0584037662
C   C36       1.0  0.84610  0.21390  0.86330  1.0000 0.0584037662
C   C37       1.0  0.69610  0.30270  0.19720  1.0000 -0.0018362835
C   C38       1.0  0.30270  0.69610  0.30280  1.0000 -0.0018362835
C   C39       1.0  0.30390  0.69730  0.80280  1.0000 -0.0018362835
C   C40       1.0  0.69730  0.30390  0.69720  1.0000 -0.0018362835
C   C41       1.0  0.70090  0.40130  0.23050  1.0000 0.0905254097
C   C42       1.0  0.40130  0.70090  0.26950  1.0000 0.0905254097
C   C43       1.0  0.29910  0.59870  0.76950  1.0000 0.0905254097
C   C44       1.0  0.59870  0.29910  0.73050  1.0000 0.0905254097
C   C45       1.0  0.75040  0.37560  0.33370  1.0000 -0.1266657603
C   C46       1.0  0.37560  0.75040  0.16630  1.0000 -0.1266657603
C   C47       1.0  0.24960  0.62440  0.66630  1.0000 -0.1266657603
C   C48       1.0  0.62440  0.24960  0.83370  1.0000 -0.1266657603
N   N1        1.0  0.51480  0.04200  0.16720  1.0000 -0.2098209052
N   N2        1.0  0.04200  0.51480  0.33280  1.0000 -0.2098209052
N   N3        1.0  0.48520  0.95800  0.83280  1.0000 -0.2098209052
N   N4        1.0  0.95800  0.48520  0.66720  1.0000 -0.2098209052
N   N5        1.0  0.73840  0.18000  0.26340  1.0000 -0.2300920649
N   N6        1.0  0.18000  0.73840  0.23660  1.0000 -0.2300920649
N   N7        1.0  0.26160  0.82000  0.73660  1.0000 -0.2300920649
N   N8        1.0  0.82000  0.26160  0.76340  1.0000 -0.2300920649
Cl  Cl1       1.0  0.26719  0.00415  0.29716  1.0000 -0.0601959261
Cl  Cl2       1.0  0.00415  0.26719  0.20284  1.0000 -0.0601959261
Cl  Cl3       1.0  0.73281  0.99585  0.70284  1.0000 -0.0601959261
Cl  Cl4       1.0  0.99585  0.73281  0.79716  1.0000 -0.0601959261
Cl  Cl5       1.0  0.64702  0.55858  0.13980  1.0000 -0.0601959261
Cl  Cl6       1.0  0.55858  0.64702  0.36020  1.0000 -0.0601959261
Cl  Cl7       1.0  0.35298  0.44142  0.86020  1.0000 -0.0601959261
Cl  Cl8       1.0  0.44142  0.35298  0.63980  1.0000 -0.0601959261
O   O1        1.0  0.28819  0.13779  0.86600  1.0000 -0.5593940779
O   O2        1.0  0.13779  0.28819  0.63400  1.0000 -0.5593940779
O   O3        1.0  0.71181  0.86221  0.13400  1.0000 -0.5593940779
O   O4        1.0  0.86221  0.71181  0.36600  1.0000 -0.5593940779
O   O5        1.0  0.11560  0.22560  0.88080  1.0000 -0.5448989733
O   O6        1.0  0.22560  0.11560  0.61920  1.0000 -0.5448989733
O   O7        1.0  0.88440  0.77440  0.11920  1.0000 -0.5448989733
O   O8        1.0  0.77440  0.88440  0.38080  1.0000 -0.5448989733
O   O9        1.0  0.85549  0.29469  0.55040  1.0000 -0.5593940779
O   O10       1.0  0.29469  0.85549  0.94960  1.0000 -0.5593940779
O   O11       1.0  0.14451  0.70531  0.44960  1.0000 -0.5593940779
O   O12       1.0  0.70531  0.14451  0.05040  1.0000 -0.5593940779
O   O13       1.0  0.89320  0.08900  0.57060  1.0000 -0.5473903878
O   O14       1.0  0.08900  0.89320  0.92940  1.0000 -0.5473903878
O   O15       1.0  0.10680  0.91100  0.42940  1.0000 -0.5473903878
O   O16       1.0  0.91100  0.10680  0.07060  1.0000 -0.5473903878
O   O17       1.0  0.94900  0.94900  0.25000  1.0000 -0.7027734085
O   O18       1.0  0.05100  0.05100  0.75000  1.0000 -0.7027734085
