# DDEC6 charges by PACMAN v1.1 (https://github.com/mtap-research/PACMAN-charge/)
data_2013[Yb][nan]3[FSR]1
_chemical_formula_sum              "Yb8 H68 C114 O66 F36"
_cell_length_a       8.0659
_cell_length_b       21.2621
_cell_length_c       22.7182
_cell_angle_alpha    82.919
_cell_angle_beta     82.369
_cell_angle_gamma    80.025

_symmetry_space_group_name_H-M    "P 1"
_symmetry_Int_Tables_number       1

loop_
  _symmetry_equiv_pos_as_xyz
  'x, y, z'

loop_
  _atom_site_type_symbol
  _atom_site_label
  _atom_site_symmetry_multiplicity
  _atom_site_fract_x
  _atom_site_fract_y
  _atom_site_fract_z
  _atom_site_occupancy
  _atom_site_charge
Yb  Yb1       1.0  0.19759  0.57709  0.71559  1.0000 2.0794417322
Yb  Yb2       1.0  0.80241  0.42291  0.28441  1.0000 2.0794417322
Yb  Yb3       1.0  0.61286  0.52918  0.56695  1.0000 2.0794417322
Yb  Yb4       1.0  0.38714  0.47082  0.43305  1.0000 2.0794417322
Yb  Yb5       1.0  0.53724  0.75307  0.90390  1.0000 2.1083476603
Yb  Yb6       1.0  0.46276  0.24693  0.09610  1.0000 2.1083476603
Yb  Yb7       1.0  0.76047  0.90721  0.96290  1.0000 2.0526958763
Yb  Yb8       1.0  0.23953  0.09279  0.03710  1.0000 2.0526958763
H   H1        1.0  0.48400  0.58470  0.78030  1.0000 0.3514466792
H   H2        1.0  0.51600  0.41530  0.21970  1.0000 0.3514466792
H   H3        1.0  0.49520  0.52310  0.77080  1.0000 0.3592210471
H   H4        1.0  0.50480  0.47690  0.22920  1.0000 0.3592210471
H   H5        1.0  0.98610  0.54550  0.81460  1.0000 0.3389894773
H   H6        1.0  0.01390  0.45450  0.18540  1.0000 0.3389894773
H   H7        1.0  0.11870  0.56110  0.83500  1.0000 0.3389894773
H   H8        1.0  0.88130  0.43890  0.16500  1.0000 0.3389894773
H   H9        1.0  0.83130  0.59250  0.73020  1.0000 0.368333517
H   H10       1.0  0.16870  0.40750  0.26980  1.0000 0.368333517
H   H11       1.0  0.88270  0.53320  0.70930  1.0000 0.3774183005
H   H12       1.0  0.11730  0.46680  0.29070  1.0000 0.3774183005
H   H13       1.0  0.89250  0.57150  0.60730  1.0000 0.4084192474
H   H14       1.0  0.10750  0.42850  0.39270  1.0000 0.4084192474
H   H15       1.0  0.94920  0.53260  0.55270  1.0000 0.4084192474
H   H16       1.0  0.05080  0.46740  0.44730  1.0000 0.4084192474
H   H17       1.0  0.18160  0.74730  0.94750  1.0000 0.368333517
H   H18       1.0  0.81840  0.25270  0.05250  1.0000 0.368333517
H   H19       1.0  0.21910  0.73970  0.88890  1.0000 0.3592210471
H   H20       1.0  0.78090  0.26030  0.11110  1.0000 0.3592210471
H   H21       1.0  0.88740  0.70120  0.91140  1.0000 0.4084192474
H   H22       1.0  0.11260  0.29880  0.08860  1.0000 0.4084192474
H   H23       1.0  0.80690  0.65590  0.94880  1.0000 0.3887623906
H   H24       1.0  0.19310  0.34410  0.05120  1.0000 0.3887623906
H   H25       1.0  0.56780  0.61140  0.94100  1.0000 0.3389894773
H   H26       1.0  0.43220  0.38860  0.05900  1.0000 0.3389894773
H   H27       1.0  0.41250  0.62460  0.92950  1.0000 0.3514466792
H   H28       1.0  0.58750  0.37540  0.07050  1.0000 0.3514466792
H   H29       1.0  0.61570  0.01440  0.91500  1.0000 0.3514466792
H   H30       1.0  0.38430  0.98560  0.08500  1.0000 0.3514466792
H   H31       1.0  0.72550  0.05270  0.92030  1.0000 0.3774183005
H   H32       1.0  0.27450  0.94730  0.07970  1.0000 0.3774183005
H   H33       1.0  0.43590  0.35580  0.74740  1.0000 0.1301625132
H   H34       1.0  0.56410  0.64420  0.25260  1.0000 0.1301625132
H   H35       1.0  0.46110  0.28710  0.56120  1.0000 0.1301625132
H   H36       1.0  0.53890  0.71290  0.43880  1.0000 0.1301625132
H   H37       1.0  0.55270  0.21540  0.63880  1.0000 0.1216083158
H   H38       1.0  0.44730  0.78460  0.36120  1.0000 0.1216083158
H   H39       1.0  0.59760  0.22870  0.87490  1.0000 0.1301625132
H   H40       1.0  0.40240  0.77130  0.12510  1.0000 0.1301625132
H   H41       1.0  0.02890  0.25280  0.85010  1.0000 0.1216083158
H   H42       1.0  0.97110  0.74720  0.14990  1.0000 0.1216083158
H   H43       1.0  0.23140  0.25390  0.76790  1.0000 0.1216083158
H   H44       1.0  0.76860  0.74610  0.23210  1.0000 0.1216083158
H   H45       1.0  0.65980  0.71790  0.56890  1.0000 0.1378799886
H   H46       1.0  0.34020  0.28210  0.43110  1.0000 0.1378799886
H   H47       1.0  0.66200  0.81470  0.73980  1.0000 0.1301625132
H   H48       1.0  0.33800  0.18530  0.26020  1.0000 0.1301625132
H   H49       1.0  0.76440  0.86220  0.64850  1.0000 0.1216083158
H   H50       1.0  0.23560  0.13780  0.35150  1.0000 0.1216083158
H   H51       1.0  0.02240  0.72960  0.58440  1.0000 0.1301625132
H   H52       1.0  0.97760  0.27040  0.41560  1.0000 0.1301625132
H   H53       1.0  0.02060  0.68620  0.38960  1.0000 0.1301625132
H   H54       1.0  0.97940  0.31380  0.61040  1.0000 0.1301625132
H   H55       1.0  0.86640  0.78100  0.42180  1.0000 0.1216083158
H   H56       1.0  0.13360  0.21900  0.57820  1.0000 0.1216083158
H   H57       1.0  0.35330  0.91100  0.78230  1.0000 0.1301625132
H   H58       1.0  0.64670  0.08900  0.21770  1.0000 0.1301625132
H   H59       1.0  0.15260  0.11470  0.83720  1.0000 0.1216083158
H   H60       1.0  0.84740  0.88530  0.16280  1.0000 0.1216083158
H   H61       1.0  0.10340  0.08870  0.74680  1.0000 0.1216083158
H   H62       1.0  0.89660  0.91130  0.25320  1.0000 0.1216083158
H   H63       1.0  0.96140  0.92850  0.78380  1.0000 0.1301625132
H   H64       1.0  0.03860  0.07150  0.21620  1.0000 0.1301625132
H   H65       1.0  0.22460  0.75540  0.68420  1.0000 0.1301625132
H   H66       1.0  0.77540  0.24460  0.31580  1.0000 0.1301625132
H   H67       1.0  0.28140  0.85680  0.64840  1.0000 0.1216083158
H   H68       1.0  0.71860  0.14320  0.35160  1.0000 0.1216083158
C   C1        1.0  0.56350  0.23280  0.75590  1.0000 -0.2725879491
C   C2        1.0  0.43650  0.76720  0.24410  1.0000 -0.2725879491
C   C3        1.0  0.50340  0.27740  0.70270  1.0000 0.0794675307
C   C4        1.0  0.49660  0.72260  0.29730  1.0000 0.0794675307
C   C5        1.0  0.44670  0.34220  0.70950  1.0000 -0.1559185102
C   C6        1.0  0.55330  0.65780  0.29050  1.0000 -0.1559185102
C   C7        1.0  0.40560  0.38740  0.66170  1.0000 0.001606685
C   C8        1.0  0.59440  0.61260  0.33830  1.0000 0.001606685
C   C9        1.0  0.41260  0.36660  0.60490  1.0000 -0.0398233231
C   C10       1.0  0.58740  0.63340  0.39510  1.0000 -0.0398233231
C   C11       1.0  0.46210  0.30150  0.59820  1.0000 -0.0757133976
C   C12       1.0  0.53790  0.69850  0.40180  1.0000 -0.0757133976
C   C13       1.0  0.51240  0.25800  0.64520  1.0000 -0.1486643762
C   C14       1.0  0.48760  0.74200  0.35480  1.0000 -0.1486643762
C   C15       1.0  0.34560  0.45550  0.67420  1.0000 0.6242327749
C   C16       1.0  0.65440  0.54450  0.32580  1.0000 0.6242327749
C   C17       1.0  0.37970  0.41030  0.55060  1.0000 0.6242327749
C   C18       1.0  0.62030  0.58970  0.44940  1.0000 0.6242327749
C   C19       1.0  0.43410  0.23920  0.81230  1.0000 0.0682539627
C   C20       1.0  0.56590  0.76080  0.18770  1.0000 0.0682539627
C   C21       1.0  0.48370  0.23190  0.86990  1.0000 -0.1410170123
C   C22       1.0  0.51630  0.76810  0.13010  1.0000 -0.1410170123
C   C23       1.0  0.36200  0.22950  0.92000  1.0000 -0.0398233231
C   C24       1.0  0.63800  0.77050  0.08000  1.0000 -0.0398233231
C   C25       1.0  0.19080  0.23370  0.91320  1.0000 -0.0307473984
C   C26       1.0  0.80920  0.76630  0.08680  1.0000 -0.0307473984
C   C27       1.0  0.14310  0.24570  0.85560  1.0000 -0.1086067498
C   C28       1.0  0.85690  0.75430  0.14440  1.0000 -0.1086067498
C   C29       1.0  0.26550  0.24720  0.80600  1.0000 -0.1283269167
C   C30       1.0  0.73450  0.75280  0.19400  1.0000 -0.1283269167
C   C31       1.0  0.41560  0.22540  0.98020  1.0000 0.6132146031
C   C32       1.0  0.58440  0.77460  0.01980  1.0000 0.6132146031
C   C33       1.0  0.05690  0.22450  0.96460  1.0000 0.6132146031
C   C34       1.0  0.94310  0.77550  0.03540  1.0000 0.6132146031
C   C35       1.0  0.73820  0.24750  0.76470  1.0000 0.6689073044
C   C36       1.0  0.26180  0.75250  0.23530  1.0000 0.6689073044
C   C37       1.0  0.58260  0.16070  0.74490  1.0000 0.6689073044
C   C38       1.0  0.41740  0.83930  0.25510  1.0000 0.6689073044
C   C39       1.0  0.80240  0.81990  0.53650  1.0000 -0.2823007644
C   C40       1.0  0.19760  0.18010  0.46350  1.0000 -0.2823007644
C   C41       1.0  0.72670  0.79450  0.59870  1.0000 0.0794675307
C   C42       1.0  0.27330  0.20550  0.40130  1.0000 0.0794675307
C   C43       1.0  0.66290  0.73700  0.60340  1.0000 -0.1486643762
C   C44       1.0  0.33710  0.26300  0.39660  1.0000 -0.1486643762
C   C45       1.0  0.60440  0.70780  0.65780  1.0000 -0.0216768306
C   C46       1.0  0.39560  0.29220  0.34220  1.0000 -0.0216768306
C   C47       1.0  0.60730  0.73670  0.71000  1.0000 -0.0307473984
C   C48       1.0  0.39270  0.26330  0.29000  1.0000 -0.0307473984
C   C49       1.0  0.66420  0.79460  0.70550  1.0000 -0.0757133976
C   C50       1.0  0.33580  0.20540  0.29450  1.0000 -0.0757133976
C   C51       1.0  0.72470  0.82330  0.65070  1.0000 -0.1410170123
C   C52       1.0  0.27530  0.17670  0.34930  1.0000 -0.1410170123
C   C53       1.0  0.53160  0.64640  0.65850  1.0000 0.6689073044
C   C54       1.0  0.46840  0.35360  0.34150  1.0000 0.6689073044
C   C55       1.0  0.57480  0.69920  0.77030  1.0000 0.6487746298
C   C56       1.0  0.42520  0.30080  0.22970  1.0000 0.6487746298
C   C57       1.0  0.91810  0.76360  0.50800  1.0000 0.0794675307
C   C58       1.0  0.08190  0.23640  0.49200  1.0000 0.0794675307
C   C59       1.0  0.01890  0.72040  0.54560  1.0000 -0.1486643762
C   C60       1.0  0.98110  0.27960  0.45440  1.0000 -0.1486643762
C   C61       1.0  0.11350  0.66430  0.52640  1.0000 -0.0216768306
C   C62       1.0  0.88650  0.33570  0.47360  1.0000 -0.0216768306
C   C63       1.0  0.11010  0.64980  0.46830  1.0000 -0.0307473984
C   C64       1.0  0.88990  0.35020  0.53170  1.0000 -0.0307473984
C   C65       1.0  0.01870  0.69440  0.42900  1.0000 -0.0706331857
C   C66       1.0  0.98130  0.30560  0.57100  1.0000 -0.0706331857
C   C67       1.0  0.92470  0.75130  0.44850  1.0000 -0.1486643762
C   C68       1.0  0.07530  0.24870  0.55150  1.0000 -0.1486643762
C   C69       1.0  0.21970  0.62110  0.56930  1.0000 0.6859239399
C   C70       1.0  0.78030  0.37890  0.43070  1.0000 0.6859239399
C   C71       1.0  0.18350  0.58560  0.45020  1.0000 0.565637356
C   C72       1.0  0.81650  0.41440  0.54980  1.0000 0.565637356
C   C73       1.0  0.65000  0.84810  0.50050  1.0000 0.6689073044
C   C74       1.0  0.35000  0.15190  0.49950  1.0000 0.6689073044
C   C75       1.0  0.90970  0.87310  0.53640  1.0000 0.663439697
C   C76       1.0  0.09030  0.12690  0.46360  1.0000 0.6689073044
C   C77       1.0  0.17460  0.97270  0.69910  1.0000 -0.2823007644
C   C78       1.0  0.82540  0.02730  0.30090  1.0000 -0.2823007644
C   C79       1.0  0.21540  0.99610  0.75640  1.0000 0.0682539627
C   C80       1.0  0.78460  0.00390  0.24360  1.0000 0.0682539627
C   C81       1.0  0.31140  0.95180  0.79380  1.0000 -0.1410170123
C   C82       1.0  0.68860  0.04820  0.20620  1.0000 -0.1410170123
C   C83       1.0  0.34560  0.96740  0.84780  1.0000 -0.0504458487
C   C84       1.0  0.65440  0.03260  0.15220  1.0000 -0.0504458487
C   C85       1.0  0.28500  0.02830  0.86560  1.0000 -0.0216768306
C   C86       1.0  0.71500  0.97170  0.13440  1.0000 -0.0216768306
C   C87       1.0  0.19280  0.07350  0.82640  1.0000 -0.1086067498
C   C88       1.0  0.80720  0.92650  0.17360  1.0000 -0.1086067498
C   C89       1.0  0.16140  0.05780  0.77260  1.0000 -0.1410170123
C   C90       1.0  0.83860  0.94220  0.22740  1.0000 -0.1410170123
C   C91       1.0  0.43440  0.91520  0.88900  1.0000 0.6487746298
C   C92       1.0  0.56560  0.08480  0.11100  1.0000 0.6487746298
C   C93       1.0  0.28400  0.04620  0.92710  1.0000 0.5487153589
C   C94       1.0  0.71600  0.95380  0.07290  1.0000 0.5487153589
C   C95       1.0  0.13550  0.90330  0.71440  1.0000 0.0794675307
C   C96       1.0  0.86450  0.09670  0.28560  1.0000 0.0794675307
C   C97       1.0  0.01850  0.89340  0.76470  1.0000 -0.1486643762
C   C98       1.0  0.98150  0.10660  0.23530  1.0000 -0.1486643762
C   C99       1.0  0.98620  0.83280  0.78640  1.0000 -0.0307473984
C   C100      1.0  0.01380  0.16720  0.21360  1.0000 -0.0307473984
C   C101      1.0  0.07250  0.77970  0.75680  1.0000 -0.0216768306
C   C102      1.0  0.92750  0.22030  0.24320  1.0000 -0.0216768306
C   C103      1.0  0.17560  0.79010  0.70530  1.0000 -0.0856046915
C   C104      1.0  0.82440  0.20990  0.29470  1.0000 -0.0856046915
C   C105      1.0  0.20950  0.85100  0.68350  1.0000 -0.1410170123
C   C106      1.0  0.79050  0.14900  0.31650  1.0000 -0.1410170123
C   C107      1.0  0.85320  0.82840  0.83970  1.0000 0.663439697
C   C108      1.0  0.14680  0.17160  0.16030  1.0000 0.663439697
C   C109      1.0  0.07130  0.71020  0.78690  1.0000 0.6340875089
C   C110      1.0  0.92870  0.28980  0.21310  1.0000 0.6340875089
C   C111      1.0  0.33020  0.97830  0.65210  1.0000 0.6689073044
C   C112      1.0  0.66980  0.02170  0.34790  1.0000 0.6689073044
C   C113      1.0  0.01590  0.01430  0.67390  1.0000 0.6689073044
C   C114      1.0  0.98410  0.98570  0.32610  1.0000 0.6689073044
O   O1        1.0  0.20670  0.46830  0.70600  1.0000 -0.6170908749
O   O2        1.0  0.79330  0.53170  0.29400  1.0000 -0.6170908749
O   O3        1.0  0.43190  0.49990  0.65634  1.0000 -0.7015209437
O   O4        1.0  0.56810  0.50010  0.34366  1.0000 -0.7015209437
O   O5        1.0  0.43770  0.46290  0.54220  1.0000 -0.7106889937
O   O6        1.0  0.56230  0.53710  0.45780  1.0000 -0.7106889937
O   O7        1.0  0.30750  0.39300  0.51097  1.0000 -0.5996766925
O   O8        1.0  0.69250  0.60700  0.48903  1.0000 -0.5996766925
O   O9        1.0  0.35110  0.19070  0.02381  1.0000 -0.7361260594
O   O10       1.0  0.64890  0.80930  0.97619  1.0000 -0.7342126906
O   O11       1.0  0.52100  0.25980  0.98980  1.0000 -0.5996766925
O   O12       1.0  0.47900  0.74020  0.01020  1.0000 -0.5996766925
O   O13       1.0  0.05790  0.16720  0.98910  1.0000 -0.6502705753
O   O14       1.0  0.94210  0.83280  0.01090  1.0000 -0.6502705753
O   O15       1.0  0.94790  0.27100  0.97860  1.0000 -0.5281048059
O   O16       1.0  0.05210  0.72900  0.02140  1.0000 -0.5281048059
O   O17       1.0  0.38590  0.64490  0.68565  1.0000 -0.6795811793
O   O18       1.0  0.61410  0.35510  0.31435  1.0000 -0.6795811793
O   O19       1.0  0.62040  0.60280  0.63000  1.0000 -0.6868914505
O   O20       1.0  0.37960  0.39720  0.37000  1.0000 -0.6868914505
O   O21       1.0  0.50140  0.73080  0.81400  1.0000 -0.7106889937
O   O22       1.0  0.49860  0.26920  0.18600  1.0000 -0.7106889937
O   O23       1.0  0.62670  0.63980  0.77560  1.0000 -0.5729471386
O   O24       1.0  0.37330  0.36020  0.22440  1.0000 -0.5729471386
O   O25       1.0  0.14290  0.60720  0.62142  1.0000 -0.7152339757
O   O26       1.0  0.85710  0.39280  0.37858  1.0000 -0.7106889937
O   O27       1.0  0.37270  0.60260  0.55347  1.0000 -0.6376789153
O   O28       1.0  0.62730  0.39740  0.44653  1.0000 -0.6376789153
O   O29       1.0  0.25310  0.57750  0.39764  1.0000 -0.6116166055
O   O30       1.0  0.74690  0.42250  0.60236  1.0000 -0.6116166055
O   O31       1.0  0.17610  0.53840  0.49000  1.0000 -0.6116166055
O   O32       1.0  0.82390  0.46160  0.51000  1.0000 -0.6116166055
O   O33       1.0  0.44260  0.85850  0.87820  1.0000 -0.6376789153
O   O34       1.0  0.55740  0.14150  0.12180  1.0000 -0.6376789153
O   O35       1.0  0.49310  0.93250  0.93330  1.0000 -0.6868914505
O   O36       1.0  0.50690  0.06750  0.06670  1.0000 -0.6795811793
O   O37       1.0  0.38980  0.07810  0.94090  1.0000 -0.6502705753
O   O38       1.0  0.61020  0.92190  0.05910  1.0000 -0.6502705753
O   O39       1.0  0.16390  0.03090  0.96590  1.0000 -0.5281048059
O   O40       1.0  0.83610  0.96910  0.03410  1.0000 -0.5281048059
O   O41       1.0  0.76190  0.78580  0.84310  1.0000 -0.6653498352
O   O42       1.0  0.23810  0.21420  0.15690  1.0000 -0.6653498352
O   O43       1.0  0.83820  0.87060  0.87520  1.0000 -0.6502705753
O   O44       1.0  0.16180  0.12940  0.12480  1.0000 -0.6502705753
O   O45       1.0  0.07000  0.66830  0.75260  1.0000 -0.7106889937
O   O46       1.0  0.93000  0.33170  0.24740  1.0000 -0.7106889937
O   O47       1.0  0.08210  0.70130  0.84160  1.0000 -0.5477379501
O   O48       1.0  0.91790  0.29870  0.15840  1.0000 -0.5477379501
O   O49       1.0  0.41470  0.55090  0.77780  1.0000 -0.7684020042
O   O50       1.0  0.58530  0.44910  0.22220  1.0000 -0.7684020042
O   O51       1.0  0.09870  0.53110  0.81270  1.0000 -0.7483076692
O   O52       1.0  0.90130  0.46890  0.18730  1.0000 -0.7483076692
O   O53       1.0  0.91210  0.57030  0.71510  1.0000 -0.7684020042
O   O54       1.0  0.08790  0.42970  0.28490  1.0000 -0.7684020042
O   O55       1.0  0.89680  0.53750  0.58400  1.0000 -0.7811580241
O   O56       1.0  0.10320  0.46250  0.41600  1.0000 -0.7811580241
O   O57       1.0  0.24870  0.75900  0.91500  1.0000 -0.7993274272
O   O58       1.0  0.75130  0.24100  0.08500  1.0000 -0.7993274272
O   O59       1.0  0.78690  0.68600  0.92170  1.0000 -0.7993274272
O   O60       1.0  0.21310  0.31400  0.07830  1.0000 -0.7993274272
O   O61       1.0  0.49030  0.64590  0.92910  1.0000 -0.7483076692
O   O62       1.0  0.50970  0.35410  0.07090  1.0000 -0.7483076692
O   O63       1.0  0.03070  0.93420  0.93050  1.0000 -0.0002156068
O   O64       1.0  0.96930  0.06580  0.06950  1.0000 0.001606685
O   O65       1.0  0.71950  0.01250  0.91930  1.0000 -0.7361260594
O   O66       1.0  0.28050  0.98750  0.08070  1.0000 -0.7361260594
F   F1        1.0  0.83920  0.25250  0.71340  1.0000 -0.1904140614
F   F2        1.0  0.16080  0.74750  0.28660  1.0000 -0.1904140614
F   F3        1.0  0.82370  0.20050  0.80116  1.0000 -0.2088534326
F   F4        1.0  0.17630  0.79950  0.19884  1.0000 -0.2088534326
F   F5        1.0  0.72740  0.30160  0.78963  1.0000 -0.1904140614
F   F6        1.0  0.27260  0.69840  0.21037  1.0000 -0.1904140614
F   F7        1.0  0.71370  0.14440  0.70323  1.0000 -0.2000703127
F   F8        1.0  0.28630  0.85560  0.29677  1.0000 -0.2000703127
F   F9        1.0  0.44420  0.14770  0.72613  1.0000 -0.1836116627
F   F10       1.0  0.55580  0.85230  0.27387  1.0000 -0.1836116627
F   F11       1.0  0.61290  0.12160  0.79400  1.0000 -0.1904140614
F   F12       1.0  0.38710  0.87840  0.20600  1.0000 -0.1904140614
F   F13       1.0  0.56810  0.80303  0.48921  1.0000 -0.1836116627
F   F14       1.0  0.43190  0.19697  0.51079  1.0000 -0.1836116627
F   F15       1.0  0.53760  0.89010  0.53100  1.0000 -0.1904140614
F   F16       1.0  0.46240  0.10990  0.46900  1.0000 -0.1904140614
F   F17       1.0  0.69800  0.87970  0.44788  1.0000 -0.2000703127
F   F18       1.0  0.30200  0.12030  0.55212  1.0000 -0.2000703127
F   F19       1.0  0.99240  0.88670  0.48273  1.0000 -0.1904140614
F   F20       1.0  0.00760  0.11330  0.51727  1.0000 -0.1904140614
F   F21       1.0  0.81960  0.92758  0.55319  1.0000 -0.1904140614
F   F22       1.0  0.18040  0.07242  0.44681  1.0000 -0.1904140614
F   F23       1.0  0.02770  0.85423  0.57406  1.0000 -0.1904140614
F   F24       1.0  0.97230  0.14577  0.42594  1.0000 -0.1904140614
F   F25       1.0  0.37680  0.03591  0.64811  1.0000 -0.1904140614
F   F26       1.0  0.62320  0.96409  0.35189  1.0000 -0.1904140614
F   F27       1.0  0.46310  0.93571  0.66758  1.0000 -0.1904140614
F   F28       1.0  0.53690  0.06429  0.33242  1.0000 -0.1904140614
F   F29       1.0  0.30310  0.96820  0.59774  1.0000 -0.2000703127
F   F30       1.0  0.69690  0.03180  0.40226  1.0000 -0.2000703127
F   F31       1.0  0.04470  0.07372  0.65029  1.0000 -0.2000703127
F   F32       1.0  0.95530  0.92628  0.34971  1.0000 -0.2000703127
F   F33       1.0  0.88520  0.02186  0.71639  1.0000 -0.2000703127
F   F34       1.0  0.11480  0.97814  0.28361  1.0000 -0.2000703127
F   F35       1.0  0.96860  0.98750  0.63050  1.0000 -0.1904140614
F   F36       1.0  0.03140  0.01250  0.36950  1.0000 -0.1904140614
