# DDEC6 charges by PACMAN v1.1 (https://github.com/mtap-research/PACMAN-charge/)
data_2013[Co][mab]3[FSR]1
_chemical_formula_sum              "Co4 H84 C104 N8 O16"
_cell_length_a       14.909
_cell_length_b       7.1963
_cell_length_c       24.592
_cell_angle_alpha    90
_cell_angle_beta     104.312
_cell_angle_gamma    90

_symmetry_space_group_name_H-M    "P 1"
_symmetry_Int_Tables_number       1

loop_
  _symmetry_equiv_pos_as_xyz
  'x, y, z'

loop_
  _atom_site_type_symbol
  _atom_site_label
  _atom_site_symmetry_multiplicity
  _atom_site_fract_x
  _atom_site_fract_y
  _atom_site_fract_z
  _atom_site_occupancy
  _atom_site_charge
Co  Co1       1.0  0.43922  0.66206  0.48826  1.0000 0.891590546
Co  Co2       1.0  0.56078  0.66206  0.01174  1.0000 0.891590546
Co  Co3       1.0  0.56078  0.33794  0.51174  1.0000 0.891590546
Co  Co4       1.0  0.43922  0.33794  0.98826  1.0000 0.891590546
H   H1        1.0  0.57090  0.04080  0.63110  1.0000 0.1198572491
H   H2        1.0  0.42910  0.04080  0.86890  1.0000 0.1198572491
H   H3        1.0  0.42910  0.95920  0.36890  1.0000 0.1198572491
H   H4        1.0  0.57090  0.95920  0.13110  1.0000 0.1198572491
H   H5        1.0  0.65400  0.16670  0.71250  1.0000 0.1198572491
H   H6        1.0  0.34600  0.16670  0.78750  1.0000 0.1198572491
H   H7        1.0  0.34600  0.83330  0.28750  1.0000 0.1198572491
H   H8        1.0  0.65400  0.83330  0.21250  1.0000 0.1198572491
H   H9        1.0  0.82380  0.72810  0.73740  1.0000 0.1198572491
H   H10       1.0  0.17620  0.72810  0.76260  1.0000 0.1198572491
H   H11       1.0  0.17620  0.27190  0.26260  1.0000 0.1198572491
H   H12       1.0  0.82380  0.27190  0.23740  1.0000 0.1198572491
H   H13       1.0  0.73460  0.59250  0.65880  1.0000 0.1198572491
H   H14       1.0  0.26540  0.59250  0.84120  1.0000 0.1198572491
H   H15       1.0  0.26540  0.40750  0.34120  1.0000 0.1198572491
H   H16       1.0  0.73460  0.40750  0.15880  1.0000 0.1198572491
H   H17       1.0  0.88990  0.15170  0.73260  1.0000 0.1281973562
H   H18       1.0  0.11010  0.15170  0.76740  1.0000 0.1281973562
H   H19       1.0  0.11010  0.84830  0.26740  1.0000 0.1281973562
H   H20       1.0  0.88990  0.84830  0.23260  1.0000 0.1281973562
H   H21       1.0  0.82370  0.30900  0.74340  1.0000 0.1198572491
H   H22       1.0  0.17630  0.30900  0.75660  1.0000 0.1198572491
H   H23       1.0  0.17630  0.69100  0.25660  1.0000 0.1198572491
H   H24       1.0  0.82370  0.69100  0.24340  1.0000 0.1198572491
H   H25       1.0  0.91310  0.25910  0.78980  1.0000 0.1281973562
H   H26       1.0  0.08690  0.25910  0.71020  1.0000 0.1281973562
H   H27       1.0  0.08690  0.74090  0.21020  1.0000 0.1281973562
H   H28       1.0  0.91310  0.74090  0.28980  1.0000 0.1281973562
H   H29       1.0  0.84630  0.84940  0.84030  1.0000 0.1198572491
H   H30       1.0  0.15370  0.84940  0.65970  1.0000 0.1198572491
H   H31       1.0  0.15370  0.15060  0.15970  1.0000 0.1198572491
H   H32       1.0  0.84630  0.15060  0.34030  1.0000 0.1198572491
H   H33       1.0  0.91690  0.88090  0.80340  1.0000 0.1281973562
H   H34       1.0  0.08310  0.88090  0.69660  1.0000 0.1281973562
H   H35       1.0  0.08310  0.11910  0.19660  1.0000 0.1281973562
H   H36       1.0  0.91690  0.11910  0.30340  1.0000 0.1281973562
H   H37       1.0  0.91650  0.01520  0.85350  1.0000 0.1281973562
H   H38       1.0  0.08350  0.01520  0.64650  1.0000 0.1281973562
H   H39       1.0  0.08350  0.98480  0.14650  1.0000 0.1281973562
H   H40       1.0  0.91650  0.98480  0.35350  1.0000 0.1281973562
H   H41       1.0  0.66990  0.92800  0.81960  1.0000 0.1198572491
H   H42       1.0  0.33010  0.92800  0.68040  1.0000 0.1198572491
H   H43       1.0  0.33010  0.07200  0.18040  1.0000 0.1198572491
H   H44       1.0  0.66990  0.07200  0.31960  1.0000 0.1198572491
H   H45       1.0  0.58790  0.03610  0.88110  1.0000 0.1198572491
H   H46       1.0  0.41210  0.03610  0.61890  1.0000 0.1198572491
H   H47       1.0  0.41210  0.96390  0.11890  1.0000 0.1198572491
H   H48       1.0  0.58790  0.96390  0.38110  1.0000 0.1198572491
H   H49       1.0  0.72320  0.52190  0.89370  1.0000 0.1198572491
H   H50       1.0  0.27680  0.52190  0.60630  1.0000 0.1198572491
H   H51       1.0  0.27680  0.47810  0.10630  1.0000 0.1198572491
H   H52       1.0  0.72320  0.47810  0.39370  1.0000 0.1198572491
H   H53       1.0  0.80900  0.40680  0.83360  1.0000 0.1118675847
H   H54       1.0  0.19100  0.40680  0.66640  1.0000 0.1118675847
H   H55       1.0  0.19100  0.59320  0.16640  1.0000 0.1118675847
H   H56       1.0  0.80900  0.59320  0.33360  1.0000 0.1118675847
H   H57       1.0  0.32940  0.02980  0.51190  1.0000 0.1198572491
H   H58       1.0  0.67060  0.02980  0.98810  1.0000 0.1198572491
H   H59       1.0  0.67060  0.97020  0.48810  1.0000 0.1198572491
H   H60       1.0  0.32940  0.97020  0.01190  1.0000 0.1198572491
H   H61       1.0  0.24850  0.67950  0.38790  1.0000 0.1281973562
H   H62       1.0  0.75150  0.67950  0.11210  1.0000 0.1281973562
H   H63       1.0  0.75150  0.32050  0.61210  1.0000 0.1281973562
H   H64       1.0  0.24850  0.32050  0.88790  1.0000 0.1281973562
H   H65       1.0  0.12450  0.90130  0.38500  1.0000 0.1281973562
H   H66       1.0  0.87550  0.90130  0.11500  1.0000 0.1281973562
H   H67       1.0  0.87550  0.09870  0.61500  1.0000 0.1281973562
H   H68       1.0  0.12450  0.09870  0.88500  1.0000 0.1281973562
H   H69       1.0  0.11020  0.27160  0.39030  1.0000 0.1281973562
H   H70       1.0  0.88980  0.27160  0.10970  1.0000 0.1281973562
H   H71       1.0  0.88980  0.72840  0.60970  1.0000 0.1281973562
H   H72       1.0  0.11020  0.72840  0.89030  1.0000 0.1281973562
H   H73       1.0  0.01870  0.50040  0.41180  1.0000 0.1118675847
H   H74       1.0  0.98130  0.50040  0.08820  1.0000 0.1118675847
H   H75       1.0  0.98130  0.49960  0.58820  1.0000 0.1118675847
H   H76       1.0  0.01870  0.49960  0.91180  1.0000 0.1118675847
H   H77       1.0  0.07530  0.31250  0.57200  1.0000 0.1118675847
H   H78       1.0  0.92470  0.31250  0.92800  1.0000 0.1118675847
H   H79       1.0  0.92470  0.68750  0.42800  1.0000 0.1118675847
H   H80       1.0  0.07530  0.68750  0.07200  1.0000 0.1118675847
H   H81       1.0  0.16690  0.08680  0.54900  1.0000 0.1281973562
H   H82       1.0  0.83310  0.08680  0.95100  1.0000 0.1281973562
H   H83       1.0  0.83310  0.91320  0.45100  1.0000 0.1281973562
H   H84       1.0  0.16690  0.91320  0.04900  1.0000 0.1281973562
C   C1        1.0  0.58540  0.71210  0.58340  1.0000 0.5686974853
C   C2        1.0  0.41460  0.71210  0.91660  1.0000 0.5686974853
C   C3        1.0  0.41460  0.28790  0.41660  1.0000 0.5686974853
C   C4        1.0  0.58540  0.28790  0.08340  1.0000 0.5686974853
C   C5        1.0  0.64340  0.80150  0.63529  1.0000 -0.0228757042
C   C6        1.0  0.35660  0.80150  0.86471  1.0000 -0.0228757042
C   C7        1.0  0.35660  0.19850  0.36471  1.0000 -0.0228757042
C   C8        1.0  0.64340  0.19850  0.13529  1.0000 -0.0228757042
C   C9        1.0  0.62100  0.97580  0.65287  1.0000 -0.0993136312
C   C10       1.0  0.37900  0.97580  0.84713  1.0000 -0.0993136312
C   C11       1.0  0.37900  0.02420  0.34713  1.0000 -0.0993136312
C   C12       1.0  0.62100  0.02420  0.15287  1.0000 -0.0993136312
C   C13       1.0  0.67110  0.05150  0.70120  1.0000 -0.1407687978
C   C14       1.0  0.32890  0.05150  0.79880  1.0000 -0.1407687978
C   C15       1.0  0.32890  0.94850  0.29880  1.0000 -0.1407687978
C   C16       1.0  0.67110  0.94850  0.20120  1.0000 -0.1407687978
C   C17       1.0  0.74700  0.96190  0.73395  1.0000 0.059599714
C   C18       1.0  0.25300  0.96190  0.76605  1.0000 0.059599714
C   C19       1.0  0.25300  0.03810  0.26605  1.0000 0.059599714
C   C20       1.0  0.74700  0.03810  0.23395  1.0000 0.059599714
C   C21       1.0  0.77160  0.78930  0.71650  1.0000 -0.1562720136
C   C22       1.0  0.22840  0.78930  0.78350  1.0000 -0.1562720136
C   C23       1.0  0.22840  0.21070  0.28350  1.0000 -0.1562720136
C   C24       1.0  0.77160  0.21070  0.21650  1.0000 -0.1562720136
C   C25       1.0  0.71930  0.71040  0.66900  1.0000 -0.1188247454
C   C26       1.0  0.28070  0.71040  0.83100  1.0000 -0.1188247454
C   C27       1.0  0.28070  0.28960  0.33100  1.0000 -0.1188247454
C   C28       1.0  0.71930  0.28960  0.16900  1.0000 -0.1188247454
C   C29       1.0  0.86410  0.20990  0.76039  1.0000 -0.461088919
C   C30       1.0  0.13590  0.20990  0.73961  1.0000 -0.461088919
C   C31       1.0  0.13590  0.79010  0.23961  1.0000 -0.461088919
C   C32       1.0  0.86410  0.79010  0.26039  1.0000 -0.461088919
C   C33       1.0  0.80880  0.06560  0.78502  1.0000 0.1672142699
C   C34       1.0  0.19120  0.06560  0.71498  1.0000 0.1672142699
C   C35       1.0  0.19120  0.93440  0.21498  1.0000 0.1672142699
C   C36       1.0  0.80880  0.93440  0.28502  1.0000 0.1672142699
C   C37       1.0  0.87850  0.94130  0.82420  1.0000 -0.461088919
C   C38       1.0  0.12150  0.94130  0.67580  1.0000 -0.461088919
C   C39       1.0  0.12150  0.05870  0.17580  1.0000 -0.461088919
C   C40       1.0  0.87850  0.05870  0.32420  1.0000 -0.461088919
C   C41       1.0  0.74920  0.15440  0.82103  1.0000 0.059599714
C   C42       1.0  0.25080  0.15440  0.67897  1.0000 0.059599714
C   C43       1.0  0.25080  0.84560  0.17897  1.0000 0.059599714
C   C44       1.0  0.74920  0.84560  0.32103  1.0000 0.059599714
C   C45       1.0  0.68160  0.04660  0.83472  1.0000 -0.1562720136
C   C46       1.0  0.31840  0.04660  0.66528  1.0000 -0.1562720136
C   C47       1.0  0.31840  0.95340  0.16528  1.0000 -0.1562720136
C   C48       1.0  0.68160  0.95340  0.33472  1.0000 -0.1562720136
C   C49       1.0  0.63100  0.11370  0.87100  1.0000 -0.10980207
C   C50       1.0  0.36900  0.11370  0.62900  1.0000 -0.10980207
C   C51       1.0  0.36900  0.88630  0.12900  1.0000 -0.10980207
C   C52       1.0  0.63100  0.88630  0.37100  1.0000 -0.10980207
C   C53       1.0  0.64250  0.29250  0.89264  1.0000 -0.0395669945
C   C54       1.0  0.35750  0.29250  0.60736  1.0000 -0.0395669945
C   C55       1.0  0.35750  0.70750  0.10736  1.0000 -0.0395669945
C   C56       1.0  0.64250  0.70750  0.39264  1.0000 -0.0395669945
C   C57       1.0  0.71180  0.40270  0.87900  1.0000 -0.0993136312
C   C58       1.0  0.28820  0.40270  0.62100  1.0000 -0.0993136312
C   C59       1.0  0.28820  0.59730  0.12100  1.0000 -0.0993136312
C   C60       1.0  0.71180  0.59730  0.37900  1.0000 -0.0993136312
C   C61       1.0  0.76400  0.33250  0.84290  1.0000 -0.1714598855
C   C62       1.0  0.23600  0.33250  0.65710  1.0000 -0.1714598855
C   C63       1.0  0.23600  0.66750  0.15710  1.0000 -0.1714598855
C   C64       1.0  0.76400  0.66750  0.34290  1.0000 -0.1714598855
C   C65       1.0  0.58790  0.36420  0.93185  1.0000 0.5686974853
C   C66       1.0  0.41210  0.36420  0.56815  1.0000 0.5686974853
C   C67       1.0  0.41210  0.63580  0.06815  1.0000 0.5686974853
C   C68       1.0  0.58790  0.63580  0.43185  1.0000 0.5686974853
C   C69       1.0  0.29300  0.96540  0.48160  1.0000 0.1198572491
C   C70       1.0  0.70700  0.96540  0.01840  1.0000 0.1198572491
C   C71       1.0  0.70700  0.03460  0.51840  1.0000 0.1198572491
C   C72       1.0  0.29300  0.03460  0.98160  1.0000 0.1198572491
C   C73       1.0  0.24910  0.77470  0.41350  1.0000 -0.0332663179
C   C74       1.0  0.75090  0.77470  0.08650  1.0000 -0.0332663179
C   C75       1.0  0.75090  0.22530  0.58650  1.0000 -0.0332663179
C   C76       1.0  0.24910  0.22530  0.91350  1.0000 -0.0332663179
C   C77       1.0  0.18080  0.89810  0.41170  1.0000 -0.0993136312
C   C78       1.0  0.81920  0.89810  0.08830  1.0000 -0.0993136312
C   C79       1.0  0.81920  0.10190  0.58830  1.0000 -0.0993136312
C   C80       1.0  0.18080  0.10190  0.91170  1.0000 -0.0993136312
C   C81       1.0  0.14840  0.15760  0.46772  1.0000 0.1529937788
C   C82       1.0  0.85160  0.15760  0.03228  1.0000 0.1529937788
C   C83       1.0  0.85160  0.84240  0.53228  1.0000 0.1529937788
C   C84       1.0  0.14840  0.84240  0.96772  1.0000 0.1529937788
C   C85       1.0  0.10320  0.28120  0.42670  1.0000 -0.1714598855
C   C86       1.0  0.89680  0.28120  0.07330  1.0000 -0.1714598855
C   C87       1.0  0.89680  0.71880  0.57330  1.0000 -0.1714598855
C   C88       1.0  0.10320  0.71880  0.92670  1.0000 -0.1714598855
C   C89       1.0  0.04740  0.41990  0.44040  1.0000 -0.1407687978
C   C90       1.0  0.95260  0.41990  0.05960  1.0000 -0.1312278342
C   C91       1.0  0.95260  0.58010  0.55960  1.0000 -0.1312278342
C   C92       1.0  0.04740  0.58010  0.94040  1.0000 -0.1312278342
C   C93       1.0  0.03540  0.43260  0.49420  1.0000 0.072583112
C   C94       1.0  0.96460  0.43260  0.00580  1.0000 0.072583112
C   C95       1.0  0.96460  0.56740  0.50580  1.0000 0.072583112
C   C96       1.0  0.03540  0.56740  0.99420  1.0000 0.072583112
C   C97       1.0  0.08070  0.30890  0.53510  1.0000 -0.1312278342
C   C98       1.0  0.91930  0.30890  0.96490  1.0000 -0.1312278342
C   C99       1.0  0.91930  0.69110  0.46490  1.0000 -0.1312278342
C   C100      1.0  0.08070  0.69110  0.03510  1.0000 -0.1312278342
C   C101      1.0  0.13700  0.17050  0.52160  1.0000 -0.1714598855
C   C102      1.0  0.86300  0.17050  0.97840  1.0000 -0.1714598855
C   C103      1.0  0.86300  0.82950  0.47840  1.0000 -0.1714598855
C   C104      1.0  0.13700  0.82950  0.02160  1.0000 -0.1714598855
N   N1        1.0  0.32050  0.81300  0.45995  1.0000 -0.2831199737
N   N2        1.0  0.67950  0.81300  0.04005  1.0000 -0.2831199737
N   N3        1.0  0.67950  0.18700  0.54005  1.0000 -0.2831199737
N   N4        1.0  0.32050  0.18700  0.95995  1.0000 -0.2831199737
N   N5        1.0  0.20740  0.01590  0.45499  1.0000 0.0071304861
N   N6        1.0  0.79260  0.01590  0.04501  1.0000 0.0071304861
N   N7        1.0  0.79260  0.98410  0.54501  1.0000 0.0071304861
N   N8        1.0  0.20740  0.98410  0.95499  1.0000 0.0071304861
O   O1        1.0  0.51600  0.79650  0.55545  1.0000 -0.5177729623
O   O2        1.0  0.48400  0.79650  0.94455  1.0000 -0.5177729623
O   O3        1.0  0.48400  0.20350  0.44455  1.0000 -0.5177729623
O   O4        1.0  0.51600  0.20350  0.05545  1.0000 -0.5177729623
O   O5        1.0  0.61160  0.55480  0.57016  1.0000 -0.5827643172
O   O6        1.0  0.38840  0.55480  0.92984  1.0000 -0.5827643172
O   O7        1.0  0.38840  0.44520  0.42984  1.0000 -0.5827643172
O   O8        1.0  0.61160  0.44520  0.07016  1.0000 -0.5827643172
O   O9        1.0  0.52421  0.26880  0.93900  1.0000 -0.514667441
O   O10       1.0  0.47579  0.26880  0.56100  1.0000 -0.514667441
O   O11       1.0  0.47579  0.73120  0.06100  1.0000 -0.514667441
O   O12       1.0  0.52421  0.73120  0.43900  1.0000 -0.514667441
O   O13       1.0  0.61650  0.51760  0.95589  1.0000 -0.5524052874
O   O14       1.0  0.38350  0.51760  0.54411  1.0000 -0.5524052874
O   O15       1.0  0.38350  0.48240  0.04411  1.0000 -0.5524052874
O   O16       1.0  0.61650  0.48240  0.45589  1.0000 -0.5524052874
