# DDEC6 charges by PACMAN v1.1 (https://github.com/mtap-research/PACMAN-charge/)
data_2013[Zn][dia]3[FSR]2
_chemical_formula_sum              "Zn8 H160 C272 N32 O64"
_cell_length_a       14.1744
_cell_length_b       20.6042
_cell_length_c       25.9151
_cell_angle_alpha    90
_cell_angle_beta     90
_cell_angle_gamma    90

_symmetry_space_group_name_H-M    "P 1"
_symmetry_Int_Tables_number       1

loop_
  _symmetry_equiv_pos_as_xyz
  'x, y, z'

loop_
  _atom_site_type_symbol
  _atom_site_label
  _atom_site_symmetry_multiplicity
  _atom_site_fract_x
  _atom_site_fract_y
  _atom_site_fract_z
  _atom_site_occupancy
  _atom_site_charge
Zn  Zn1       1.0  0.24154  0.12308  0.90040  1.0000 0.7560520684
Zn  Zn2       1.0  0.25846  0.62308  0.59960  1.0000 0.7560520684
Zn  Zn3       1.0  0.75846  0.62308  0.90040  1.0000 0.7560520684
Zn  Zn4       1.0  0.74154  0.12308  0.59960  1.0000 0.7560520684
Zn  Zn5       1.0  0.24154  0.37692  0.09960  1.0000 0.7560520684
Zn  Zn6       1.0  0.25846  0.87692  0.40040  1.0000 0.7560520684
Zn  Zn7       1.0  0.75846  0.87692  0.09960  1.0000 0.7560520684
Zn  Zn8       1.0  0.74154  0.37692  0.40040  1.0000 0.7560520684
H   H1        1.0  0.43350  0.06570  0.91880  1.0000 0.1205818195
H   H2        1.0  0.06650  0.56570  0.58120  1.0000 0.1205818195
H   H3        1.0  0.56650  0.56570  0.91880  1.0000 0.1205818195
H   H4        1.0  0.93350  0.06570  0.58120  1.0000 0.1205818195
H   H5        1.0  0.54700  0.06260  0.98310  1.0000 0.1456104626
H   H6        1.0  0.95300  0.56260  0.51690  1.0000 0.1456104626
H   H7        1.0  0.45300  0.56260  0.98310  1.0000 0.1456104626
H   H8        1.0  0.04700  0.06260  0.51690  1.0000 0.1456104626
H   H9        1.0  0.38880  0.18820  0.06580  1.0000 0.1409238102
H   H10       1.0  0.11120  0.68820  0.43420  1.0000 0.1409238102
H   H11       1.0  0.61120  0.68820  0.06580  1.0000 0.1409238102
H   H12       1.0  0.88880  0.18820  0.43420  1.0000 0.1409238102
H   H13       1.0  0.27960  0.18850  0.99960  1.0000 0.1121375216
H   H14       1.0  0.22040  0.68850  0.50040  1.0000 0.1121375216
H   H15       1.0  0.72040  0.68850  0.99960  1.0000 0.1121375216
H   H16       1.0  0.77960  0.18850  0.50040  1.0000 0.1121375216
H   H17       1.0  0.59600  0.08670  0.06850  1.0000 0.1205818195
H   H18       1.0  0.90400  0.58670  0.43150  1.0000 0.1205818195
H   H19       1.0  0.40400  0.58670  0.06850  1.0000 0.1205818195
H   H20       1.0  0.09600  0.08670  0.43150  1.0000 0.1205818195
H   H21       1.0  0.59600  0.16420  0.06810  1.0000 0.1290472528
H   H22       1.0  0.90400  0.66420  0.43190  1.0000 0.1290472528
H   H23       1.0  0.40400  0.66420  0.06810  1.0000 0.1290472528
H   H24       1.0  0.09600  0.16420  0.43190  1.0000 0.1290472528
H   H25       1.0  0.47440  0.00640  0.25080  1.0000 0.1456104626
H   H26       1.0  0.02560  0.50640  0.24920  1.0000 0.1456104626
H   H27       1.0  0.52560  0.50640  0.25080  1.0000 0.1456104626
H   H28       1.0  0.97440  0.00640  0.24920  1.0000 0.1456104626
H   H29       1.0  0.49110  0.23860  0.25680  1.0000 0.1456104626
H   H30       1.0  0.00890  0.73860  0.24320  1.0000 0.1456104626
H   H31       1.0  0.50890  0.73860  0.25680  1.0000 0.1456104626
H   H32       1.0  0.99110  0.23860  0.24320  1.0000 0.1456104626
H   H33       1.0  0.37460  0.07810  0.43910  1.0000 0.1290472528
H   H34       1.0  0.12540  0.57810  0.06090  1.0000 0.1290472528
H   H35       1.0  0.62540  0.57810  0.43910  1.0000 0.1290472528
H   H36       1.0  0.87460  0.07810  0.06090  1.0000 0.1290472528
H   H37       1.0  0.37470  0.15560  0.44030  1.0000 0.1290472528
H   H38       1.0  0.12530  0.65560  0.05970  1.0000 0.1290472528
H   H39       1.0  0.62530  0.65560  0.44030  1.0000 0.1290472528
H   H40       1.0  0.87470  0.15560  0.05970  1.0000 0.1290472528
H   H41       1.0  0.43740  0.19000  0.51920  1.0000 0.1409238102
H   H42       1.0  0.06260  0.69000  0.98080  1.0000 0.1409238102
H   H43       1.0  0.56260  0.69000  0.51920  1.0000 0.1409238102
H   H44       1.0  0.93740  0.19000  0.98080  1.0000 0.1409238102
H   H45       1.0  0.55530  0.18790  0.58150  1.0000 0.1205818195
H   H46       1.0  0.94470  0.68790  0.91850  1.0000 0.1205818195
H   H47       1.0  0.44470  0.68790  0.58150  1.0000 0.1205818195
H   H48       1.0  0.05530  0.18790  0.91850  1.0000 0.1205818195
H   H49       1.0  0.67900  0.04050  0.51300  1.0000 0.1121375216
H   H50       1.0  0.82100  0.54050  0.98700  1.0000 0.1121375216
H   H51       1.0  0.32100  0.54050  0.51300  1.0000 0.1121375216
H   H52       1.0  0.17900  0.04050  0.98700  1.0000 0.1121375216
H   H53       1.0  0.56710  0.04020  0.44790  1.0000 0.1409238102
H   H54       1.0  0.93290  0.54020  0.05210  1.0000 0.1409238102
H   H55       1.0  0.43290  0.54020  0.44790  1.0000 0.1409238102
H   H56       1.0  0.06710  0.04020  0.05210  1.0000 0.1409238102
H   H57       1.0  0.24010  0.25000  0.77310  1.0000 0.1409238102
H   H58       1.0  0.25990  0.75000  0.72690  1.0000 0.1409238102
H   H59       1.0  0.75990  0.75000  0.77310  1.0000 0.1409238102
H   H60       1.0  0.74010  0.25000  0.72690  1.0000 0.1409238102
H   H61       1.0  0.24320  0.28550  0.68170  1.0000 0.1290472528
H   H62       1.0  0.25680  0.78550  0.81830  1.0000 0.1290472528
H   H63       1.0  0.75680  0.78550  0.68170  1.0000 0.1290472528
H   H64       1.0  0.74320  0.28550  0.81830  1.0000 0.1290472528
H   H65       1.0  0.24010  0.36850  0.62100  1.0000 0.0999526503
H   H66       1.0  0.25990  0.86850  0.87900  1.0000 0.0999526503
H   H67       1.0  0.75990  0.86850  0.62100  1.0000 0.0999526503
H   H68       1.0  0.74010  0.36850  0.87900  1.0000 0.0999526503
H   H69       1.0  0.22420  0.50340  0.73510  1.0000 0.1290472528
H   H70       1.0  0.27580  0.00340  0.76490  1.0000 0.1290472528
H   H71       1.0  0.77580  0.00340  0.73510  1.0000 0.1290472528
H   H72       1.0  0.72420  0.50340  0.76490  1.0000 0.1290472528
H   H73       1.0  0.21650  0.46740  0.82690  1.0000 0.1205818195
H   H74       1.0  0.28350  0.96740  0.67310  1.0000 0.1205818195
H   H75       1.0  0.78350  0.96740  0.82690  1.0000 0.1205818195
H   H76       1.0  0.71650  0.46740  0.67310  1.0000 0.1205818195
H   H77       1.0  0.21660  0.38370  0.88740  1.0000 0.1121375216
H   H78       1.0  0.28340  0.88370  0.61260  1.0000 0.1121375216
H   H79       1.0  0.78340  0.88370  0.88740  1.0000 0.1121375216
H   H80       1.0  0.71660  0.38370  0.61260  1.0000 0.1121375216
H   H81       1.0  0.43350  0.43430  0.08120  1.0000 0.1205818195
H   H82       1.0  0.06650  0.93430  0.41880  1.0000 0.1205818195
H   H83       1.0  0.56650  0.93430  0.08120  1.0000 0.1205818195
H   H84       1.0  0.93350  0.43430  0.41880  1.0000 0.1205818195
H   H85       1.0  0.54700  0.43740  0.01690  1.0000 0.1456104626
H   H86       1.0  0.95300  0.93740  0.48310  1.0000 0.1456104626
H   H87       1.0  0.45300  0.93740  0.01690  1.0000 0.1456104626
H   H88       1.0  0.04700  0.43740  0.48310  1.0000 0.1456104626
H   H89       1.0  0.38880  0.31180  0.93420  1.0000 0.1409238102
H   H90       1.0  0.11120  0.81180  0.56580  1.0000 0.1409238102
H   H91       1.0  0.61120  0.81180  0.93420  1.0000 0.1409238102
H   H92       1.0  0.88880  0.31180  0.56580  1.0000 0.1409238102
H   H93       1.0  0.27960  0.31150  0.00040  1.0000 0.1121375216
H   H94       1.0  0.22040  0.81150  0.49960  1.0000 0.1121375216
H   H95       1.0  0.72040  0.81150  0.00040  1.0000 0.1121375216
H   H96       1.0  0.77960  0.31150  0.49960  1.0000 0.1121375216
H   H97       1.0  0.59600  0.41330  0.93150  1.0000 0.1205818195
H   H98       1.0  0.90400  0.91330  0.56850  1.0000 0.1205818195
H   H99       1.0  0.40400  0.91330  0.93150  1.0000 0.1205818195
H   H100      1.0  0.09600  0.41330  0.56850  1.0000 0.1205818195
H   H101      1.0  0.59600  0.33580  0.93190  1.0000 0.1290472528
H   H102      1.0  0.90400  0.83580  0.56810  1.0000 0.1290472528
H   H103      1.0  0.40400  0.83580  0.93190  1.0000 0.1290472528
H   H104      1.0  0.09600  0.33580  0.56810  1.0000 0.1290472528
H   H105      1.0  0.47440  0.49360  0.74920  1.0000 0.1456104626
H   H106      1.0  0.02560  0.99360  0.75080  1.0000 0.1456104626
H   H107      1.0  0.52560  0.99360  0.74920  1.0000 0.1456104626
H   H108      1.0  0.97440  0.49360  0.75080  1.0000 0.1456104626
H   H109      1.0  0.49110  0.26140  0.74320  1.0000 0.1456104626
H   H110      1.0  0.00890  0.76140  0.75680  1.0000 0.1456104626
H   H111      1.0  0.50890  0.76140  0.74320  1.0000 0.1456104626
H   H112      1.0  0.99110  0.26140  0.75680  1.0000 0.1456104626
H   H113      1.0  0.37460  0.42190  0.56090  1.0000 0.1290472528
H   H114      1.0  0.12540  0.92190  0.93910  1.0000 0.1290472528
H   H115      1.0  0.62540  0.92190  0.56090  1.0000 0.1290472528
H   H116      1.0  0.87460  0.42190  0.93910  1.0000 0.1290472528
H   H117      1.0  0.37470  0.34440  0.55970  1.0000 0.1290472528
H   H118      1.0  0.12530  0.84440  0.94030  1.0000 0.1290472528
H   H119      1.0  0.62530  0.84440  0.55970  1.0000 0.1290472528
H   H120      1.0  0.87470  0.34440  0.94030  1.0000 0.1290472528
H   H121      1.0  0.43740  0.31000  0.48080  1.0000 0.1409238102
H   H122      1.0  0.06260  0.81000  0.01920  1.0000 0.1409238102
H   H123      1.0  0.56260  0.81000  0.48080  1.0000 0.1409238102
H   H124      1.0  0.93740  0.31000  0.01920  1.0000 0.1409238102
H   H125      1.0  0.55530  0.31210  0.41850  1.0000 0.1205818195
H   H126      1.0  0.94470  0.81210  0.08150  1.0000 0.1205818195
H   H127      1.0  0.44470  0.81210  0.41850  1.0000 0.1205818195
H   H128      1.0  0.05530  0.31210  0.08150  1.0000 0.1205818195
H   H129      1.0  0.67900  0.45950  0.48700  1.0000 0.1121375216
H   H130      1.0  0.82100  0.95950  0.01300  1.0000 0.1121375216
H   H131      1.0  0.32100  0.95950  0.48700  1.0000 0.1121375216
H   H132      1.0  0.17900  0.45950  0.01300  1.0000 0.1121375216
H   H133      1.0  0.56710  0.45980  0.55210  1.0000 0.1409238102
H   H134      1.0  0.93290  0.95980  0.94790  1.0000 0.1409238102
H   H135      1.0  0.43290  0.95980  0.55210  1.0000 0.1409238102
H   H136      1.0  0.06710  0.45980  0.94790  1.0000 0.1409238102
H   H137      1.0  0.24010  0.25000  0.22690  1.0000 0.1409238102
H   H138      1.0  0.25990  0.75000  0.27310  1.0000 0.1409238102
H   H139      1.0  0.75990  0.75000  0.22690  1.0000 0.1409238102
H   H140      1.0  0.74010  0.25000  0.27310  1.0000 0.1409238102
H   H141      1.0  0.24320  0.21450  0.31830  1.0000 0.1290472528
H   H142      1.0  0.25680  0.71450  0.18170  1.0000 0.1290472528
H   H143      1.0  0.75680  0.71450  0.31830  1.0000 0.1290472528
H   H144      1.0  0.74320  0.21450  0.18170  1.0000 0.1290472528
H   H145      1.0  0.24010  0.13150  0.37900  1.0000 0.0999526503
H   H146      1.0  0.25990  0.63150  0.12100  1.0000 0.0999526503
H   H147      1.0  0.75990  0.63150  0.37900  1.0000 0.0999526503
H   H148      1.0  0.74010  0.13150  0.12100  1.0000 0.0999526503
H   H149      1.0  0.22420  0.99660  0.26490  1.0000 0.1290472528
H   H150      1.0  0.27580  0.49660  0.23510  1.0000 0.1290472528
H   H151      1.0  0.77580  0.49660  0.26490  1.0000 0.1290472528
H   H152      1.0  0.72420  0.99660  0.23510  1.0000 0.1290472528
H   H153      1.0  0.21650  0.03260  0.17310  1.0000 0.1205818195
H   H154      1.0  0.28350  0.53260  0.32690  1.0000 0.1205818195
H   H155      1.0  0.78350  0.53260  0.17310  1.0000 0.1205818195
H   H156      1.0  0.71650  0.03260  0.32690  1.0000 0.1205818195
H   H157      1.0  0.21660  0.11630  0.11260  1.0000 0.1121375216
H   H158      1.0  0.28340  0.61630  0.38740  1.0000 0.1121375216
H   H159      1.0  0.78340  0.61630  0.11260  1.0000 0.1121375216
H   H160      1.0  0.71660  0.11630  0.38740  1.0000 0.1121375216
C   C1        1.0  0.42467  0.09106  0.94901  1.0000 0.1121375216
C   C2        1.0  0.07533  0.59106  0.55099  1.0000 0.1121375216
C   C3        1.0  0.57533  0.59106  0.94901  1.0000 0.1121375216
C   C4        1.0  0.92467  0.09106  0.55099  1.0000 0.1121375216
C   C5        1.0  0.49246  0.08888  0.98728  1.0000 -0.1893436479
C   C6        1.0  0.00754  0.58888  0.51272  1.0000 -0.1893436479
C   C7        1.0  0.50754  0.58888  0.98728  1.0000 -0.1893436479
C   C8        1.0  0.99246  0.08888  0.51272  1.0000 -0.1893436479
C   C9        1.0  0.48074  0.12513  0.03172  1.0000 0.1590660969
C   C10       1.0  0.01926  0.62513  0.46828  1.0000 0.1590660969
C   C11       1.0  0.51926  0.62513  0.03172  1.0000 0.1590660969
C   C12       1.0  0.98074  0.12513  0.46828  1.0000 0.1590660969
C   C13       1.0  0.39954  0.16273  0.03587  1.0000 -0.1770526292
C   C14       1.0  0.10046  0.66273  0.46413  1.0000 -0.1770526292
C   C15       1.0  0.60046  0.66273  0.03587  1.0000 -0.1770526292
C   C16       1.0  0.89954  0.16273  0.46413  1.0000 -0.1770526292
C   C17       1.0  0.33485  0.16273  0.99626  1.0000 0.0931504285
C   C18       1.0  0.16515  0.66273  0.50374  1.0000 0.0931504285
C   C19       1.0  0.66515  0.66273  0.99626  1.0000 0.0931504285
C   C20       1.0  0.83485  0.16273  0.50374  1.0000 0.0931504285
C   C21       1.0  0.55567  0.12548  0.07289  1.0000 -0.1428960447
C   C22       1.0  0.94433  0.62548  0.42711  1.0000 -0.1428960447
C   C23       1.0  0.44433  0.62548  0.07289  1.0000 -0.1428960447
C   C24       1.0  0.05567  0.12548  0.42711  1.0000 -0.1428960447
C   C25       1.0  0.50222  0.06933  0.15353  1.0000 0.4393185256
C   C26       1.0  0.99778  0.56933  0.34647  1.0000 0.4393185256
C   C27       1.0  0.49778  0.56933  0.15353  1.0000 0.4393185256
C   C28       1.0  0.00222  0.06933  0.34647  1.0000 0.4393185256
C   C29       1.0  0.48986  0.08999  0.20828  1.0000 -0.0583144267
C   C30       1.0  0.01014  0.58999  0.29172  1.0000 -0.0583144267
C   C31       1.0  0.51014  0.58999  0.20828  1.0000 -0.0583144267
C   C32       1.0  0.98986  0.08999  0.29172  1.0000 -0.0583144267
C   C33       1.0  0.47823  0.05236  0.25200  1.0000 -0.0745178871
C   C34       1.0  0.02177  0.55236  0.24800  1.0000 -0.0745178871
C   C35       1.0  0.52177  0.55236  0.25200  1.0000 -0.0745178871
C   C36       1.0  0.97823  0.05236  0.24800  1.0000 -0.0745178871
C   C37       1.0  0.47261  0.08699  0.29762  1.0000 -0.0583144267
C   C38       1.0  0.02739  0.58699  0.20238  1.0000 -0.0583144267
C   C39       1.0  0.52739  0.58699  0.29762  1.0000 -0.0583144267
C   C40       1.0  0.97261  0.08699  0.20238  1.0000 -0.0583144267
C   C41       1.0  0.45829  0.06293  0.35127  1.0000 0.4281343157
C   C42       1.0  0.04171  0.56293  0.14873  1.0000 0.4281343157
C   C43       1.0  0.54171  0.56293  0.35127  1.0000 0.4281343157
C   C44       1.0  0.95829  0.06293  0.14873  1.0000 0.4281343157
C   C45       1.0  0.46137  0.17521  0.35402  1.0000 0.4393185256
C   C46       1.0  0.03863  0.67521  0.14598  1.0000 0.4393185256
C   C47       1.0  0.53863  0.67521  0.35402  1.0000 0.4393185256
C   C48       1.0  0.96137  0.17521  0.14598  1.0000 0.4393185256
C   C49       1.0  0.47649  0.15484  0.29925  1.0000 -0.0583144267
C   C50       1.0  0.02351  0.65484  0.20075  1.0000 -0.0583144267
C   C51       1.0  0.52351  0.65484  0.29925  1.0000 -0.0583144267
C   C52       1.0  0.97649  0.15484  0.20075  1.0000 -0.0583144267
C   C53       1.0  0.48841  0.19256  0.25563  1.0000 -0.0782520808
C   C54       1.0  0.01159  0.69256  0.24437  1.0000 -0.0782520808
C   C55       1.0  0.51159  0.69256  0.25563  1.0000 -0.0782520808
C   C56       1.0  0.98841  0.19256  0.24437  1.0000 -0.0782520808
C   C57       1.0  0.49606  0.15768  0.21011  1.0000 -0.0583144267
C   C58       1.0  0.00394  0.65768  0.28989  1.0000 -0.0583144267
C   C59       1.0  0.50394  0.65768  0.21011  1.0000 -0.0583144267
C   C60       1.0  0.99606  0.15768  0.28989  1.0000 -0.0583144267
C   C61       1.0  0.51554  0.18116  0.15659  1.0000 0.4281343157
C   C62       1.0  0.98446  0.68116  0.34341  1.0000 0.4281343157
C   C63       1.0  0.48446  0.68116  0.15659  1.0000 0.4281343157
C   C64       1.0  0.01554  0.18116  0.34341  1.0000 0.4281343157
C   C65       1.0  0.41491  0.11695  0.43490  1.0000 -0.1428960447
C   C66       1.0  0.08509  0.61695  0.06510  1.0000 -0.1428960447
C   C67       1.0  0.58509  0.61695  0.43490  1.0000 -0.1428960447
C   C68       1.0  0.91491  0.11695  0.06510  1.0000 -0.1428960447
C   C69       1.0  0.49091  0.11590  0.47587  1.0000 0.1590660969
C   C70       1.0  0.00909  0.61590  0.02413  1.0000 0.1590660969
C   C71       1.0  0.50909  0.61590  0.47587  1.0000 0.1590660969
C   C72       1.0  0.99091  0.11590  0.02413  1.0000 0.1590660969
C   C73       1.0  0.48738  0.15947  0.51672  1.0000 -0.1893436479
C   C74       1.0  0.01262  0.65947  0.98328  1.0000 -0.1893436479
C   C75       1.0  0.51262  0.65947  0.51672  1.0000 -0.1893436479
C   C76       1.0  0.98738  0.15947  0.98328  1.0000 -0.1893436479
C   C77       1.0  0.55774  0.15779  0.55381  1.0000 0.1205818195
C   C78       1.0  0.94226  0.65779  0.94619  1.0000 0.1205818195
C   C79       1.0  0.44226  0.65779  0.55381  1.0000 0.1205818195
C   C80       1.0  0.05774  0.15779  0.94619  1.0000 0.1205818195
C   C81       1.0  0.63012  0.07200  0.51366  1.0000 0.0999526503
C   C82       1.0  0.86988  0.57200  0.98634  1.0000 0.0999526503
C   C83       1.0  0.36988  0.57200  0.51366  1.0000 0.0999526503
C   C84       1.0  0.13012  0.07200  0.98634  1.0000 0.0999526503
C   C85       1.0  0.56328  0.07124  0.47497  1.0000 -0.1893436479
C   C86       1.0  0.93672  0.57124  0.02503  1.0000 -0.1893436479
C   C87       1.0  0.43672  0.57124  0.47497  1.0000 -0.1893436479
C   C88       1.0  0.06328  0.07124  0.02503  1.0000 -0.1893436479
C   C89       1.0  0.22489  0.25350  0.87397  1.0000 0.5491224444
C   C90       1.0  0.27511  0.75350  0.62603  1.0000 0.5491224444
C   C91       1.0  0.77511  0.75350  0.87397  1.0000 0.5491224444
C   C92       1.0  0.72489  0.25350  0.62603  1.0000 0.5491224444
C   C93       1.0  0.22686  0.30802  0.83502  1.0000 -0.0142961477
C   C94       1.0  0.27314  0.80802  0.66498  1.0000 -0.0142961477
C   C95       1.0  0.77314  0.80802  0.83502  1.0000 -0.0142961477
C   C96       1.0  0.72686  0.30802  0.66498  1.0000 -0.0142961477
C   C97       1.0  0.23456  0.29400  0.78367  1.0000 -0.1572506493
C   C98       1.0  0.26544  0.79400  0.71633  1.0000 -0.1572506493
C   C99       1.0  0.76544  0.79400  0.78367  1.0000 -0.1572506493
C   C100      1.0  0.73456  0.29400  0.71633  1.0000 -0.1572506493
C   C101      1.0  0.23453  0.34404  0.74553  1.0000 0.074156086
C   C102      1.0  0.26547  0.84404  0.75447  1.0000 0.074156086
C   C103      1.0  0.76547  0.84404  0.74553  1.0000 0.074156086
C   C104      1.0  0.73453  0.34404  0.75447  1.0000 0.074156086
C   C105      1.0  0.23915  0.32938  0.69263  1.0000 -0.1572506493
C   C106      1.0  0.26085  0.82938  0.80737  1.0000 -0.1572506493
C   C107      1.0  0.76085  0.82938  0.69263  1.0000 -0.1572506493
C   C108      1.0  0.73915  0.32938  0.80737  1.0000 -0.1572506493
C   C109      1.0  0.23778  0.37852  0.65671  1.0000 -0.1428960447
C   C110      1.0  0.26222  0.87852  0.84329  1.0000 -0.1428960447
C   C111      1.0  0.76222  0.87852  0.65671  1.0000 -0.1428960447
C   C112      1.0  0.73778  0.37852  0.84329  1.0000 -0.1428960447
C   C113      1.0  0.23284  0.44479  0.67315  1.0000 -0.0258343355
C   C114      1.0  0.26716  0.94479  0.82685  1.0000 -0.0258343355
C   C115      1.0  0.76716  0.94479  0.67315  1.0000 -0.0258343355
C   C116      1.0  0.73284  0.44479  0.82685  1.0000 -0.0258343355
C   C117      1.0  0.22785  0.45932  0.72450  1.0000 -0.1572506493
C   C118      1.0  0.27215  0.95932  0.77550  1.0000 -0.1572506493
C   C119      1.0  0.77215  0.95932  0.72450  1.0000 -0.1572506493
C   C120      1.0  0.72785  0.45932  0.77550  1.0000 -0.1572506493
C   C121      1.0  0.22802  0.40896  0.76264  1.0000 0.074156086
C   C122      1.0  0.27198  0.90896  0.73736  1.0000 0.074156086
C   C123      1.0  0.77198  0.90896  0.76264  1.0000 0.074156086
C   C124      1.0  0.72802  0.40896  0.73736  1.0000 0.074156086
C   C125      1.0  0.22105  0.42354  0.81584  1.0000 -0.1534934761
C   C126      1.0  0.27895  0.92354  0.68416  1.0000 -0.1534934761
C   C127      1.0  0.77895  0.92354  0.81584  1.0000 -0.1534934761
C   C128      1.0  0.72105  0.42354  0.68416  1.0000 -0.1534934761
C   C129      1.0  0.22080  0.37396  0.85163  1.0000 -0.1233752146
C   C130      1.0  0.27920  0.87396  0.64837  1.0000 -0.1233752146
C   C131      1.0  0.77920  0.87396  0.85163  1.0000 -0.1233752146
C   C132      1.0  0.72080  0.37396  0.64837  1.0000 -0.1233752146
C   C133      1.0  0.23477  0.49762  0.63275  1.0000 0.5555048576
C   C134      1.0  0.26523  0.99762  0.86725  1.0000 0.5555048576
C   C135      1.0  0.76523  0.99762  0.63275  1.0000 0.5555048576
C   C136      1.0  0.73477  0.49762  0.86725  1.0000 0.5555048576
C   C137      1.0  0.42467  0.40894  0.05099  1.0000 0.1121375216
C   C138      1.0  0.07533  0.90894  0.44901  1.0000 0.1121375216
C   C139      1.0  0.57533  0.90894  0.05099  1.0000 0.1121375216
C   C140      1.0  0.92467  0.40894  0.44901  1.0000 0.1121375216
C   C141      1.0  0.49246  0.41112  0.01272  1.0000 -0.1893436479
C   C142      1.0  0.00754  0.91112  0.48728  1.0000 -0.1893436479
C   C143      1.0  0.50754  0.91112  0.01272  1.0000 -0.1893436479
C   C144      1.0  0.99246  0.41112  0.48728  1.0000 -0.1893436479
C   C145      1.0  0.48074  0.37487  0.96828  1.0000 0.1590660969
C   C146      1.0  0.01926  0.87487  0.53172  1.0000 0.1590660969
C   C147      1.0  0.51926  0.87487  0.96828  1.0000 0.1590660969
C   C148      1.0  0.98074  0.37487  0.53172  1.0000 0.1590660969
C   C149      1.0  0.39954  0.33727  0.96413  1.0000 -0.1770526292
C   C150      1.0  0.10046  0.83727  0.53587  1.0000 -0.1770526292
C   C151      1.0  0.60046  0.83727  0.96413  1.0000 -0.1770526292
C   C152      1.0  0.89954  0.33727  0.53587  1.0000 -0.1770526292
C   C153      1.0  0.33485  0.33727  0.00374  1.0000 0.0931504285
C   C154      1.0  0.16515  0.83727  0.49626  1.0000 0.0931504285
C   C155      1.0  0.66515  0.83727  0.00374  1.0000 0.0931504285
C   C156      1.0  0.83485  0.33727  0.49626  1.0000 0.0931504285
C   C157      1.0  0.55567  0.37452  0.92711  1.0000 -0.1428960447
C   C158      1.0  0.94433  0.87452  0.57289  1.0000 -0.1428960447
C   C159      1.0  0.44433  0.87452  0.92711  1.0000 -0.1428960447
C   C160      1.0  0.05567  0.37452  0.57289  1.0000 -0.1428960447
C   C161      1.0  0.50222  0.43067  0.84647  1.0000 0.4393185256
C   C162      1.0  0.99778  0.93067  0.65353  1.0000 0.4393185256
C   C163      1.0  0.49778  0.93067  0.84647  1.0000 0.4393185256
C   C164      1.0  0.00222  0.43067  0.65353  1.0000 0.4393185256
C   C165      1.0  0.48986  0.41001  0.79172  1.0000 -0.0583144267
C   C166      1.0  0.01014  0.91001  0.70828  1.0000 -0.0583144267
C   C167      1.0  0.51014  0.91001  0.79172  1.0000 -0.0583144267
C   C168      1.0  0.98986  0.41001  0.70828  1.0000 -0.0583144267
C   C169      1.0  0.47823  0.44764  0.74800  1.0000 -0.0745178871
C   C170      1.0  0.02177  0.94764  0.75200  1.0000 -0.0745178871
C   C171      1.0  0.52177  0.94764  0.74800  1.0000 -0.0745178871
C   C172      1.0  0.97823  0.44764  0.75200  1.0000 -0.0745178871
C   C173      1.0  0.47261  0.41301  0.70238  1.0000 -0.0583144267
C   C174      1.0  0.02739  0.91301  0.79762  1.0000 -0.0583144267
C   C175      1.0  0.52739  0.91301  0.70238  1.0000 -0.0583144267
C   C176      1.0  0.97261  0.41301  0.79762  1.0000 -0.0583144267
C   C177      1.0  0.45829  0.43707  0.64873  1.0000 0.4281343157
C   C178      1.0  0.04171  0.93707  0.85127  1.0000 0.4281343157
C   C179      1.0  0.54171  0.93707  0.64873  1.0000 0.4281343157
C   C180      1.0  0.95829  0.43707  0.85127  1.0000 0.4281343157
C   C181      1.0  0.46137  0.32479  0.64598  1.0000 0.4393185256
C   C182      1.0  0.03863  0.82479  0.85402  1.0000 0.4393185256
C   C183      1.0  0.53863  0.82479  0.64598  1.0000 0.4393185256
C   C184      1.0  0.96137  0.32479  0.85402  1.0000 0.4393185256
C   C185      1.0  0.47649  0.34516  0.70075  1.0000 -0.0583144267
C   C186      1.0  0.02351  0.84516  0.79925  1.0000 -0.0583144267
C   C187      1.0  0.52351  0.84516  0.70075  1.0000 -0.0583144267
C   C188      1.0  0.97649  0.34516  0.79925  1.0000 -0.0583144267
C   C189      1.0  0.48841  0.30744  0.74437  1.0000 -0.0782520808
C   C190      1.0  0.01159  0.80744  0.75563  1.0000 -0.0782520808
C   C191      1.0  0.51159  0.80744  0.74437  1.0000 -0.0782520808
C   C192      1.0  0.98841  0.30744  0.75563  1.0000 -0.0782520808
C   C193      1.0  0.49606  0.34232  0.78989  1.0000 -0.0583144267
C   C194      1.0  0.00394  0.84232  0.71011  1.0000 -0.0583144267
C   C195      1.0  0.50394  0.84232  0.78989  1.0000 -0.0583144267
C   C196      1.0  0.99606  0.34232  0.71011  1.0000 -0.0583144267
C   C197      1.0  0.51554  0.31884  0.84341  1.0000 0.4281343157
C   C198      1.0  0.98446  0.81884  0.65659  1.0000 0.4281343157
C   C199      1.0  0.48446  0.81884  0.84341  1.0000 0.4281343157
C   C200      1.0  0.01554  0.31884  0.65659  1.0000 0.4281343157
C   C201      1.0  0.41491  0.38305  0.56510  1.0000 -0.1428960447
C   C202      1.0  0.08509  0.88305  0.93490  1.0000 -0.1428960447
C   C203      1.0  0.58509  0.88305  0.56510  1.0000 -0.1428960447
C   C204      1.0  0.91491  0.38305  0.93490  1.0000 -0.1428960447
C   C205      1.0  0.49091  0.38410  0.52413  1.0000 0.1590660969
C   C206      1.0  0.00909  0.88410  0.97587  1.0000 0.1590660969
C   C207      1.0  0.50909  0.88410  0.52413  1.0000 0.1590660969
C   C208      1.0  0.99091  0.38410  0.97587  1.0000 0.1590660969
C   C209      1.0  0.48738  0.34053  0.48328  1.0000 -0.1893436479
C   C210      1.0  0.01262  0.84053  0.01672  1.0000 -0.1893436479
C   C211      1.0  0.51262  0.84053  0.48328  1.0000 -0.1893436479
C   C212      1.0  0.98738  0.34053  0.01672  1.0000 -0.1893436479
C   C213      1.0  0.55774  0.34221  0.44619  1.0000 0.1205818195
C   C214      1.0  0.94226  0.84221  0.05381  1.0000 0.1205818195
C   C215      1.0  0.44226  0.84221  0.44619  1.0000 0.1205818195
C   C216      1.0  0.05774  0.34221  0.05381  1.0000 0.1205818195
C   C217      1.0  0.63012  0.42800  0.48634  1.0000 0.0999526503
C   C218      1.0  0.86988  0.92800  0.01366  1.0000 0.0999526503
C   C219      1.0  0.36988  0.92800  0.48634  1.0000 0.0999526503
C   C220      1.0  0.13012  0.42800  0.01366  1.0000 0.0999526503
C   C221      1.0  0.56328  0.42876  0.52503  1.0000 -0.1893436479
C   C222      1.0  0.93672  0.92876  0.97497  1.0000 -0.1893436479
C   C223      1.0  0.43672  0.92876  0.52503  1.0000 -0.1893436479
C   C224      1.0  0.06328  0.42876  0.97497  1.0000 -0.1893436479
C   C225      1.0  0.22489  0.24650  0.12603  1.0000 0.5491224444
C   C226      1.0  0.27511  0.74650  0.37397  1.0000 0.5491224444
C   C227      1.0  0.77511  0.74650  0.12603  1.0000 0.5491224444
C   C228      1.0  0.72489  0.24650  0.37397  1.0000 0.5491224444
C   C229      1.0  0.22686  0.19198  0.16498  1.0000 -0.0142961477
C   C230      1.0  0.27314  0.69198  0.33502  1.0000 -0.0142961477
C   C231      1.0  0.77314  0.69198  0.16498  1.0000 -0.0142961477
C   C232      1.0  0.72686  0.19198  0.33502  1.0000 -0.0142961477
C   C233      1.0  0.23456  0.20600  0.21633  1.0000 -0.1572506493
C   C234      1.0  0.26544  0.70600  0.28367  1.0000 -0.1572506493
C   C235      1.0  0.76544  0.70600  0.21633  1.0000 -0.1572506493
C   C236      1.0  0.73456  0.20600  0.28367  1.0000 -0.1572506493
C   C237      1.0  0.23453  0.15596  0.25447  1.0000 0.074156086
C   C238      1.0  0.26547  0.65596  0.24553  1.0000 0.074156086
C   C239      1.0  0.76547  0.65596  0.25447  1.0000 0.074156086
C   C240      1.0  0.73453  0.15596  0.24553  1.0000 0.074156086
C   C241      1.0  0.23915  0.17062  0.30737  1.0000 -0.1572506493
C   C242      1.0  0.26085  0.67062  0.19263  1.0000 -0.1572506493
C   C243      1.0  0.76085  0.67062  0.30737  1.0000 -0.1572506493
C   C244      1.0  0.73915  0.17062  0.19263  1.0000 -0.1572506493
C   C245      1.0  0.23778  0.12148  0.34329  1.0000 -0.1428960447
C   C246      1.0  0.26222  0.62148  0.15671  1.0000 -0.1428960447
C   C247      1.0  0.76222  0.62148  0.34329  1.0000 -0.1428960447
C   C248      1.0  0.73778  0.12148  0.15671  1.0000 -0.1428960447
C   C249      1.0  0.23284  0.05521  0.32685  1.0000 -0.0258343355
C   C250      1.0  0.26716  0.55521  0.17315  1.0000 -0.0258343355
C   C251      1.0  0.76716  0.55521  0.32685  1.0000 -0.0258343355
C   C252      1.0  0.73284  0.05521  0.17315  1.0000 -0.0258343355
C   C253      1.0  0.22785  0.04068  0.27550  1.0000 -0.1572506493
C   C254      1.0  0.27215  0.54068  0.22450  1.0000 -0.1572506493
C   C255      1.0  0.77215  0.54068  0.27550  1.0000 -0.1572506493
C   C256      1.0  0.72785  0.04068  0.22450  1.0000 -0.1572506493
C   C257      1.0  0.22802  0.09104  0.23736  1.0000 0.074156086
C   C258      1.0  0.27198  0.59104  0.26264  1.0000 0.074156086
C   C259      1.0  0.77198  0.59104  0.23736  1.0000 0.074156086
C   C260      1.0  0.72802  0.09104  0.26264  1.0000 0.074156086
C   C261      1.0  0.22105  0.07646  0.18416  1.0000 -0.1534934761
C   C262      1.0  0.27895  0.57646  0.31584  1.0000 -0.1534934761
C   C263      1.0  0.77895  0.57646  0.18416  1.0000 -0.1534934761
C   C264      1.0  0.72105  0.07646  0.31584  1.0000 -0.1534934761
C   C265      1.0  0.22080  0.12604  0.14837  1.0000 -0.1233752146
C   C266      1.0  0.27920  0.62604  0.35163  1.0000 -0.1233752146
C   C267      1.0  0.77920  0.62604  0.14837  1.0000 -0.1233752146
C   C268      1.0  0.72080  0.12604  0.35163  1.0000 -0.1233752146
C   C269      1.0  0.23477  0.00238  0.36725  1.0000 0.5555048576
C   C270      1.0  0.26523  0.50238  0.13275  1.0000 0.5555048576
C   C271      1.0  0.76523  0.50238  0.36725  1.0000 0.5555048576
C   C272      1.0  0.73477  0.00238  0.13275  1.0000 0.5555048576
N   N1        1.0  0.34699  0.12757  0.95306  1.0000 -0.2378679002
N   N2        1.0  0.15301  0.62757  0.54694  1.0000 -0.2378679002
N   N3        1.0  0.65301  0.62757  0.95306  1.0000 -0.2378679002
N   N4        1.0  0.84699  0.12757  0.54694  1.0000 -0.2378679002
N   N5        1.0  0.51816  0.12592  0.12543  1.0000 -0.1893436479
N   N6        1.0  0.98184  0.62592  0.37457  1.0000 -0.1893436479
N   N7        1.0  0.48184  0.62592  0.12543  1.0000 -0.1893436479
N   N8        1.0  0.01816  0.12592  0.37457  1.0000 -0.1893436479
N   N9        1.0  0.45153  0.11819  0.38233  1.0000 -0.1893436479
N   N10       1.0  0.04847  0.61819  0.11767  1.0000 -0.1893436479
N   N11       1.0  0.54847  0.61819  0.38233  1.0000 -0.1893436479
N   N12       1.0  0.95153  0.11819  0.11767  1.0000 -0.1893436479
N   N13       1.0  0.62870  0.11537  0.55200  1.0000 -0.2268005395
N   N14       1.0  0.87130  0.61537  0.94800  1.0000 -0.2268005395
N   N15       1.0  0.37130  0.61537  0.55200  1.0000 -0.2268005395
N   N16       1.0  0.12870  0.11537  0.94800  1.0000 -0.2268005395
N   N17       1.0  0.34699  0.37243  0.04694  1.0000 -0.2378679002
N   N18       1.0  0.15301  0.87243  0.45306  1.0000 -0.2378679002
N   N19       1.0  0.65301  0.87243  0.04694  1.0000 -0.2378679002
N   N20       1.0  0.84699  0.37243  0.45306  1.0000 -0.2378679002
N   N21       1.0  0.51816  0.37408  0.87457  1.0000 -0.1893436479
N   N22       1.0  0.98184  0.87408  0.62543  1.0000 -0.1893436479
N   N23       1.0  0.48184  0.87408  0.87457  1.0000 -0.1893436479
N   N24       1.0  0.01816  0.37408  0.62543  1.0000 -0.1893436479
N   N25       1.0  0.45153  0.38181  0.61767  1.0000 -0.1893436479
N   N26       1.0  0.04847  0.88181  0.88233  1.0000 -0.1893436479
N   N27       1.0  0.54847  0.88181  0.61767  1.0000 -0.1893436479
N   N28       1.0  0.95153  0.38181  0.88233  1.0000 -0.1893436479
N   N29       1.0  0.62870  0.38463  0.44800  1.0000 -0.2268005395
N   N30       1.0  0.87130  0.88463  0.05200  1.0000 -0.2268005395
N   N31       1.0  0.37130  0.88463  0.44800  1.0000 -0.2268005395
N   N32       1.0  0.12870  0.38463  0.05200  1.0000 -0.2268005395
O   O1        1.0  0.49960  0.01519  0.13568  1.0000 -0.4192862807
O   O2        1.0  0.00040  0.51519  0.36432  1.0000 -0.4251746619
O   O3        1.0  0.50040  0.51519  0.13568  1.0000 -0.4192862807
O   O4        1.0  0.99960  0.01519  0.36432  1.0000 -0.4251746619
O   O5        1.0  0.45302  0.00764  0.36654  1.0000 -0.4067776635
O   O6        1.0  0.04698  0.50764  0.13346  1.0000 -0.4067776635
O   O7        1.0  0.54698  0.50764  0.36654  1.0000 -0.4067776635
O   O8        1.0  0.95302  0.00764  0.13346  1.0000 -0.4067776635
O   O9        1.0  0.45619  0.22952  0.37136  1.0000 -0.4376040557
O   O10       1.0  0.04381  0.72952  0.12864  1.0000 -0.4376040557
O   O11       1.0  0.54381  0.72952  0.37136  1.0000 -0.4376040557
O   O12       1.0  0.95619  0.22952  0.12864  1.0000 -0.4376040557
O   O13       1.0  0.52841  0.23581  0.14181  1.0000 -0.4192862807
O   O14       1.0  0.97159  0.73581  0.35819  1.0000 -0.4192862807
O   O15       1.0  0.47159  0.73581  0.14181  1.0000 -0.4192862807
O   O16       1.0  0.02841  0.23581  0.35819  1.0000 -0.4192862807
O   O17       1.0  0.22789  0.19615  0.85458  1.0000 -0.5341941202
O   O18       1.0  0.27211  0.69615  0.64542  1.0000 -0.5341941202
O   O19       1.0  0.77211  0.69615  0.85458  1.0000 -0.5341941202
O   O20       1.0  0.72789  0.19615  0.64542  1.0000 -0.5341941202
O   O21       1.0  0.22015  0.26597  0.91981  1.0000 -0.5467078098
O   O22       1.0  0.27985  0.76597  0.58019  1.0000 -0.5467078098
O   O23       1.0  0.77985  0.76597  0.91981  1.0000 -0.5467078098
O   O24       1.0  0.72015  0.26597  0.58019  1.0000 -0.5467078098
O   O25       1.0  0.23398  0.48294  0.58691  1.0000 -0.561484822
O   O26       1.0  0.26602  0.98294  0.91309  1.0000 -0.561484822
O   O27       1.0  0.76602  0.98294  0.58691  1.0000 -0.561484822
O   O28       1.0  0.73398  0.48294  0.91309  1.0000 -0.561484822
O   O29       1.0  0.23793  0.55611  0.65044  1.0000 -0.5341941202
O   O30       1.0  0.26207  0.05611  0.84956  1.0000 -0.5341941202
O   O31       1.0  0.76207  0.05611  0.65044  1.0000 -0.5341941202
O   O32       1.0  0.73793  0.55611  0.84956  1.0000 -0.5341941202
O   O33       1.0  0.49960  0.48481  0.86432  1.0000 -0.4192862807
O   O34       1.0  0.00040  0.98481  0.63568  1.0000 -0.4192862807
O   O35       1.0  0.50040  0.98481  0.86432  1.0000 -0.4192862807
O   O36       1.0  0.99960  0.48481  0.63568  1.0000 -0.4192862807
O   O37       1.0  0.45302  0.49236  0.63346  1.0000 -0.4043526137
O   O38       1.0  0.04698  0.99236  0.86654  1.0000 -0.4067776635
O   O39       1.0  0.54698  0.99236  0.63346  1.0000 -0.4043526137
O   O40       1.0  0.95302  0.49236  0.86654  1.0000 -0.4067776635
O   O41       1.0  0.45619  0.27048  0.62864  1.0000 -0.4376040557
O   O42       1.0  0.04381  0.77048  0.87136  1.0000 -0.4376040557
O   O43       1.0  0.54381  0.77048  0.62864  1.0000 -0.4376040557
O   O44       1.0  0.95619  0.27048  0.87136  1.0000 -0.4376040557
O   O45       1.0  0.52841  0.26419  0.85819  1.0000 -0.4192862807
O   O46       1.0  0.97159  0.76419  0.64181  1.0000 -0.4192862807
O   O47       1.0  0.47159  0.76419  0.85819  1.0000 -0.4192862807
O   O48       1.0  0.02841  0.26419  0.64181  1.0000 -0.4192862807
O   O49       1.0  0.22789  0.30385  0.14542  1.0000 -0.5341941202
O   O50       1.0  0.27211  0.80385  0.35458  1.0000 -0.5341941202
O   O51       1.0  0.77211  0.80385  0.14542  1.0000 -0.5341941202
O   O52       1.0  0.72789  0.30385  0.35458  1.0000 -0.5341941202
O   O53       1.0  0.22015  0.23403  0.08019  1.0000 -0.5467078098
O   O54       1.0  0.27985  0.73403  0.41981  1.0000 -0.5467078098
O   O55       1.0  0.77985  0.73403  0.08019  1.0000 -0.5467078098
O   O56       1.0  0.72015  0.23403  0.41981  1.0000 -0.5467078098
O   O57       1.0  0.23398  0.01706  0.41309  1.0000 -0.561484822
O   O58       1.0  0.26602  0.51706  0.08691  1.0000 -0.561484822
O   O59       1.0  0.76602  0.51706  0.41309  1.0000 -0.561484822
O   O60       1.0  0.73398  0.01706  0.08691  1.0000 -0.561484822
O   O61       1.0  0.23793  0.94389  0.34956  1.0000 -0.5341941202
O   O62       1.0  0.26207  0.44389  0.15044  1.0000 -0.5341941202
O   O63       1.0  0.76207  0.44389  0.34956  1.0000 -0.5341941202
O   O64       1.0  0.73793  0.94389  0.15044  1.0000 -0.5341941202
