# DDEC6 charges by PACMAN v1.1 (https://github.com/mtap-research/PACMAN-charge/)
data_2013[Zn][crs]3[FSR]1
_chemical_formula_sum              "Zn8 H112 C160 N8 O32 F48"
_cell_length_a       27.4295
_cell_length_b       27.4295
_cell_length_c       27.4295
_cell_angle_alpha    139.271
_cell_angle_beta     139.271
_cell_angle_gamma    58.9613

_symmetry_space_group_name_H-M    "P 1"
_symmetry_Int_Tables_number       1

loop_
  _symmetry_equiv_pos_as_xyz
  'x, y, z'

loop_
  _atom_site_type_symbol
  _atom_site_label
  _atom_site_symmetry_multiplicity
  _atom_site_fract_x
  _atom_site_fract_y
  _atom_site_fract_z
  _atom_site_occupancy
  _atom_site_charge
Zn  Zn1       1.0  0.79442  0.61924  0.17518  1.0000 0.8178655565
Zn  Zn2       1.0  0.44406  0.61924  0.82482  1.0000 0.8178655565
Zn  Zn3       1.0  0.36924  0.69406  0.32482  1.0000 0.8178655565
Zn  Zn4       1.0  0.36924  0.04442  0.67518  1.0000 0.8178655565
Zn  Zn5       1.0  0.30594  0.63076  0.67518  1.0000 0.8178655565
Zn  Zn6       1.0  0.95558  0.63076  0.32482  1.0000 0.8178655565
Zn  Zn7       1.0  0.38076  0.55594  0.17518  1.0000 0.8178655565
Zn  Zn8       1.0  0.38076  0.20558  0.82482  1.0000 0.8178655565
H   H1        1.0  0.02010  0.51790  0.15500  1.0000 0.1220350899
H   H2        1.0  0.36290  0.86510  0.84500  1.0000 0.1220350899
H   H3        1.0  0.26790  0.61290  0.99780  1.0000 0.1220350899
H   H4        1.0  0.61510  0.27010  0.00220  1.0000 0.1220350899
H   H5        1.0  0.38710  0.73210  0.00220  1.0000 0.1220350899
H   H6        1.0  0.72990  0.38490  0.99780  1.0000 0.1220350899
H   H7        1.0  0.13490  0.63710  0.15500  1.0000 0.1220350899
H   H8        1.0  0.48210  0.97990  0.84500  1.0000 0.1220350899
H   H9        1.0  0.72990  0.73210  0.34500  1.0000 0.1220350899
H   H10       1.0  0.38710  0.38490  0.65500  1.0000 0.1220350899
H   H11       1.0  0.48210  0.63710  0.50220  1.0000 0.1220350899
H   H12       1.0  0.13490  0.97990  0.49780  1.0000 0.1220350899
H   H13       1.0  0.36290  0.51790  0.49780  1.0000 0.1220350899
H   H14       1.0  0.02010  0.86510  0.50220  1.0000 0.1220350899
H   H15       1.0  0.61510  0.61290  0.34500  1.0000 0.1220350899
H   H16       1.0  0.26790  0.27010  0.65500  1.0000 0.1220350899
H   H17       1.0  0.03640  0.47130  0.05550  1.0000 0.1220350899
H   H18       1.0  0.41580  0.98090  0.94450  1.0000 0.1220350899
H   H19       1.0  0.22130  0.66580  0.93490  1.0000 0.1220350899
H   H20       1.0  0.73090  0.28640  0.06510  1.0000 0.1220350899
H   H21       1.0  0.33420  0.77870  0.06510  1.0000 0.1220350899
H   H22       1.0  0.71360  0.26910  0.93490  1.0000 0.1220350899
H   H23       1.0  0.01910  0.58420  0.05550  1.0000 0.1220350899
H   H24       1.0  0.52870  0.96360  0.94450  1.0000 0.1220350899
H   H25       1.0  0.71360  0.77870  0.44450  1.0000 0.1220350899
H   H26       1.0  0.33420  0.26910  0.55550  1.0000 0.1220350899
H   H27       1.0  0.52870  0.58420  0.56510  1.0000 0.1220350899
H   H28       1.0  0.01910  0.96360  0.43490  1.0000 0.1220350899
H   H29       1.0  0.41580  0.47130  0.43490  1.0000 0.1220350899
H   H30       1.0  0.03640  0.98090  0.56510  1.0000 0.1220350899
H   H31       1.0  0.73090  0.66580  0.44450  1.0000 0.1220350899
H   H32       1.0  0.22130  0.28640  0.55550  1.0000 0.1220350899
H   H33       1.0  0.82220  0.49350  0.87630  1.0000 0.1220350899
H   H34       1.0  0.61720  0.94590  0.12370  1.0000 0.1220350899
H   H35       1.0  0.24350  0.86720  0.17130  1.0000 0.1220350899
H   H36       1.0  0.69590  0.07220  0.82870  1.0000 0.1220350899
H   H37       1.0  0.13280  0.75650  0.82870  1.0000 0.1220350899
H   H38       1.0  0.92780  0.30410  0.17130  1.0000 0.1220350899
H   H39       1.0  0.05410  0.38280  0.87630  1.0000 0.1220350899
H   H40       1.0  0.50650  0.17780  0.12370  1.0000 0.1220350899
H   H41       1.0  0.92780  0.75650  0.62370  1.0000 0.1220350899
H   H42       1.0  0.13280  0.30410  0.37630  1.0000 0.1220350899
H   H43       1.0  0.50650  0.38280  0.32870  1.0000 0.1220350899
H   H44       1.0  0.05410  0.17780  0.67130  1.0000 0.1220350899
H   H45       1.0  0.61720  0.49350  0.67130  1.0000 0.1220350899
H   H46       1.0  0.82220  0.94590  0.32870  1.0000 0.1220350899
H   H47       1.0  0.69590  0.86720  0.62370  1.0000 0.1220350899
H   H48       1.0  0.24350  0.07220  0.37630  1.0000 0.1220350899
H   H49       1.0  0.80600  0.53970  0.97690  1.0000 0.1220350899
H   H50       1.0  0.56280  0.82910  0.02310  1.0000 0.1220350899
H   H51       1.0  0.28970  0.81280  0.23370  1.0000 0.1220350899
H   H52       1.0  0.57910  0.05600  0.76630  1.0000 0.1220350899
H   H53       1.0  0.18720  0.71030  0.76630  1.0000 0.1220350899
H   H54       1.0  0.94400  0.42090  0.23370  1.0000 0.1220350899
H   H55       1.0  0.17090  0.43720  0.97690  1.0000 0.1220350899
H   H56       1.0  0.46030  0.19400  0.02310  1.0000 0.1220350899
H   H57       1.0  0.94400  0.71030  0.52310  1.0000 0.1220350899
H   H58       1.0  0.18720  0.42090  0.47690  1.0000 0.1220350899
H   H59       1.0  0.46030  0.43720  0.26630  1.0000 0.1220350899
H   H60       1.0  0.17090  0.19400  0.73370  1.0000 0.1220350899
H   H61       1.0  0.56280  0.53970  0.73370  1.0000 0.1220350899
H   H62       1.0  0.80600  0.82910  0.26630  1.0000 0.1220350899
H   H63       1.0  0.57910  0.81280  0.52310  1.0000 0.1220350899
H   H64       1.0  0.28970  0.05600  0.47690  1.0000 0.1220350899
H   H65       1.0  0.67050  0.71680  0.16230  1.0000 0.1220350899
H   H66       1.0  0.55450  0.50820  0.83770  1.0000 0.1220350899
H   H67       1.0  0.46680  0.80450  0.54630  1.0000 0.1220350899
H   H68       1.0  0.25820  0.92050  0.45370  1.0000 0.1220350899
H   H69       1.0  0.19550  0.53320  0.45370  1.0000 0.1220350899
H   H70       1.0  0.07950  0.74180  0.54630  1.0000 0.1220350899
H   H71       1.0  0.49180  0.44550  0.16230  1.0000 0.1220350899
H   H72       1.0  0.28320  0.32950  0.83770  1.0000 0.1220350899
H   H73       1.0  0.07950  0.53320  0.33770  1.0000 0.1220350899
H   H74       1.0  0.19550  0.74180  0.66230  1.0000 0.1220350899
H   H75       1.0  0.28320  0.44550  0.95370  1.0000 0.1220350899
H   H76       1.0  0.49180  0.32950  0.04630  1.0000 0.1220350899
H   H77       1.0  0.55450  0.71680  0.04630  1.0000 0.1220350899
H   H78       1.0  0.67050  0.50820  0.95370  1.0000 0.1220350899
H   H79       1.0  0.25820  0.80450  0.33770  1.0000 0.1220350899
H   H80       1.0  0.46680  0.92050  0.66230  1.0000 0.1220350899
H   H81       1.0  0.64140  0.64590  0.12050  1.0000 0.1220350899
H   H82       1.0  0.52540  0.52090  0.87950  1.0000 0.1220350899
H   H83       1.0  0.39590  0.77540  0.50450  1.0000 0.1220350899
H   H84       1.0  0.27090  0.89140  0.49550  1.0000 0.1220350899
H   H85       1.0  0.22460  0.60410  0.49550  1.0000 0.1220350899
H   H86       1.0  0.10860  0.72910  0.50450  1.0000 0.1220350899
H   H87       1.0  0.47910  0.47460  0.12050  1.0000 0.1220350899
H   H88       1.0  0.35410  0.35860  0.87950  1.0000 0.1220350899
H   H89       1.0  0.10860  0.60410  0.37950  1.0000 0.1220350899
H   H90       1.0  0.22460  0.72910  0.62050  1.0000 0.1220350899
H   H91       1.0  0.35410  0.47460  0.99550  1.0000 0.1220350899
H   H92       1.0  0.47910  0.35860  0.00450  1.0000 0.1220350899
H   H93       1.0  0.52540  0.64590  0.00450  1.0000 0.1220350899
H   H94       1.0  0.64140  0.52090  0.99550  1.0000 0.1220350899
H   H95       1.0  0.27090  0.77540  0.37950  1.0000 0.1220350899
H   H96       1.0  0.39590  0.89140  0.62050  1.0000 0.1220350899
H   H97       1.0  0.71280  0.61390  0.01510  1.0000 0.1220350899
H   H98       1.0  0.59880  0.69770  0.98490  1.0000 0.1220350899
H   H99       1.0  0.36390  0.84880  0.40110  1.0000 0.1220350899
H   H100      1.0  0.44770  0.96280  0.59890  1.0000 0.1220350899
H   H101      1.0  0.15120  0.63610  0.59890  1.0000 0.1220350899
H   H102      1.0  0.03720  0.55230  0.40110  1.0000 0.1220350899
H   H103      1.0  0.30230  0.40120  0.01510  1.0000 0.1220350899
H   H104      1.0  0.38610  0.28720  0.98490  1.0000 0.1220350899
H   H105      1.0  0.03720  0.63610  0.48490  1.0000 0.1220350899
H   H106      1.0  0.15120  0.55230  0.51510  1.0000 0.1220350899
H   H107      1.0  0.38610  0.40120  0.09890  1.0000 0.1220350899
H   H108      1.0  0.30230  0.28720  0.90110  1.0000 0.1220350899
H   H109      1.0  0.59880  0.61390  0.90110  1.0000 0.1220350899
H   H110      1.0  0.71280  0.69770  0.09890  1.0000 0.1220350899
H   H111      1.0  0.44770  0.84880  0.48490  1.0000 0.1220350899
H   H112      1.0  0.36390  0.96280  0.51510  1.0000 0.1220350899
C   C1        1.0  0.91090  0.53662  0.07718  1.0000 -0.0146661862
C   C2        1.0  0.45944  0.83372  0.92282  1.0000 -0.0154846204
C   C3        1.0  0.28662  0.70944  0.12572  1.0000 -0.0154846204
C   C4        1.0  0.58372  0.16090  0.87428  1.0000 -0.0154846204
C   C5        1.0  0.29056  0.71338  0.87428  1.0000 -0.0154846204
C   C6        1.0  0.83910  0.41628  0.12572  1.0000 -0.0146661862
C   C7        1.0  0.16628  0.54056  0.07718  1.0000 -0.0154846204
C   C8        1.0  0.46338  0.08910  0.92282  1.0000 -0.0154846204
C   C9        1.0  0.83910  0.71338  0.42282  1.0000 -0.0154846204
C   C10       1.0  0.29056  0.41628  0.57718  1.0000 -0.0154846204
C   C11       1.0  0.46338  0.54056  0.37428  1.0000 -0.0154846204
C   C12       1.0  0.16628  0.08910  0.62572  1.0000 -0.0154846204
C   C13       1.0  0.45944  0.53662  0.62572  1.0000 -0.0146661862
C   C14       1.0  0.91090  0.83372  0.37428  1.0000 -0.0154846204
C   C15       1.0  0.58372  0.70944  0.42282  1.0000 -0.0154846204
C   C16       1.0  0.28662  0.16090  0.57718  1.0000 -0.0154846204
C   C17       1.0  0.97972  0.51396  0.09870  1.0000 -0.1020854071
C   C18       1.0  0.41526  0.88102  0.90130  1.0000 -0.1020854071
C   C19       1.0  0.26396  0.66526  0.03424  1.0000 -0.1020854071
C   C20       1.0  0.63102  0.22972  0.96576  1.0000 -0.1020854071
C   C21       1.0  0.33474  0.73604  0.96576  1.0000 -0.1020854071
C   C22       1.0  0.77028  0.36898  0.03424  1.0000 -0.1020854071
C   C23       1.0  0.11898  0.58474  0.09870  1.0000 -0.1020854071
C   C24       1.0  0.48604  0.02028  0.90130  1.0000 -0.1020854071
C   C25       1.0  0.77028  0.73604  0.40130  1.0000 -0.1020854071
C   C26       1.0  0.33474  0.36898  0.59870  1.0000 -0.1020854071
C   C27       1.0  0.48604  0.58474  0.46576  1.0000 -0.1020854071
C   C28       1.0  0.11898  0.02028  0.53424  1.0000 -0.1020854071
C   C29       1.0  0.41526  0.51396  0.53424  1.0000 -0.1020854071
C   C30       1.0  0.97972  0.88102  0.46576  1.0000 -0.1020854071
C   C31       1.0  0.63102  0.66526  0.40130  1.0000 -0.1020854071
C   C32       1.0  0.26396  0.22972  0.59870  1.0000 -0.1020854071
C   C33       1.0  0.98925  0.48651  0.03984  1.0000 -0.1321255162
C   C34       1.0  0.44667  0.94941  0.96016  1.0000 -0.1321255162
C   C35       1.0  0.23651  0.69667  0.99726  1.0000 -0.1416197707
C   C36       1.0  0.69941  0.23925  0.00274  1.0000 -0.1321255162
C   C37       1.0  0.30333  0.76349  0.00274  1.0000 -0.1321255162
C   C38       1.0  0.76075  0.30059  0.99726  1.0000 -0.1321255162
C   C39       1.0  0.05059  0.55333  0.03984  1.0000 -0.1321255162
C   C40       1.0  0.51349  0.01075  0.96016  1.0000 -0.1321255162
C   C41       1.0  0.76075  0.76349  0.46016  1.0000 -0.1321255162
C   C42       1.0  0.30333  0.30059  0.53984  1.0000 -0.1321255162
C   C43       1.0  0.51349  0.55333  0.50274  1.0000 -0.1321255162
C   C44       1.0  0.05059  0.01075  0.49726  1.0000 -0.1321255162
C   C45       1.0  0.44667  0.48651  0.49726  1.0000 -0.1321255162
C   C46       1.0  0.98925  0.94941  0.50274  1.0000 -0.1321255162
C   C47       1.0  0.69941  0.69667  0.46016  1.0000 -0.1321255162
C   C48       1.0  0.23651  0.23925  0.53984  1.0000 -0.1321255162
C   C49       1.0  0.93092  0.48012  0.95636  1.0000 0.0765313537
C   C50       1.0  0.52376  0.97456  0.04364  1.0000 0.0765313537
C   C51       1.0  0.23012  0.77376  0.04920  1.0000 0.0765313537
C   C52       1.0  0.72456  0.18092  0.95080  1.0000 0.0765313537
C   C53       1.0  0.22624  0.76988  0.95080  1.0000 0.0744869918
C   C54       1.0  0.81908  0.27544  0.04920  1.0000 0.0765313537
C   C55       1.0  0.02544  0.47624  0.95636  1.0000 0.0765313537
C   C56       1.0  0.51988  0.06908  0.04364  1.0000 0.0765313537
C   C57       1.0  0.81908  0.76988  0.54364  1.0000 0.0765313537
C   C58       1.0  0.22624  0.27544  0.45636  1.0000 0.0765313537
C   C59       1.0  0.51988  0.47624  0.45080  1.0000 0.0765313537
C   C60       1.0  0.02544  0.06908  0.54920  1.0000 0.0765313537
C   C61       1.0  0.52376  0.48012  0.54920  1.0000 0.0765313537
C   C62       1.0  0.93092  0.97456  0.45080  1.0000 0.0765313537
C   C63       1.0  0.72456  0.77376  0.54364  1.0000 0.0765313537
C   C64       1.0  0.23012  0.18092  0.45636  1.0000 0.0765313537
C   C65       1.0  0.86346  0.49926  0.93400  1.0000 -0.1468519711
C   C66       1.0  0.56526  0.92946  0.06600  1.0000 -0.1468519711
C   C67       1.0  0.24926  0.81526  0.13580  1.0000 -0.1468519711
C   C68       1.0  0.67946  0.11346  0.86420  1.0000 -0.1468519711
C   C69       1.0  0.18474  0.75074  0.86420  1.0000 -0.1468519711
C   C70       1.0  0.88654  0.32054  0.13580  1.0000 -0.1416197707
C   C71       1.0  0.07054  0.43474  0.93400  1.0000 -0.1468519711
C   C72       1.0  0.50074  0.13654  0.06600  1.0000 -0.1416197707
C   C73       1.0  0.88654  0.75074  0.56600  1.0000 -0.1468519711
C   C74       1.0  0.18474  0.32054  0.43400  1.0000 -0.1468519711
C   C75       1.0  0.50074  0.43474  0.36420  1.0000 -0.1468519711
C   C76       1.0  0.07054  0.13654  0.63580  1.0000 -0.1468519711
C   C77       1.0  0.56526  0.49926  0.63580  1.0000 -0.1468519711
C   C78       1.0  0.86346  0.92946  0.36420  1.0000 -0.1468519711
C   C79       1.0  0.67946  0.81526  0.56600  1.0000 -0.1468519711
C   C80       1.0  0.24926  0.11346  0.43400  1.0000 -0.1468519711
C   C81       1.0  0.85397  0.52710  0.99447  1.0000 -0.1020854071
C   C82       1.0  0.53263  0.85950  0.00553  1.0000 -0.1020854071
C   C83       1.0  0.27710  0.78263  0.17313  1.0000 -0.1020854071
C   C84       1.0  0.60950  0.10397  0.82687  1.0000 -0.1020854071
C   C85       1.0  0.21737  0.72290  0.82687  1.0000 -0.1020854071
C   C86       1.0  0.89603  0.39050  0.17313  1.0000 -0.1020854071
C   C87       1.0  0.14050  0.46737  0.99447  1.0000 -0.1020854071
C   C88       1.0  0.47290  0.14603  0.00553  1.0000 -0.1020854071
C   C89       1.0  0.89603  0.72290  0.50553  1.0000 -0.1020854071
C   C90       1.0  0.21737  0.39050  0.49447  1.0000 -0.1020854071
C   C91       1.0  0.47290  0.46737  0.32687  1.0000 -0.1020854071
C   C92       1.0  0.14050  0.14603  0.67313  1.0000 -0.1020854071
C   C93       1.0  0.53263  0.52710  0.67313  1.0000 -0.1020854071
C   C94       1.0  0.85397  0.85950  0.32687  1.0000 -0.1020854071
C   C95       1.0  0.60950  0.78263  0.50553  1.0000 -0.1020854071
C   C96       1.0  0.27710  0.10397  0.49447  1.0000 -0.1020854071
C   C97       1.0  0.90064  0.56887  0.14397  1.0000 0.5758137316
C   C98       1.0  0.42490  0.75667  0.85603  1.0000 0.5758137316
C   C99       1.0  0.31887  0.67490  0.16823  1.0000 0.5758137316
C   C100      1.0  0.50667  0.15064  0.83177  1.0000 0.5758137316
C   C101      1.0  0.32510  0.68113  0.83177  1.0000 0.5758137316
C   C102      1.0  0.84936  0.49333  0.16823  1.0000 0.5758137316
C   C103      1.0  0.24333  0.57510  0.14397  1.0000 0.5758137316
C   C104      1.0  0.43113  0.09936  0.85603  1.0000 0.5758137316
C   C105      1.0  0.84936  0.68113  0.35603  1.0000 0.5758137316
C   C106      1.0  0.32510  0.49333  0.64397  1.0000 0.5758137316
C   C107      1.0  0.43113  0.57510  0.33177  1.0000 0.5758137316
C   C108      1.0  0.24333  0.09936  0.66823  1.0000 0.5758137316
C   C109      1.0  0.42490  0.56887  0.66823  1.0000 0.5758137316
C   C110      1.0  0.90064  0.75667  0.33177  1.0000 0.5758137316
C   C111      1.0  0.50667  0.67490  0.35603  1.0000 0.5758137316
C   C112      1.0  0.31887  0.15064  0.64397  1.0000 0.5758137316
C   C113      1.0  0.94730  0.44730  0.89460  1.0000 -0.2606464043
C   C114      1.0  0.55270  0.05270  0.10540  1.0000 -0.2606464043
C   C115      1.0  0.19730  0.80270  0.00000  1.0000 -0.2606464043
C   C116      1.0  0.80270  0.19730  0.00000  1.0000 -0.2606464043
C   C117      1.0  0.80270  0.80270  0.60540  1.0000 -0.2606464043
C   C118      1.0  0.19730  0.19730  0.39460  1.0000 -0.2606464043
C   C119      1.0  0.55270  0.44730  0.50000  1.0000 -0.2606464043
C   C120      1.0  0.94730  0.05270  0.50000  1.0000 -0.2606464043
C   C121      1.0  0.88953  0.46663  0.82830  1.0000 0.6588253774
C   C122      1.0  0.63833  0.06123  0.17170  1.0000 0.6588253774
C   C123      1.0  0.21663  0.88833  0.07710  1.0000 0.6588253774
C   C124      1.0  0.81123  0.13953  0.92290  1.0000 0.6588253774
C   C125      1.0  0.11167  0.78337  0.92290  1.0000 0.6588253774
C   C126      1.0  0.86047  0.18877  0.07710  1.0000 0.6588253774
C   C127      1.0  0.93877  0.36167  0.82830  1.0000 0.6588253774
C   C128      1.0  0.53337  0.11047  0.17170  1.0000 0.6588253774
C   C129      1.0  0.86047  0.78337  0.67170  1.0000 0.6588253774
C   C130      1.0  0.11167  0.18877  0.32830  1.0000 0.6588253774
C   C131      1.0  0.53337  0.36167  0.42290  1.0000 0.6588253774
C   C132      1.0  0.93877  0.11047  0.57710  1.0000 0.6588253774
C   C133      1.0  0.63833  0.46663  0.57710  1.0000 0.6588253774
C   C134      1.0  0.88953  0.06123  0.42290  1.0000 0.6588253774
C   C135      1.0  0.81123  0.88833  0.67170  1.0000 0.6588253774
C   C136      1.0  0.21663  0.13953  0.32830  1.0000 0.6588253774
C   C137      1.0  0.64376  0.66458  0.10238  1.0000 -0.1228748593
C   C138      1.0  0.56220  0.54138  0.89762  1.0000 -0.1228748593
C   C139      1.0  0.41458  0.81220  0.52082  1.0000 -0.1228748593
C   C140      1.0  0.29138  0.89376  0.47918  1.0000 -0.1228748593
C   C141      1.0  0.18780  0.58542  0.47918  1.0000 -0.1228748593
C   C142      1.0  0.10624  0.70862  0.52082  1.0000 -0.1228748593
C   C143      1.0  0.45862  0.43780  0.10238  1.0000 -0.1228748593
C   C144      1.0  0.33542  0.35624  0.89762  1.0000 -0.1228748593
C   C145      1.0  0.10624  0.58542  0.39762  1.0000 -0.1228748593
C   C146      1.0  0.18780  0.70862  0.60238  1.0000 -0.1228748593
C   C147      1.0  0.33542  0.43780  0.97918  1.0000 -0.1228748593
C   C148      1.0  0.45862  0.35624  0.02082  1.0000 -0.1228748593
C   C149      1.0  0.56220  0.66458  0.02082  1.0000 -0.1228748593
C   C150      1.0  0.64376  0.54138  0.97918  1.0000 -0.1228748593
C   C151      1.0  0.29138  0.81220  0.39762  1.0000 -0.1228748593
C   C152      1.0  0.41458  0.89376  0.60238  1.0000 -0.1228748593
C   C153      1.0  0.68559  0.64569  0.03990  1.0000 -0.1321255162
C   C154      1.0  0.60579  0.64569  0.96010  1.0000 -0.1321255162
C   C155      1.0  0.39569  0.85579  0.46010  1.0000 -0.1321255162
C   C156      1.0  0.39569  0.93559  0.53990  1.0000 -0.1321255162
C   C157      1.0  0.14421  0.60431  0.53990  1.0000 -0.1321255162
C   C158      1.0  0.06441  0.60431  0.46010  1.0000 -0.1321255162
C   C159      1.0  0.35431  0.39421  0.03990  1.0000 -0.1321255162
C   C160      1.0  0.35431  0.31441  0.96010  1.0000 -0.1321255162
N   N1        1.0  0.68540  0.61714  0.06826  1.0000 -0.0934001957
N   N2        1.0  0.54888  0.61714  0.93174  1.0000 -0.0934001957
N   N3        1.0  0.36714  0.79888  0.43174  1.0000 -0.0934001957
N   N4        1.0  0.36714  0.93540  0.56826  1.0000 -0.0934001957
N   N5        1.0  0.20112  0.63286  0.56826  1.0000 -0.0934001957
N   N6        1.0  0.06460  0.63286  0.43174  1.0000 -0.0934001957
N   N7        1.0  0.38286  0.45112  0.06826  1.0000 -0.0934001957
N   N8        1.0  0.38286  0.31460  0.93174  1.0000 -0.0934001957
O   O1        1.0  0.83501  0.57715  0.11244  1.0000 -0.549422586
O   O2        1.0  0.46471  0.72257  0.88756  1.0000 -0.549422586
O   O3        1.0  0.32715  0.71471  0.24214  1.0000 -0.549422586
O   O4        1.0  0.47257  0.08501  0.75786  1.0000 -0.549422586
O   O5        1.0  0.28529  0.67285  0.75786  1.0000 -0.549422586
O   O6        1.0  0.91499  0.52743  0.24214  1.0000 -0.549422586
O   O7        1.0  0.27743  0.53529  0.11244  1.0000 -0.549422586
O   O8        1.0  0.42285  0.16499  0.88756  1.0000 -0.549422586
O   O9        1.0  0.91499  0.67285  0.38756  1.0000 -0.549422586
O   O10       1.0  0.28529  0.52743  0.61244  1.0000 -0.549422586
O   O11       1.0  0.42285  0.53529  0.25786  1.0000 -0.549422586
O   O12       1.0  0.27743  0.16499  0.74214  1.0000 -0.549422586
O   O13       1.0  0.46471  0.57715  0.74214  1.0000 -0.549422586
O   O14       1.0  0.83501  0.72257  0.25786  1.0000 -0.549422586
O   O15       1.0  0.47257  0.71471  0.38756  1.0000 -0.549422586
O   O16       1.0  0.32715  0.08501  0.61244  1.0000 -0.549422586
O   O17       1.0  0.95828  0.58404  0.22440  1.0000 -0.5320717669
O   O18       1.0  0.35964  0.73388  0.77560  1.0000 -0.5320717669
O   O19       1.0  0.33404  0.60964  0.12576  1.0000 -0.5320717669
O   O20       1.0  0.48388  0.20828  0.87424  1.0000 -0.5320717669
O   O21       1.0  0.39036  0.66596  0.87424  1.0000 -0.5320717669
O   O22       1.0  0.79172  0.51612  0.12576  1.0000 -0.5320717669
O   O23       1.0  0.26612  0.64036  0.22440  1.0000 -0.5320717669
O   O24       1.0  0.41596  0.04172  0.77560  1.0000 -0.5320717669
O   O25       1.0  0.79172  0.66596  0.27560  1.0000 -0.5320717669
O   O26       1.0  0.39036  0.51612  0.72440  1.0000 -0.5320717669
O   O27       1.0  0.41596  0.64036  0.37424  1.0000 -0.5320717669
O   O28       1.0  0.26612  0.04172  0.62576  1.0000 -0.5320717669
O   O29       1.0  0.35964  0.58404  0.62576  1.0000 -0.5320717669
O   O30       1.0  0.95828  0.73388  0.37424  1.0000 -0.5320717669
O   O31       1.0  0.48388  0.60964  0.27560  1.0000 -0.5320717669
O   O32       1.0  0.33404  0.20828  0.72440  1.0000 -0.5320717669
F   F1        1.0  0.91060  0.44713  0.78343  1.0000 -0.201724026
F   F2        1.0  0.66370  0.12717  0.21657  1.0000 -0.201724026
F   F3        1.0  0.19713  0.91370  0.03653  1.0000 -0.201724026
F   F4        1.0  0.87717  0.16060  0.96347  1.0000 -0.201724026
F   F5        1.0  0.08630  0.80287  0.96347  1.0000 -0.201724026
F   F6        1.0  0.83940  0.12283  0.03653  1.0000 -0.201724026
F   F7        1.0  0.87283  0.33630  0.78343  1.0000 -0.201724026
F   F8        1.0  0.55287  0.08940  0.21657  1.0000 -0.201724026
F   F9        1.0  0.83940  0.80287  0.71657  1.0000 -0.201724026
F   F10       1.0  0.08630  0.12283  0.28343  1.0000 -0.201724026
F   F11       1.0  0.55287  0.33630  0.46347  1.0000 -0.201724026
F   F12       1.0  0.87283  0.08940  0.53653  1.0000 -0.201724026
F   F13       1.0  0.66370  0.44713  0.53653  1.0000 -0.201724026
F   F14       1.0  0.91060  0.12717  0.46347  1.0000 -0.201724026
F   F15       1.0  0.87717  0.91370  0.71657  1.0000 -0.201724026
F   F16       1.0  0.19713  0.16060  0.28343  1.0000 -0.201724026
F   F17       1.0  0.81943  0.42965  0.75320  1.0000 -0.2125565269
F   F18       1.0  0.67645  0.06623  0.24680  1.0000 -0.2155763596
F   F19       1.0  0.17965  0.92645  0.11022  1.0000 -0.2125565269
F   F20       1.0  0.81623  0.06943  0.88978  1.0000 -0.2125565269
F   F21       1.0  0.07355  0.82035  0.88978  1.0000 -0.2125565269
F   F22       1.0  0.93057  0.18377  0.11022  1.0000 -0.2155763596
F   F23       1.0  0.93377  0.32355  0.75320  1.0000 -0.2125565269
F   F24       1.0  0.57035  0.18057  0.24680  1.0000 -0.2125565269
F   F25       1.0  0.93057  0.82035  0.74680  1.0000 -0.2125565269
F   F26       1.0  0.07355  0.18377  0.25320  1.0000 -0.2125565269
F   F27       1.0  0.57035  0.32355  0.38978  1.0000 -0.2155763596
F   F28       1.0  0.93377  0.18057  0.61022  1.0000 -0.2125565269
F   F29       1.0  0.67645  0.42965  0.61022  1.0000 -0.2155763596
F   F30       1.0  0.81943  0.06623  0.38978  1.0000 -0.2125565269
F   F31       1.0  0.81623  0.92645  0.74680  1.0000 -0.2125565269
F   F32       1.0  0.17965  0.06943  0.25320  1.0000 -0.2125565269
F   F33       1.0  0.88488  0.54201  0.87841  1.0000 -0.2125565269
F   F34       1.0  0.66360  0.00647  0.12159  1.0000 -0.2155763596
F   F35       1.0  0.29201  0.91360  0.15713  1.0000 -0.2125565269
F   F36       1.0  0.75647  0.13488  0.84287  1.0000 -0.2125565269
F   F37       1.0  0.08640  0.70799  0.84287  1.0000 -0.2125565269
F   F38       1.0  0.86512  0.24353  0.15713  1.0000 -0.2155763596
F   F39       1.0  0.99353  0.33640  0.87841  1.0000 -0.2155763596
F   F40       1.0  0.45799  0.11512  0.12159  1.0000 -0.2155763596
F   F41       1.0  0.86512  0.70799  0.62159  1.0000 -0.2125565269
F   F42       1.0  0.08640  0.24353  0.37841  1.0000 -0.2125565269
F   F43       1.0  0.45799  0.33640  0.34287  1.0000 -0.2125565269
F   F44       1.0  0.99353  0.11512  0.65713  1.0000 -0.2125565269
F   F45       1.0  0.66360  0.54201  0.65713  1.0000 -0.2125565269
F   F46       1.0  0.88488  0.00647  0.34287  1.0000 -0.2125565269
F   F47       1.0  0.75647  0.91360  0.62159  1.0000 -0.2125565269
F   F48       1.0  0.29201  0.13488  0.37841  1.0000 -0.2125565269
