# DDEC6 charges by PACMAN v1.1 (https://github.com/mtap-research/PACMAN-charge/)
data_2014[Zn][dia]3[FSR]1
_chemical_formula_sum              "Zn6 H56 C84 N20 O28"
_cell_length_a       14.9873
_cell_length_b       14.9873
_cell_length_c       17.448
_cell_angle_alpha    89.2656
_cell_angle_beta     90.7344
_cell_angle_gamma    41.3622

_symmetry_space_group_name_H-M    "P 1"
_symmetry_Int_Tables_number       1

loop_
  _symmetry_equiv_pos_as_xyz
  'x, y, z'

loop_
  _atom_site_type_symbol
  _atom_site_label
  _atom_site_symmetry_multiplicity
  _atom_site_fract_x
  _atom_site_fract_y
  _atom_site_fract_z
  _atom_site_occupancy
  _atom_site_charge
Zn  Zn1       1.0  0.58588  0.58588  0.75000  1.0000 0.7457873756
Zn  Zn2       1.0  0.41412  0.41412  0.25000  1.0000 0.7457873756
Zn  Zn3       1.0  0.85143  0.57437  0.62923  1.0000 0.8800666267
Zn  Zn4       1.0  0.57437  0.85143  0.87077  1.0000 0.8800666267
Zn  Zn5       1.0  0.14857  0.42563  0.37077  1.0000 0.8800666267
Zn  Zn6       1.0  0.42563  0.14857  0.12923  1.0000 0.8800666267
H   H1        1.0  0.57530  0.57650  0.91820  1.0000 0.1106343111
H   H2        1.0  0.57650  0.57530  0.58180  1.0000 0.1106343111
H   H3        1.0  0.42470  0.42350  0.08180  1.0000 0.1106343111
H   H4        1.0  0.42350  0.42470  0.41820  1.0000 0.1106343111
H   H5        1.0  0.32720  0.67140  0.76230  1.0000 0.1106343111
H   H6        1.0  0.67140  0.32720  0.73770  1.0000 0.1106343111
H   H7        1.0  0.67280  0.32860  0.23770  1.0000 0.1106343111
H   H8        1.0  0.32860  0.67280  0.26230  1.0000 0.1106343111
H   H9        1.0  0.42470  0.66150  0.01280  1.0000 0.129778889
H   H10       1.0  0.66150  0.42470  0.48720  1.0000 0.129778889
H   H11       1.0  0.57530  0.33850  0.98720  1.0000 0.129778889
H   H12       1.0  0.33850  0.57530  0.51280  1.0000 0.129778889
H   H13       1.0  0.17080  0.75420  0.85200  1.0000 0.1480441624
H   H14       1.0  0.75420  0.17080  0.64800  1.0000 0.1480441624
H   H15       1.0  0.82920  0.24580  0.14800  1.0000 0.1480441624
H   H16       1.0  0.24580  0.82920  0.35200  1.0000 0.1480441624
H   H17       1.0  0.44910  0.82090  0.51570  1.0000 0.1211957196
H   H18       1.0  0.82090  0.44910  0.98430  1.0000 0.1211957196
H   H19       1.0  0.55090  0.17910  0.48430  1.0000 0.1211957196
H   H20       1.0  0.17910  0.55090  0.01570  1.0000 0.1211957196
H   H21       1.0  0.06300  0.51300  0.64900  1.0000 0.3712726431
H   H22       1.0  0.51300  0.06300  0.85100  1.0000 0.3712726431
H   H23       1.0  0.93700  0.48700  0.35100  1.0000 0.3712726431
H   H24       1.0  0.48700  0.93700  0.14900  1.0000 0.3712726431
H   H25       1.0  0.10600  0.40600  0.61100  1.0000 0.3712726431
H   H26       1.0  0.40600  0.10600  0.88900  1.0000 0.3712726431
H   H27       1.0  0.89400  0.59400  0.38900  1.0000 0.3712726431
H   H28       1.0  0.59400  0.89400  0.11100  1.0000 0.3712726431
H   H29       1.0  0.33570  0.00850  0.43650  1.0000 0.129778889
H   H30       1.0  0.00850  0.33570  0.06350  1.0000 0.129778889
H   H31       1.0  0.66430  0.99150  0.56350  1.0000 0.129778889
H   H32       1.0  0.99150  0.66430  0.93650  1.0000 0.129778889
H   H33       1.0  0.33870  0.18090  0.60790  1.0000 0.1211957196
H   H34       1.0  0.18090  0.33870  0.89210  1.0000 0.1211957196
H   H35       1.0  0.66130  0.81910  0.39210  1.0000 0.1211957196
H   H36       1.0  0.81910  0.66130  0.10790  1.0000 0.1211957196
H   H37       1.0  0.60280  0.05480  0.98980  1.0000 0.1211957196
H   H38       1.0  0.05480  0.60280  0.51020  1.0000 0.1211957196
H   H39       1.0  0.39720  0.94520  0.01020  1.0000 0.1211957196
H   H40       1.0  0.94520  0.39720  0.48980  1.0000 0.1211957196
H   H41       1.0  0.65470  0.07210  0.20570  1.0000 0.1211957196
H   H42       1.0  0.07210  0.65470  0.29430  1.0000 0.1211957196
H   H43       1.0  0.34530  0.92790  0.79430  1.0000 0.1211957196
H   H44       1.0  0.92790  0.34530  0.70570  1.0000 0.1211957196
H   H45       1.0  0.25700  0.77980  0.09210  1.0000 0.2666228348
H   H46       1.0  0.77980  0.25700  0.40790  1.0000 0.2666228348
H   H47       1.0  0.74300  0.22020  0.90790  1.0000 0.2666228348
H   H48       1.0  0.22020  0.74300  0.59210  1.0000 0.2666228348
H   H49       1.0  0.80900  0.95580  0.96270  1.0000 0.1397113046
H   H50       1.0  0.95580  0.80900  0.53730  1.0000 0.1397113046
H   H51       1.0  0.19100  0.04420  0.03730  1.0000 0.1397113046
H   H52       1.0  0.04420  0.19100  0.46270  1.0000 0.1397113046
H   H53       1.0  0.86320  0.97280  0.18400  1.0000 0.1397113046
H   H54       1.0  0.97280  0.86320  0.31600  1.0000 0.1397113046
H   H55       1.0  0.13680  0.02720  0.81600  1.0000 0.1397113046
H   H56       1.0  0.02720  0.13680  0.68400  1.0000 0.1397113046
C   C1        1.0  0.53793  0.76033  0.65610  1.0000 0.5942338491
C   C2        1.0  0.76033  0.53793  0.84390  1.0000 0.5942338491
C   C3        1.0  0.46207  0.23967  0.34390  1.0000 0.5942338491
C   C4        1.0  0.23967  0.46207  0.15610  1.0000 0.5942338491
C   C5        1.0  0.49110  0.61610  0.90450  1.0000 0.0874513248
C   C6        1.0  0.61610  0.49110  0.59550  1.0000 0.0874513248
C   C7        1.0  0.50890  0.38390  0.09550  1.0000 0.0874513248
C   C8        1.0  0.38390  0.50890  0.40450  1.0000 0.0874513248
C   C9        1.0  0.34640  0.67080  0.81330  1.0000 0.0571157141
C   C10       1.0  0.67080  0.34640  0.68670  1.0000 0.0571157141
C   C11       1.0  0.65360  0.32920  0.18670  1.0000 0.0571157141
C   C12       1.0  0.32920  0.65360  0.31330  1.0000 0.0571157141
C   C13       1.0  0.46511  0.88631  0.60900  1.0000 -0.0224869219
C   C14       1.0  0.88631  0.46511  0.89100  1.0000 -0.0224869219
C   C15       1.0  0.53489  0.11369  0.39100  1.0000 -0.0224869219
C   C16       1.0  0.11369  0.53489  0.10900  1.0000 -0.0224869219
C   C17       1.0  0.40170  0.66590  0.96210  1.0000 -0.2046820512
C   C18       1.0  0.66590  0.40170  0.53790  1.0000 -0.2046820512
C   C19       1.0  0.59830  0.33410  0.03790  1.0000 -0.2046820512
C   C20       1.0  0.33410  0.59830  0.46210  1.0000 -0.2046820512
C   C21       1.0  0.25140  0.72120  0.86700  1.0000 -0.170406173
C   C22       1.0  0.72120  0.25140  0.63300  1.0000 -0.170406173
C   C23       1.0  0.74860  0.27880  0.13300  1.0000 -0.170406173
C   C24       1.0  0.27880  0.74860  0.36700  1.0000 -0.170406173
C   C25       1.0  0.42800  0.89280  0.53430  1.0000 -0.1197752012
C   C26       1.0  0.89280  0.42800  0.96570  1.0000 -0.1197752012
C   C27       1.0  0.57200  0.10720  0.46570  1.0000 -0.1197752012
C   C28       1.0  0.10720  0.57200  0.03430  1.0000 -0.1197752012
C   C29       1.0  0.43290  0.99490  0.63730  1.0000 -0.0407811301
C   C30       1.0  0.99490  0.43290  0.86270  1.0000 -0.0407811301
C   C31       1.0  0.56710  0.00510  0.36270  1.0000 -0.0407811301
C   C32       1.0  0.00510  0.56710  0.13730  1.0000 -0.0407811301
C   C33       1.0  0.27740  0.72200  0.94280  1.0000 0.0669774869
C   C34       1.0  0.72200  0.27740  0.55720  1.0000 0.0669774869
C   C35       1.0  0.72260  0.27800  0.05720  1.0000 0.0669774869
C   C36       1.0  0.27800  0.72260  0.44280  1.0000 0.0669774869
C   C37       1.0  0.25560  0.23340  0.46280  1.0000 0.5469009364
C   C38       1.0  0.23340  0.25560  0.03720  1.0000 0.5469009364
C   C39       1.0  0.74440  0.76660  0.53720  1.0000 0.5469009364
C   C40       1.0  0.76660  0.74440  0.96280  1.0000 0.5469009364
C   C41       1.0  0.35940  0.00560  0.48680  1.0000 -0.0975396159
C   C42       1.0  0.00560  0.35940  0.01320  1.0000 -0.0975396159
C   C43       1.0  0.64060  0.99440  0.51320  1.0000 -0.0975396159
C   C44       1.0  0.99440  0.64060  0.98680  1.0000 -0.0975396159
C   C45       1.0  0.36230  0.10750  0.58930  1.0000 -0.1197752012
C   C46       1.0  0.10750  0.36230  0.91070  1.0000 -0.1197752012
C   C47       1.0  0.63770  0.89250  0.41070  1.0000 -0.1197752012
C   C48       1.0  0.89250  0.63770  0.08930  1.0000 -0.1197752012
C   C49       1.0  0.47370  0.99230  0.71700  1.0000 0.5661403472
C   C50       1.0  0.99230  0.47370  0.78300  1.0000 0.5661403472
C   C51       1.0  0.52630  0.00770  0.28300  1.0000 0.5661403472
C   C52       1.0  0.00770  0.52630  0.21700  1.0000 0.5661403472
C   C53       1.0  0.17470  0.78590  0.99990  1.0000 0.249565986
C   C54       1.0  0.78590  0.17470  0.50010  1.0000 0.249565986
C   C55       1.0  0.82530  0.21410  0.00010  1.0000 0.249565986
C   C56       1.0  0.21410  0.82530  0.49990  1.0000 0.249565986
C   C57       1.0  0.65650  0.03730  0.02960  1.0000 0.079549619
C   C58       1.0  0.03730  0.65650  0.47040  1.0000 0.079549619
C   C59       1.0  0.34350  0.96270  0.97040  1.0000 0.079549619
C   C60       1.0  0.96270  0.34350  0.52960  1.0000 0.079549619
C   C61       1.0  0.68660  0.04760  0.15610  1.0000 0.0874513248
C   C62       1.0  0.04760  0.68660  0.34390  1.0000 0.0874513248
C   C63       1.0  0.31340  0.95240  0.84390  1.0000 0.0874513248
C   C64       1.0  0.95240  0.31340  0.65610  1.0000 0.0874513248
C   C65       1.0  0.32630  0.11310  0.51420  1.0000 -0.0292533105
C   C66       1.0  0.11310  0.32630  0.98580  1.0000 -0.0292533105
C   C67       1.0  0.67370  0.88690  0.48580  1.0000 -0.0292533105
C   C68       1.0  0.88690  0.67370  0.01420  1.0000 -0.0292533105
C   C69       1.0  0.78010  0.97810  0.01280  1.0000 -0.1798635017
C   C70       1.0  0.97810  0.78010  0.48720  1.0000 -0.1798635017
C   C71       1.0  0.21990  0.02190  0.98720  1.0000 -0.1798635017
C   C72       1.0  0.02190  0.21990  0.51280  1.0000 -0.1798635017
C   C73       1.0  0.81170  0.98830  0.14340  1.0000 -0.1798635017
C   C74       1.0  0.98830  0.81170  0.35660  1.0000 -0.1798635017
C   C75       1.0  0.18830  0.01170  0.85660  1.0000 -0.1798635017
C   C76       1.0  0.01170  0.18830  0.64340  1.0000 -0.1798635017
C   C77       1.0  0.99650  0.88590  0.05510  1.0000 0.249565986
C   C78       1.0  0.88590  0.99650  0.44490  1.0000 0.249565986
C   C79       1.0  0.00350  0.11410  0.94490  1.0000 0.249565986
C   C80       1.0  0.11410  0.00350  0.55510  1.0000 0.249565986
C   C81       1.0  0.86180  0.95160  0.07050  1.0000 0.079549619
C   C82       1.0  0.95160  0.86180  0.42950  1.0000 0.079549619
C   C83       1.0  0.13820  0.04840  0.92950  1.0000 0.079549619
C   C84       1.0  0.04840  0.13820  0.57050  1.0000 0.079549619
N   N1        1.0  0.46385  0.62165  0.83110  1.0000 -0.2251639134
N   N2        1.0  0.62165  0.46385  0.66890  1.0000 -0.2251639134
N   N3        1.0  0.53615  0.37835  0.16890  1.0000 -0.2251639134
N   N4        1.0  0.37835  0.53615  0.33110  1.0000 -0.2251639134
N   N5        1.0  0.60830  0.07150  0.10010  1.0000 -0.2409739113
N   N6        1.0  0.07150  0.60830  0.39990  1.0000 -0.2409739113
N   N7        1.0  0.39170  0.92850  0.89990  1.0000 -0.2409739113
N   N8        1.0  0.92850  0.39170  0.60010  1.0000 -0.2409739113
N   N9        1.0  0.18800  0.80460  0.07220  1.0000 -0.1798635017
N   N10       1.0  0.80460  0.18800  0.42780  1.0000 -0.1798635017
N   N11       1.0  0.81200  0.19540  0.92780  1.0000 -0.1798635017
N   N12       1.0  0.19540  0.81200  0.57220  1.0000 -0.1798635017
N   N13       1.0  0.05583  0.83563  0.98690  1.0000 -0.4112043446
N   N14       1.0  0.83563  0.05583  0.51310  1.0000 -0.4112043446
N   N15       1.0  0.94417  0.16437  0.01310  1.0000 -0.4112043446
N   N16       1.0  0.16437  0.94417  0.48690  1.0000 -0.4112043446
N   N17       1.0  0.07170  0.87030  0.10890  1.0000 -0.2705308861
N   N18       1.0  0.87030  0.07170  0.39110  1.0000 -0.2705308861
N   N19       1.0  0.92830  0.12970  0.89110  1.0000 -0.2705308861
N   N20       1.0  0.12970  0.92830  0.60890  1.0000 -0.2705308861
O   O1        1.0  0.46446  0.76246  0.69440  1.0000 -0.5367762214
O   O2        1.0  0.76246  0.46446  0.80560  1.0000 -0.5367762214
O   O3        1.0  0.53554  0.23754  0.30560  1.0000 -0.5367762214
O   O4        1.0  0.23754  0.53554  0.19440  1.0000 -0.5367762214
O   O5        1.0  0.66126  0.65526  0.65150  1.0000 -0.529502458
O   O6        1.0  0.65526  0.66126  0.84850  1.0000 -0.529502458
O   O7        1.0  0.33874  0.34474  0.34850  1.0000 -0.529502458
O   O8        1.0  0.34474  0.33874  0.15150  1.0000 -0.529502458
O   O9        1.0  0.04529  0.49109  0.61250  1.0000 -0.6515456503
O   O10       1.0  0.49109  0.04529  0.88750  1.0000 -0.6515456503
O   O11       1.0  0.95471  0.50891  0.38750  1.0000 -0.6515456503
O   O12       1.0  0.50891  0.95471  0.11250  1.0000 -0.6515456503
O   O13       1.0  0.53983  0.88603  0.75750  1.0000 -0.5367762214
O   O14       1.0  0.88603  0.53983  0.74250  1.0000 -0.5367762214
O   O15       1.0  0.46017  0.11397  0.24250  1.0000 -0.5367762214
O   O16       1.0  0.11397  0.46017  0.25750  1.0000 -0.5367762214
O   O17       1.0  0.23975  0.23155  0.39290  1.0000 -0.4941399759
O   O18       1.0  0.23155  0.23975  0.10710  1.0000 -0.4941399759
O   O19       1.0  0.76025  0.76845  0.60710  1.0000 -0.4941399759
O   O20       1.0  0.76845  0.76025  0.89290  1.0000 -0.4941399759
O   O21       1.0  0.21381  0.33741  0.49180  1.0000 -0.5676727062
O   O22       1.0  0.33741  0.21381  0.00820  1.0000 -0.5676727062
O   O23       1.0  0.78619  0.66259  0.50820  1.0000 -0.5676727062
O   O24       1.0  0.66259  0.78619  0.99180  1.0000 -0.5676727062
O   O25       1.0  0.44770  0.08750  0.73710  1.0000 -0.5111302798
O   O26       1.0  0.08750  0.44770  0.76290  1.0000 -0.5111302798
O   O27       1.0  0.55230  0.91250  0.26290  1.0000 -0.5111302798
O   O28       1.0  0.91250  0.55230  0.23710  1.0000 -0.5111302798
