# DDEC6 charges by PACMAN v1.1 (https://github.com/mtap-research/PACMAN-charge/)
data_2014[Cu][dia]3[FSR]17
_chemical_formula_sum              "Cu8 H96 C76 N24 O24"
_cell_length_a       13.041
_cell_length_b       14.411
_cell_length_c       16.307
_cell_angle_alpha    90
_cell_angle_beta     90
_cell_angle_gamma    90

_symmetry_space_group_name_H-M    "P 1"
_symmetry_Int_Tables_number       1

loop_
  _symmetry_equiv_pos_as_xyz
  'x, y, z'

loop_
  _atom_site_type_symbol
  _atom_site_label
  _atom_site_symmetry_multiplicity
  _atom_site_fract_x
  _atom_site_fract_y
  _atom_site_fract_z
  _atom_site_occupancy
  _atom_site_charge
Cu  Cu1       1.0  0.44018  0.03698  0.91402  1.0000 0.7244188927
Cu  Cu2       1.0  0.05982  0.96302  0.41402  1.0000 0.7244188927
Cu  Cu3       1.0  0.94018  0.46302  0.08598  1.0000 0.7244188927
Cu  Cu4       1.0  0.55982  0.53698  0.58598  1.0000 0.7244188927
Cu  Cu5       1.0  0.70991  0.29449  0.83967  1.0000 0.7305035286
Cu  Cu6       1.0  0.79009  0.70551  0.33967  1.0000 0.7305035286
Cu  Cu7       1.0  0.20991  0.20551  0.16033  1.0000 0.7305035286
Cu  Cu8       1.0  0.29009  0.79449  0.66033  1.0000 0.7305035286
H   H1        1.0  0.64870  0.26070  0.05520  1.0000 0.1105672393
H   H2        1.0  0.85130  0.73930  0.55520  1.0000 0.1105672393
H   H3        1.0  0.14870  0.23930  0.94480  1.0000 0.1105672393
H   H4        1.0  0.35130  0.76070  0.44480  1.0000 0.1105672393
H   H5        1.0  0.49750  0.34560  0.02700  1.0000 0.1418025695
H   H6        1.0  0.00250  0.65440  0.52700  1.0000 0.1418025695
H   H7        1.0  0.99750  0.15440  0.97300  1.0000 0.1418025695
H   H8        1.0  0.50250  0.84560  0.47300  1.0000 0.1418025695
H   H9        1.0  0.56040  0.41800  0.97580  1.0000 0.1418025695
H   H10       1.0  0.93960  0.58200  0.47580  1.0000 0.1418025695
H   H11       1.0  0.06040  0.08200  0.02420  1.0000 0.1418025695
H   H12       1.0  0.43960  0.91800  0.52420  1.0000 0.1418025695
H   H13       1.0  0.57580  0.41150  0.07100  1.0000 0.1418025695
H   H14       1.0  0.92420  0.58850  0.57100  1.0000 0.1418025695
H   H15       1.0  0.07580  0.08850  0.92900  1.0000 0.1418025695
H   H16       1.0  0.42420  0.91150  0.42900  1.0000 0.1418025695
H   H17       1.0  0.54440  0.02780  0.71570  1.0000 0.1105672393
H   H18       1.0  0.95560  0.97220  0.21570  1.0000 0.1105672393
H   H19       1.0  0.04440  0.47220  0.28430  1.0000 0.1105672393
H   H20       1.0  0.45560  0.52780  0.78430  1.0000 0.1105672393
H   H21       1.0  0.47330  0.16870  0.67160  1.0000 0.1418025695
H   H22       1.0  0.02670  0.83130  0.17160  1.0000 0.1418025695
H   H23       1.0  0.97330  0.33130  0.32840  1.0000 0.1418025695
H   H24       1.0  0.52670  0.66870  0.82840  1.0000 0.1418025695
H   H25       1.0  0.36530  0.13800  0.70390  1.0000 0.1418025695
H   H26       1.0  0.13470  0.86200  0.20390  1.0000 0.1418025695
H   H27       1.0  0.86530  0.36200  0.29610  1.0000 0.1418025695
H   H28       1.0  0.63470  0.63800  0.79610  1.0000 0.1418025695
H   H29       1.0  0.41550  0.08590  0.62970  1.0000 0.1418025695
H   H30       1.0  0.08450  0.91410  0.12970  1.0000 0.1418025695
H   H31       1.0  0.91550  0.41410  0.37030  1.0000 0.1418025695
H   H32       1.0  0.58450  0.58590  0.87030  1.0000 0.1418025695
H   H33       1.0  0.71650  0.60170  0.03300  1.0000 0.1489585431
H   H34       1.0  0.78350  0.39830  0.53300  1.0000 0.1489585431
H   H35       1.0  0.21650  0.89830  0.96700  1.0000 0.1489585431
H   H36       1.0  0.28350  0.10170  0.46700  1.0000 0.1489585431
H   H37       1.0  0.64160  0.67780  0.99920  1.0000 0.1418025695
H   H38       1.0  0.85840  0.32220  0.49920  1.0000 0.1418025695
H   H39       1.0  0.14160  0.82220  0.00080  1.0000 0.1418025695
H   H40       1.0  0.35840  0.17780  0.50080  1.0000 0.1418025695
H   H41       1.0  0.59850  0.58180  0.02840  1.0000 0.1489585431
H   H42       1.0  0.90150  0.41820  0.52840  1.0000 0.1489585431
H   H43       1.0  0.09850  0.91820  0.97160  1.0000 0.1489585431
H   H44       1.0  0.40150  0.08180  0.47160  1.0000 0.1489585431
H   H45       1.0  0.58360  0.76440  0.36310  1.0000 0.1418025695
H   H46       1.0  0.91640  0.23560  0.86310  1.0000 0.1418025695
H   H47       1.0  0.08360  0.73560  0.63690  1.0000 0.1418025695
H   H48       1.0  0.41640  0.26440  0.13690  1.0000 0.1418025695
H   H49       1.0  0.47800  0.73060  0.32800  1.0000 0.1489585431
H   H50       1.0  0.02200  0.26940  0.82800  1.0000 0.1489585431
H   H51       1.0  0.97800  0.76940  0.67200  1.0000 0.1489585431
H   H52       1.0  0.52200  0.23060  0.17200  1.0000 0.1489585431
H   H53       1.0  0.52040  0.82880  0.30430  1.0000 0.1418025695
H   H54       1.0  0.97960  0.17120  0.80430  1.0000 0.1418025695
H   H55       1.0  0.02040  0.67120  0.69570  1.0000 0.1418025695
H   H56       1.0  0.47960  0.32880  0.19570  1.0000 0.1418025695
H   H57       1.0  0.50090  0.84490  0.90110  1.0000 0.1418025695
H   H58       1.0  0.99910  0.15510  0.40110  1.0000 0.1418025695
H   H59       1.0  0.00090  0.65510  0.09890  1.0000 0.1418025695
H   H60       1.0  0.49910  0.34490  0.59890  1.0000 0.1418025695
H   H61       1.0  0.45360  0.75450  0.93870  1.0000 0.1489585431
H   H62       1.0  0.04640  0.24550  0.43870  1.0000 0.1489585431
H   H63       1.0  0.95360  0.74550  0.06130  1.0000 0.1489585431
H   H64       1.0  0.54640  0.25450  0.56130  1.0000 0.1489585431
H   H65       1.0  0.56500  0.78490  0.96270  1.0000 0.1489585431
H   H66       1.0  0.93500  0.21510  0.46270  1.0000 0.1489585431
H   H67       1.0  0.06500  0.71510  0.03730  1.0000 0.1489585431
H   H68       1.0  0.43500  0.28490  0.53730  1.0000 0.1489585431
H   H69       1.0  0.43240  0.69190  0.09060  1.0000 0.1105672393
H   H70       1.0  0.06760  0.30810  0.59060  1.0000 0.1105672393
H   H71       1.0  0.93240  0.80810  0.90940  1.0000 0.1105672393
H   H72       1.0  0.56760  0.19190  0.40940  1.0000 0.1105672393
H   H73       1.0  0.40260  0.72760  0.17790  1.0000 0.1105672393
H   H74       1.0  0.09740  0.27240  0.67790  1.0000 0.1105672393
H   H75       1.0  0.90260  0.77240  0.82210  1.0000 0.1105672393
H   H76       1.0  0.59740  0.22760  0.32210  1.0000 0.1105672393
H   H77       1.0  0.34330  0.99220  0.22980  1.0000 0.1489585431
H   H78       1.0  0.15670  0.00780  0.72980  1.0000 0.1489585431
H   H79       1.0  0.84330  0.50780  0.77020  1.0000 0.1489585431
H   H80       1.0  0.65670  0.49220  0.27020  1.0000 0.1489585431
H   H81       1.0  0.42080  0.91740  0.26190  1.0000 0.1489585431
H   H82       1.0  0.07920  0.08260  0.76190  1.0000 0.1489585431
H   H83       1.0  0.92080  0.58260  0.73810  1.0000 0.1489585431
H   H84       1.0  0.57920  0.41740  0.23810  1.0000 0.1489585431
H   H85       1.0  0.30860  0.88850  0.23860  1.0000 0.1489585431
H   H86       1.0  0.19140  0.11150  0.73860  1.0000 0.1489585431
H   H87       1.0  0.80860  0.61150  0.76140  1.0000 0.1489585431
H   H88       1.0  0.69140  0.38850  0.26140  1.0000 0.1489585431
H   H89       1.0  0.77170  0.63500  0.16620  1.0000 0.2903278015
H   H90       1.0  0.72830  0.36500  0.66620  1.0000 0.2903278015
H   H91       1.0  0.27170  0.86500  0.83380  1.0000 0.2903278015
H   H92       1.0  0.22830  0.13500  0.33380  1.0000 0.2903278015
H   H93       1.0  0.37760  0.03520  0.09350  1.0000 0.2903278015
H   H94       1.0  0.12240  0.96480  0.59350  1.0000 0.2903278015
H   H95       1.0  0.87760  0.46480  0.90650  1.0000 0.2903278015
H   H96       1.0  0.62240  0.53520  0.40650  1.0000 0.2903278015
C   C1        1.0  0.75100  0.35450  0.00190  1.0000 0.5644268387
C   C2        1.0  0.74900  0.64550  0.50190  1.0000 0.5644268387
C   C3        1.0  0.25100  0.14550  0.99810  1.0000 0.5644268387
C   C4        1.0  0.24900  0.85450  0.49810  1.0000 0.5644268387
C   C5        1.0  0.64730  0.30470  0.00930  1.0000 0.0414478883
C   C6        1.0  0.85270  0.69530  0.50930  1.0000 0.0414478883
C   C7        1.0  0.14730  0.19530  0.99070  1.0000 0.0414478883
C   C8        1.0  0.35270  0.80470  0.49070  1.0000 0.0414478883
C   C9        1.0  0.56230  0.37670  0.02200  1.0000 -0.4166951634
C   C10       1.0  0.93770  0.62330  0.52200  1.0000 -0.4166951634
C   C11       1.0  0.06230  0.12330  0.97800  1.0000 -0.4166951634
C   C12       1.0  0.43770  0.87670  0.47800  1.0000 -0.4166951634
C   C13       1.0  0.57200  0.18410  0.92120  1.0000 0.3593032688
C   C14       1.0  0.92800  0.81590  0.42120  1.0000 0.3593032688
C   C15       1.0  0.07200  0.31590  0.07880  1.0000 0.3593032688
C   C16       1.0  0.42800  0.68410  0.57880  1.0000 0.3593032688
C   C17       1.0  0.56710  0.15630  0.83100  1.0000 0.3593032688
C   C18       1.0  0.93290  0.84370  0.33100  1.0000 0.3593032688
C   C19       1.0  0.06710  0.34370  0.16900  1.0000 0.3593032688
C   C20       1.0  0.43290  0.65630  0.66900  1.0000 0.3593032688
C   C21       1.0  0.47990  0.04920  0.74000  1.0000 0.0414478883
C   C22       1.0  0.02010  0.95080  0.24000  1.0000 0.0414478883
C   C23       1.0  0.97990  0.45080  0.26000  1.0000 0.0414478883
C   C24       1.0  0.52010  0.54920  0.76000  1.0000 0.0414478883
C   C25       1.0  0.42880  0.11670  0.68090  1.0000 -0.4138823681
C   C26       1.0  0.07120  0.88330  0.18090  1.0000 -0.4138823681
C   C27       1.0  0.92880  0.38330  0.31910  1.0000 -0.4138823681
C   C28       1.0  0.57120  0.61670  0.81910  1.0000 -0.4138823681
C   C29       1.0  0.41130  0.96590  0.75440  1.0000 0.5644268387
C   C30       1.0  0.08870  0.03410  0.25440  1.0000 0.5644268387
C   C31       1.0  0.91130  0.53410  0.24560  1.0000 0.5644268387
C   C32       1.0  0.58870  0.46590  0.74560  1.0000 0.5644268387
C   C33       1.0  0.64940  0.62850  0.03830  1.0000 -0.4823507562
C   C34       1.0  0.85060  0.37150  0.53830  1.0000 -0.4823507562
C   C35       1.0  0.14940  0.87150  0.96170  1.0000 -0.4823507562
C   C36       1.0  0.35060  0.12850  0.46170  1.0000 -0.4823507562
C   C37       1.0  0.63620  0.66710  0.12490  1.0000 0.1890182861
C   C38       1.0  0.86380  0.33290  0.62490  1.0000 0.1890182861
C   C39       1.0  0.13620  0.83290  0.87510  1.0000 0.1890182861
C   C40       1.0  0.36380  0.16710  0.37510  1.0000 0.1890182861
C   C41       1.0  0.55690  0.71100  0.16420  1.0000 -0.1026069715
C   C42       1.0  0.94310  0.28900  0.66420  1.0000 -0.1026069715
C   C43       1.0  0.05690  0.78900  0.83580  1.0000 -0.1026069715
C   C44       1.0  0.44310  0.21100  0.33580  1.0000 -0.1026069715
C   C45       1.0  0.59210  0.72480  0.24450  1.0000 0.1890182861
C   C46       1.0  0.90790  0.27520  0.74450  1.0000 0.1890182861
C   C47       1.0  0.09210  0.77520  0.75550  1.0000 0.1890182861
C   C48       1.0  0.40790  0.22480  0.25550  1.0000 0.1890182861
C   C49       1.0  0.53880  0.76580  0.31630  1.0000 -0.4745126523
C   C50       1.0  0.96120  0.23420  0.81630  1.0000 -0.4745126523
C   C51       1.0  0.03880  0.73420  0.68370  1.0000 -0.4745126523
C   C52       1.0  0.46120  0.26580  0.18370  1.0000 -0.4745126523
C   C53       1.0  0.49750  0.80660  0.94910  1.0000 -0.4823507562
C   C54       1.0  0.00250  0.19340  0.44910  1.0000 -0.4823507562
C   C55       1.0  0.99750  0.69340  0.05090  1.0000 -0.4823507562
C   C56       1.0  0.50250  0.30660  0.55090  1.0000 -0.4823507562
C   C57       1.0  0.45600  0.86140  0.01840  1.0000 0.1965062313
C   C58       1.0  0.04400  0.13860  0.51840  1.0000 0.1965062313
C   C59       1.0  0.95600  0.63860  0.98160  1.0000 0.1965062313
C   C60       1.0  0.54400  0.36140  0.48160  1.0000 0.1965062313
C   C61       1.0  0.43710  0.83280  0.09930  1.0000 -0.1026069715
C   C62       1.0  0.06290  0.16720  0.59930  1.0000 -0.1026069715
C   C63       1.0  0.93710  0.66720  0.90070  1.0000 -0.1026069715
C   C64       1.0  0.56290  0.33280  0.40070  1.0000 -0.1026069715
C   C65       1.0  0.45080  0.73580  0.13320  1.0000 -0.2211448148
C   C66       1.0  0.04920  0.26420  0.63320  1.0000 -0.2211448148
C   C67       1.0  0.95080  0.76420  0.86680  1.0000 -0.2211448148
C   C68       1.0  0.54920  0.23580  0.36680  1.0000 -0.2211448148
C   C69       1.0  0.39900  0.91000  0.13830  1.0000 0.1842351474
C   C70       1.0  0.10100  0.09000  0.63830  1.0000 0.1842351474
C   C71       1.0  0.89900  0.59000  0.86170  1.0000 0.1842351474
C   C72       1.0  0.60100  0.41000  0.36170  1.0000 0.1842351474
C   C73       1.0  0.36480  0.92870  0.22500  1.0000 -0.4885471843
C   C74       1.0  0.13520  0.07130  0.72500  1.0000 -0.4885471843
C   C75       1.0  0.86480  0.57130  0.77500  1.0000 -0.4885471843
C   C76       1.0  0.63520  0.42870  0.27500  1.0000 -0.4885471843
N   N1        1.0  0.63070  0.25550  0.93220  1.0000 -0.4017492912
N   N2        1.0  0.86930  0.74450  0.43220  1.0000 -0.4017492912
N   N3        1.0  0.13070  0.24450  0.06780  1.0000 -0.4017492912
N   N4        1.0  0.36930  0.75550  0.56780  1.0000 -0.4017492912
N   N5        1.0  0.50180  0.09180  0.81850  1.0000 -0.4017492912
N   N6        1.0  0.99820  0.90820  0.31850  1.0000 -0.4017492912
N   N7        1.0  0.00180  0.40820  0.18150  1.0000 -0.4017492912
N   N8        1.0  0.49820  0.59180  0.68150  1.0000 -0.4017492912
N   N9        1.0  0.68870  0.69330  0.25160  1.0000 -0.2539258681
N   N10       1.0  0.81130  0.30670  0.75160  1.0000 -0.2539258681
N   N11       1.0  0.18870  0.80670  0.74840  1.0000 -0.2539258681
N   N12       1.0  0.31130  0.19330  0.24840  1.0000 -0.2539258681
N   N13       1.0  0.71320  0.65920  0.17790  1.0000 -0.129112209
N   N14       1.0  0.78680  0.34080  0.67790  1.0000 -0.129112209
N   N15       1.0  0.21320  0.84080  0.82210  1.0000 -0.129112209
N   N16       1.0  0.28680  0.15920  0.32210  1.0000 -0.129112209
N   N17       1.0  0.39740  0.97960  0.08300  1.0000 -0.129112209
N   N18       1.0  0.10260  0.02040  0.58300  1.0000 -0.129112209
N   N19       1.0  0.89740  0.52040  0.91700  1.0000 -0.129112209
N   N20       1.0  0.60260  0.47960  0.41700  1.0000 -0.129112209
N   N21       1.0  0.43070  0.95100  0.00930  1.0000 -0.2539258681
N   N22       1.0  0.06930  0.04900  0.50930  1.0000 -0.2539258681
N   N23       1.0  0.93070  0.54900  0.99070  1.0000 -0.2539258681
N   N24       1.0  0.56930  0.45100  0.49070  1.0000 -0.2539258681
O   O1        1.0  0.79090  0.35730  0.92870  1.0000 -0.5350452967
O   O2        1.0  0.70910  0.64270  0.42870  1.0000 -0.5350452967
O   O3        1.0  0.29090  0.14270  0.07130  1.0000 -0.5350452967
O   O4        1.0  0.20910  0.85730  0.57130  1.0000 -0.5350452967
O   O5        1.0  0.78770  0.39240  0.06250  1.0000 -0.5221671767
O   O6        1.0  0.71230  0.60760  0.56250  1.0000 -0.5221671767
O   O7        1.0  0.28770  0.10760  0.93750  1.0000 -0.5221671767
O   O8        1.0  0.21230  0.89240  0.43750  1.0000 -0.5221671767
O   O9        1.0  0.62630  0.19720  0.78020  1.0000 -0.460368932
O   O10       1.0  0.87370  0.80280  0.28020  1.0000 -0.460368932
O   O11       1.0  0.12630  0.30280  0.21980  1.0000 -0.460368932
O   O12       1.0  0.37370  0.69720  0.71980  1.0000 -0.460368932
O   O13       1.0  0.52070  0.13730  0.97340  1.0000 -0.4481047399
O   O14       1.0  0.97930  0.86270  0.47340  1.0000 -0.4481047399
O   O15       1.0  0.02070  0.36270  0.02660  1.0000 -0.4481047399
O   O16       1.0  0.47930  0.63730  0.52660  1.0000 -0.4481047399
O   O17       1.0  0.37920  0.92150  0.69540  1.0000 -0.5283582218
O   O18       1.0  0.12080  0.07850  0.19540  1.0000 -0.5283582218
O   O19       1.0  0.87920  0.57850  0.30460  1.0000 -0.5283582218
O   O20       1.0  0.62080  0.42150  0.80460  1.0000 -0.5283582218
O   O21       1.0  0.38650  0.94890  0.82930  1.0000 -0.5283582218
O   O22       1.0  0.11350  0.05110  0.32930  1.0000 -0.5283582218
O   O23       1.0  0.88650  0.55110  0.17070  1.0000 -0.5283582218
O   O24       1.0  0.61350  0.44890  0.67070  1.0000 -0.5283582218
