# DDEC6 charges by PACMAN v1.1 (https://github.com/mtap-research/PACMAN-charge/)
data_2014[Mn][nan]3[FSR]1
_chemical_formula_sum              "Mn8 H164 C188 N4 O40"
_cell_length_a       21.075
_cell_length_b       7.0239
_cell_length_c       31.99
_cell_angle_alpha    90
_cell_angle_beta     104.356
_cell_angle_gamma    90

_symmetry_space_group_name_H-M    "P 1"
_symmetry_Int_Tables_number       1

loop_
  _symmetry_equiv_pos_as_xyz
  'x, y, z'

loop_
  _atom_site_type_symbol
  _atom_site_label
  _atom_site_symmetry_multiplicity
  _atom_site_fract_x
  _atom_site_fract_y
  _atom_site_fract_z
  _atom_site_occupancy
  _atom_site_charge
Mn  Mn1       1.0  0.69932  0.88871  0.74946  1.0000 0.9854789656
Mn  Mn2       1.0  0.30068  0.38871  0.75054  1.0000 0.984959988
Mn  Mn3       1.0  0.30068  0.11129  0.25054  1.0000 0.984959988
Mn  Mn4       1.0  0.69932  0.61129  0.24946  1.0000 0.9854789656
Mn  Mn5       1.0  0.75505  0.39753  0.76731  1.0000 1.0663725715
Mn  Mn6       1.0  0.24495  0.89753  0.73269  1.0000 1.0663725715
Mn  Mn7       1.0  0.24495  0.60247  0.23269  1.0000 1.0663725715
Mn  Mn8       1.0  0.75505  0.10247  0.26731  1.0000 1.0663725715
H   H1        1.0  0.88450  0.99380  0.18300  1.0000 0.1199661691
H   H2        1.0  0.11550  0.49380  0.31700  1.0000 0.1199661691
H   H3        1.0  0.11550  0.00620  0.81700  1.0000 0.1199661691
H   H4        1.0  0.88450  0.50620  0.68300  1.0000 0.1199661691
H   H5        1.0  0.56410  0.04600  0.83830  1.0000 0.1126957779
H   H6        1.0  0.43590  0.54600  0.66170  1.0000 0.1126957779
H   H7        1.0  0.43590  0.95400  0.16170  1.0000 0.1126957779
H   H8        1.0  0.56410  0.45400  0.33830  1.0000 0.1126957779
H   H9        1.0  0.73210  0.31560  0.89370  1.0000 0.1292603328
H   H10       1.0  0.26790  0.81560  0.60630  1.0000 0.1292603328
H   H11       1.0  0.26790  0.68440  0.10630  1.0000 0.1292603328
H   H12       1.0  0.73210  0.18440  0.39370  1.0000 0.1292603328
H   H13       1.0  0.93250  0.97610  0.12520  1.0000 0.1199661691
H   H14       1.0  0.06750  0.47610  0.37480  1.0000 0.1199661691
H   H15       1.0  0.06750  0.02390  0.87480  1.0000 0.1199661691
H   H16       1.0  0.93250  0.52390  0.62520  1.0000 0.1199661691
H   H17       1.0  0.74300  0.64120  0.12170  1.0000 0.1199661691
H   H18       1.0  0.25700  0.14120  0.37830  1.0000 0.1199661691
H   H19       1.0  0.25700  0.35880  0.87830  1.0000 0.1199661691
H   H20       1.0  0.74300  0.85880  0.62170  1.0000 0.1199661691
H   H21       1.0  0.57280  0.01050  0.61820  1.0000 0.1199661691
H   H22       1.0  0.42720  0.51050  0.88180  1.0000 0.1199661691
H   H23       1.0  0.42720  0.98950  0.38180  1.0000 0.1199661691
H   H24       1.0  0.57280  0.48950  0.11820  1.0000 0.1199661691
H   H25       1.0  0.88490  0.57010  0.89450  1.0000 0.1199661691
H   H26       1.0  0.11510  0.07010  0.60550  1.0000 0.1199661691
H   H27       1.0  0.11510  0.42990  0.10550  1.0000 0.1199661691
H   H28       1.0  0.88490  0.92990  0.39450  1.0000 0.1199661691
H   H29       1.0  0.58560  0.29870  0.95320  1.0000 0.1199661691
H   H30       1.0  0.41440  0.79870  0.54680  1.0000 0.1199661691
H   H31       1.0  0.41440  0.70130  0.04680  1.0000 0.1199661691
H   H32       1.0  0.58560  0.20130  0.45320  1.0000 0.1199661691
H   H33       1.0  0.70150  0.20380  0.01040  1.0000 0.1292603328
H   H34       1.0  0.29850  0.70380  0.48960  1.0000 0.1292603328
H   H35       1.0  0.29850  0.79620  0.98960  1.0000 0.1292603328
H   H36       1.0  0.70150  0.29620  0.51040  1.0000 0.1292603328
H   H37       1.0  0.66290  0.56960  0.82060  1.0000 0.0975270179
H   H38       1.0  0.33710  0.06960  0.67940  1.0000 0.0975270179
H   H39       1.0  0.33710  0.43040  0.17940  1.0000 0.0975270179
H   H40       1.0  0.66290  0.93040  0.32060  1.0000 0.0975270179
H   H41       1.0  0.39480  0.06220  0.46140  1.0000 0.1199661691
H   H42       1.0  0.60520  0.56220  0.03860  1.0000 0.1199661691
H   H43       1.0  0.60520  0.93780  0.53860  1.0000 0.1199661691
H   H44       1.0  0.39480  0.43780  0.96140  1.0000 0.1199661691
H   H45       1.0  0.56180  0.48180  0.54590  1.0000 0.1199661691
H   H46       1.0  0.43820  0.98180  0.95410  1.0000 0.1199661691
H   H47       1.0  0.43820  0.51820  0.45410  1.0000 0.1199661691
H   H48       1.0  0.56180  0.01820  0.04590  1.0000 0.1199661691
H   H49       1.0  0.88480  0.79380  0.06550  1.0000 0.1199661691
H   H50       1.0  0.11520  0.29380  0.43450  1.0000 0.1199661691
H   H51       1.0  0.11520  0.20620  0.93450  1.0000 0.1199661691
H   H52       1.0  0.88480  0.70620  0.56550  1.0000 0.1199661691
H   H53       1.0  0.65290  0.50100  0.67110  1.0000 0.1292603328
H   H54       1.0  0.34710  0.00100  0.82890  1.0000 0.1292603328
H   H55       1.0  0.34710  0.49900  0.32890  1.0000 0.1292603328
H   H56       1.0  0.65290  0.99900  0.17110  1.0000 0.1292603328
H   H57       1.0  0.11140  0.47900  0.01880  1.0000 0.1199661691
H   H58       1.0  0.88860  0.97900  0.48120  1.0000 0.1199661691
H   H59       1.0  0.88860  0.52100  0.98120  1.0000 0.1199661691
H   H60       1.0  0.11140  0.02100  0.51880  1.0000 0.1199661691
H   H61       1.0  0.61780  0.65020  0.60500  1.0000 0.1199661691
H   H62       1.0  0.38220  0.15020  0.89500  1.0000 0.1199661691
H   H63       1.0  0.38220  0.34980  0.39500  1.0000 0.1199661691
H   H64       1.0  0.61780  0.84980  0.10500  1.0000 0.1199661691
H   H65       1.0  0.90710  0.21880  0.91660  1.0000 0.1199661691
H   H66       1.0  0.09290  0.71880  0.58340  1.0000 0.1199661691
H   H67       1.0  0.09290  0.78120  0.08340  1.0000 0.1199661691
H   H68       1.0  0.90710  0.28120  0.41660  1.0000 0.1199661691
H   H69       1.0  0.96750  0.00970  0.96640  1.0000 0.1126957779
H   H70       1.0  0.03250  0.50970  0.53360  1.0000 0.1126957779
H   H71       1.0  0.03250  0.99030  0.03360  1.0000 0.1126957779
H   H72       1.0  0.96750  0.49030  0.46640  1.0000 0.1126957779
H   H73       1.0  0.43970  0.42030  0.52590  1.0000 0.1292603328
H   H74       1.0  0.56030  0.92030  0.97410  1.0000 0.1292603328
H   H75       1.0  0.56030  0.57970  0.47410  1.0000 0.1292603328
H   H76       1.0  0.43970  0.07970  0.02590  1.0000 0.1292603328
H   H77       1.0  0.37830  0.29050  0.50870  1.0000 0.1402464275
H   H78       1.0  0.62170  0.79050  0.99130  1.0000 0.1402464275
H   H79       1.0  0.62170  0.70950  0.49130  1.0000 0.1402464275
H   H80       1.0  0.37830  0.20950  0.00870  1.0000 0.1402464275
H   H81       1.0  0.41980  0.26930  0.55640  1.0000 0.1402464275
H   H82       1.0  0.58020  0.76930  0.94360  1.0000 0.1402464275
H   H83       1.0  0.58020  0.73070  0.44360  1.0000 0.1402464275
H   H84       1.0  0.41980  0.23070  0.05640  1.0000 0.1402464275
H   H85       1.0  0.78380  0.80560  0.00650  1.0000 0.1199661691
H   H86       1.0  0.21620  0.30560  0.49350  1.0000 0.1199661691
H   H87       1.0  0.21620  0.19440  0.99350  1.0000 0.1199661691
H   H88       1.0  0.78380  0.69440  0.50650  1.0000 0.1199661691
H   H89       1.0  0.52160  0.13800  0.89530  1.0000 0.1126957779
H   H90       1.0  0.47840  0.63800  0.60470  1.0000 0.1126957779
H   H91       1.0  0.47840  0.86200  0.10470  1.0000 0.1126957779
H   H92       1.0  0.52160  0.36200  0.39530  1.0000 0.1126957779
H   H93       1.0  0.83730  0.10300  0.85410  1.0000 0.1199661691
H   H94       1.0  0.16270  0.60300  0.64590  1.0000 0.1199661691
H   H95       1.0  0.16270  0.89700  0.14590  1.0000 0.1199661691
H   H96       1.0  0.83730  0.39700  0.35410  1.0000 0.1199661691
H   H97       1.0  0.73900  0.84510  0.93480  1.0000 0.1402464275
H   H98       1.0  0.26100  0.34510  0.56520  1.0000 0.1402464275
H   H99       1.0  0.26100  0.15490  0.06520  1.0000 0.1402464275
H   H100      1.0  0.73900  0.65490  0.43480  1.0000 0.1402464275
H   H101      1.0  0.75170  0.66250  0.90990  1.0000 0.1402464275
H   H102      1.0  0.24830  0.16250  0.59010  1.0000 0.1402464275
H   H103      1.0  0.24830  0.33750  0.09010  1.0000 0.1402464275
H   H104      1.0  0.75170  0.83750  0.40990  1.0000 0.1402464275
H   H105      1.0  0.68030  0.71430  0.91210  1.0000 0.1402464275
H   H106      1.0  0.31970  0.21430  0.58790  1.0000 0.1402464275
H   H107      1.0  0.31970  0.28570  0.08790  1.0000 0.1402464275
H   H108      1.0  0.68030  0.78570  0.41210  1.0000 0.1402464275
H   H109      1.0  0.76220  0.15460  0.08140  1.0000 0.1292603328
H   H110      1.0  0.23780  0.65460  0.41860  1.0000 0.1292603328
H   H111      1.0  0.23780  0.84540  0.91860  1.0000 0.1292603328
H   H112      1.0  0.76220  0.34540  0.58140  1.0000 0.1292603328
H   H113      1.0  0.80040  0.32210  0.10890  1.0000 0.1402464275
H   H114      1.0  0.19960  0.82210  0.39110  1.0000 0.1402464275
H   H115      1.0  0.19960  0.67790  0.89110  1.0000 0.1402464275
H   H116      1.0  0.80040  0.17790  0.60890  1.0000 0.1402464275
H   H117      1.0  0.72430  0.30600  0.10180  1.0000 0.1402464275
H   H118      1.0  0.27570  0.80600  0.39820  1.0000 0.1402464275
H   H119      1.0  0.27570  0.69400  0.89820  1.0000 0.1402464275
H   H120      1.0  0.72430  0.19400  0.60180  1.0000 0.1402464275
H   H121      1.0  0.86880  0.17360  0.76500  1.0000 0.3691254836
H   H122      1.0  0.13120  0.67360  0.73500  1.0000 0.3691254836
H   H123      1.0  0.13120  0.82640  0.23500  1.0000 0.3691254836
H   H124      1.0  0.86880  0.32640  0.26500  1.0000 0.3691254836
H   H125      1.0  0.82730  0.11830  0.78970  1.0000 0.344981907
H   H126      1.0  0.17270  0.61830  0.71030  1.0000 0.344981907
H   H127      1.0  0.17270  0.88170  0.21030  1.0000 0.344981907
H   H128      1.0  0.82730  0.38170  0.28970  1.0000 0.344981907
H   H129      1.0  0.52600  0.71860  0.82770  1.0000 0.1402464275
H   H130      1.0  0.47400  0.21860  0.67230  1.0000 0.1402464275
H   H131      1.0  0.47400  0.28140  0.17230  1.0000 0.1402464275
H   H132      1.0  0.52600  0.78140  0.32770  1.0000 0.1402464275
H   H133      1.0  0.51080  0.50060  0.82100  1.0000 0.1402464275
H   H134      1.0  0.48920  0.00060  0.67900  1.0000 0.1402464275
H   H135      1.0  0.48920  0.49940  0.17900  1.0000 0.1402464275
H   H136      1.0  0.51080  0.99940  0.32100  1.0000 0.1402464275
H   H137      1.0  0.57770  0.56800  0.85100  1.0000 0.1292603328
H   H138      1.0  0.42230  0.06800  0.64900  1.0000 0.1292603328
H   H139      1.0  0.42230  0.43200  0.14900  1.0000 0.1292603328
H   H140      1.0  0.57770  0.93200  0.35100  1.0000 0.1292603328
H   H141      1.0  0.54220  0.53850  0.72540  1.0000 0.1402464275
H   H142      1.0  0.45780  0.03850  0.77460  1.0000 0.1402464275
H   H143      1.0  0.45780  0.46150  0.27460  1.0000 0.1402464275
H   H144      1.0  0.54220  0.96150  0.22540  1.0000 0.1402464275
H   H145      1.0  0.48690  0.61360  0.74610  1.0000 0.1402464275
H   H146      1.0  0.51310  0.11360  0.75390  1.0000 0.1402464275
H   H147      1.0  0.51310  0.38640  0.25390  1.0000 0.1402464275
H   H148      1.0  0.48690  0.88640  0.24610  1.0000 0.1402464275
H   H149      1.0  0.53880  0.75540  0.73620  1.0000 0.1402464275
H   H150      1.0  0.46120  0.25540  0.76380  1.0000 0.1402464275
H   H151      1.0  0.46120  0.24460  0.26380  1.0000 0.1402464275
H   H152      1.0  0.53880  0.74460  0.23620  1.0000 0.1402464275
H   H153      1.0  0.06770  0.71920  0.92810  1.0000 0.1402464275
H   H154      1.0  0.93230  0.21920  0.57190  1.0000 0.1402464275
H   H155      1.0  0.93230  0.28080  0.07190  1.0000 0.1402464275
H   H156      1.0  0.06770  0.78080  0.42810  1.0000 0.1402464275
H   H157      1.0  0.07580  0.87080  0.96500  1.0000 0.1292603328
H   H158      1.0  0.92420  0.37080  0.53500  1.0000 0.1292603328
H   H159      1.0  0.92420  0.12920  0.03500  1.0000 0.1292603328
H   H160      1.0  0.07580  0.62920  0.46500  1.0000 0.1292603328
H   H161      1.0  0.12520  0.70070  0.96970  1.0000 0.1402464275
H   H162      1.0  0.87480  0.20070  0.53030  1.0000 0.1402464275
H   H163      1.0  0.87480  0.29930  0.03030  1.0000 0.1402464275
H   H164      1.0  0.12520  0.79930  0.46970  1.0000 0.1402464275
C   C1        1.0  0.86540  0.92000  0.15901  1.0000 -0.1117357481
C   C2        1.0  0.13460  0.42000  0.34099  1.0000 -0.1117357481
C   C3        1.0  0.13460  0.08000  0.84099  1.0000 -0.1117357481
C   C4        1.0  0.86540  0.58000  0.65901  1.0000 -0.1117357481
C   C5        1.0  0.67850  0.12640  0.82183  1.0000 0.5764295142
C   C6        1.0  0.32150  0.62640  0.67817  1.0000 0.5764295142
C   C7        1.0  0.32150  0.87360  0.17817  1.0000 0.5764295142
C   C8        1.0  0.67850  0.37360  0.32183  1.0000 0.5764295142
C   C9        1.0  0.70770  0.41800  0.96955  1.0000 -0.0032649562
C   C10       1.0  0.29230  0.91800  0.53045  1.0000 -0.0032649562
C   C11       1.0  0.29230  0.58200  0.03045  1.0000 -0.0032649562
C   C12       1.0  0.70770  0.08200  0.46955  1.0000 -0.0032649562
C   C13       1.0  0.65200  0.17260  0.86027  1.0000 -0.0279386578
C   C14       1.0  0.34800  0.67260  0.63973  1.0000 -0.0279386578
C   C15       1.0  0.34800  0.82740  0.13973  1.0000 -0.0279386578
C   C16       1.0  0.65200  0.32740  0.36027  1.0000 -0.0279386578
C   C17       1.0  0.80850  0.81990  0.15762  1.0000 -0.0279386578
C   C18       1.0  0.19150  0.31990  0.34238  1.0000 -0.0279386578
C   C19       1.0  0.19150  0.18010  0.84238  1.0000 -0.0279386578
C   C20       1.0  0.80850  0.68010  0.65762  1.0000 -0.0279386578
C   C21       1.0  0.58930  0.11730  0.86083  1.0000 -0.1273980783
C   C22       1.0  0.41070  0.61730  0.63917  1.0000 -0.1273980783
C   C23       1.0  0.41070  0.88270  0.13917  1.0000 -0.1273980783
C   C24       1.0  0.58930  0.38270  0.36083  1.0000 -0.1273980783
C   C25       1.0  0.46430  0.14990  0.51299  1.0000 0.1199661691
C   C26       1.0  0.53570  0.64990  0.98701  1.0000 0.1199661691
C   C27       1.0  0.53570  0.85010  0.48701  1.0000 0.1199661691
C   C28       1.0  0.46430  0.35010  0.01299  1.0000 0.1199661691
C   C29       1.0  0.64150  0.13710  0.69236  1.0000 0.5671420973
C   C30       1.0  0.35850  0.63710  0.80764  1.0000 0.5671420973
C   C31       1.0  0.35850  0.86290  0.30764  1.0000 0.5671420973
C   C32       1.0  0.64150  0.36290  0.19236  1.0000 0.5671420973
C   C33       1.0  0.52900  0.11210  0.53657  1.0000 -0.0032649562
C   C34       1.0  0.47100  0.61210  0.96343  1.0000 -0.0032649562
C   C35       1.0  0.47100  0.88790  0.46343  1.0000 -0.0032649562
C   C36       1.0  0.52900  0.38790  0.03657  1.0000 -0.0032649562
C   C37       1.0  0.61730  0.24140  0.65096  1.0000 -0.022943817
C   C38       1.0  0.38270  0.74140  0.84904  1.0000 -0.022943817
C   C39       1.0  0.38270  0.75860  0.34904  1.0000 -0.022943817
C   C40       1.0  0.61730  0.25860  0.15096  1.0000 -0.022943817
C   C41       1.0  0.73440  0.60070  0.96843  1.0000 0.1292603328
C   C42       1.0  0.26560  0.10070  0.53157  1.0000 0.1292603328
C   C43       1.0  0.26560  0.39930  0.03157  1.0000 0.1292603328
C   C44       1.0  0.73440  0.89930  0.46843  1.0000 0.1292603328
C   C45       1.0  0.66730  0.32030  0.93075  1.0000 0.0801599902
C   C46       1.0  0.33270  0.82030  0.56925  1.0000 0.0801599902
C   C47       1.0  0.33270  0.67970  0.06925  1.0000 0.0801599902
C   C48       1.0  0.66730  0.17970  0.43075  1.0000 0.0801599902
C   C49       1.0  0.80760  0.70110  0.08658  1.0000 0.0725564193
C   C50       1.0  0.19240  0.20110  0.41342  1.0000 0.0725564193
C   C51       1.0  0.19240  0.29890  0.91342  1.0000 0.0725564193
C   C52       1.0  0.80760  0.79890  0.58658  1.0000 0.0725564193
C   C53       1.0  0.75040  0.40890  0.04803  1.0000 0.1199661691
C   C54       1.0  0.24960  0.90890  0.45197  1.0000 0.1199661691
C   C55       1.0  0.24960  0.59110  0.95197  1.0000 0.1199661691
C   C56       1.0  0.75040  0.09110  0.54803  1.0000 0.1199661691
C   C57       1.0  0.03700  0.62040  0.97985  1.0000 0.1199661691
C   C58       1.0  0.96300  0.12040  0.52015  1.0000 0.1199661691
C   C59       1.0  0.96300  0.37960  0.02015  1.0000 0.1199661691
C   C60       1.0  0.03700  0.87960  0.47985  1.0000 0.1199661691
C   C61       1.0  0.96920  0.63190  0.96906  1.0000 -0.0032649562
C   C62       1.0  0.03080  0.13190  0.53094  1.0000 -0.0032649562
C   C63       1.0  0.03080  0.36810  0.03094  1.0000 -0.0032649562
C   C64       1.0  0.96920  0.86810  0.46906  1.0000 -0.0032649562
C   C65       1.0  0.69040  0.27600  0.89483  1.0000 -0.1651691216
C   C66       1.0  0.30960  0.77600  0.60517  1.0000 -0.1651691216
C   C67       1.0  0.30960  0.72400  0.10517  1.0000 -0.1651691216
C   C68       1.0  0.69040  0.22400  0.39483  1.0000 -0.1651691216
C   C69       1.0  0.81240  0.74740  0.82552  1.0000 0.5870260876
C   C70       1.0  0.18760  0.24740  0.67448  1.0000 0.5870260876
C   C71       1.0  0.18760  0.25260  0.17448  1.0000 0.5870260876
C   C72       1.0  0.81240  0.75260  0.32552  1.0000 0.5870260876
C   C73       1.0  0.77510  0.59320  0.04709  1.0000 -0.0073885372
C   C74       1.0  0.22490  0.09320  0.45291  1.0000 -0.0073885372
C   C75       1.0  0.22490  0.40680  0.95291  1.0000 -0.0073885372
C   C76       1.0  0.77510  0.90680  0.54709  1.0000 -0.0073885372
C   C77       1.0  0.89400  0.90970  0.12437  1.0000 -0.0929521746
C   C78       1.0  0.10600  0.40970  0.37563  1.0000 -0.0929521746
C   C79       1.0  0.10600  0.09030  0.87563  1.0000 -0.0929521746
C   C80       1.0  0.89400  0.59030  0.62437  1.0000 -0.0929521746
C   C81       1.0  0.78070  0.71050  0.12201  1.0000 -0.14059926
C   C82       1.0  0.21930  0.21050  0.37799  1.0000 -0.14059926
C   C83       1.0  0.21930  0.28950  0.87799  1.0000 -0.14059926
C   C84       1.0  0.78070  0.78950  0.62201  1.0000 -0.14059926
C   C85       1.0  0.58240  0.13820  0.61518  1.0000 -0.1651691216
C   C86       1.0  0.41760  0.63820  0.88482  1.0000 -0.1651691216
C   C87       1.0  0.41760  0.86180  0.38482  1.0000 -0.1651691216
C   C88       1.0  0.58240  0.36180  0.11518  1.0000 -0.1651691216
C   C89       1.0  0.89020  0.70080  0.89852  1.0000 -0.158369394
C   C90       1.0  0.10980  0.20080  0.60148  1.0000 -0.158369394
C   C91       1.0  0.10980  0.29920  0.10148  1.0000 -0.158369394
C   C92       1.0  0.89020  0.79920  0.39852  1.0000 -0.158369394
C   C93       1.0  0.60280  0.26730  0.92997  1.0000 -0.14059926
C   C94       1.0  0.39720  0.76730  0.57003  1.0000 -0.14059926
C   C95       1.0  0.39720  0.73270  0.07003  1.0000 -0.14059926
C   C96       1.0  0.60280  0.23270  0.42997  1.0000 -0.14059926
C   C97       1.0  0.93240  0.76860  0.93574  1.0000 0.0801599902
C   C98       1.0  0.06760  0.26860  0.56426  1.0000 0.0801599902
C   C99       1.0  0.06760  0.23140  0.06426  1.0000 0.0801599902
C   C100      1.0  0.93240  0.73140  0.43574  1.0000 0.0801599902
C   C101      1.0  0.71780  0.32650  0.00967  1.0000 -0.2134720403
C   C102      1.0  0.28220  0.82650  0.49033  1.0000 -0.2134720403
C   C103      1.0  0.28220  0.67350  0.99033  1.0000 -0.2134720403
C   C104      1.0  0.71780  0.17350  0.50967  1.0000 -0.2134720403
C   C105      1.0  0.85530  0.82510  0.86672  1.0000 -0.0279386578
C   C106      1.0  0.14470  0.32510  0.63328  1.0000 -0.0279386578
C   C107      1.0  0.14470  0.17490  0.13328  1.0000 -0.0279386578
C   C108      1.0  0.85530  0.67490  0.36672  1.0000 -0.0279386578
C   C109      1.0  0.77730  0.82830  0.19501  1.0000 0.5870260876
C   C110      1.0  0.22270  0.32830  0.30499  1.0000 0.5870260876
C   C111      1.0  0.22270  0.17170  0.80499  1.0000 0.5870260876
C   C112      1.0  0.77730  0.67170  0.69501  1.0000 0.5870260876
C   C113      1.0  0.63660  0.58490  0.79276  1.0000 0.2939224225
C   C114      1.0  0.36340  0.08490  0.70724  1.0000 0.2939224225
C   C115      1.0  0.36340  0.41510  0.20724  1.0000 0.2939224225
C   C116      1.0  0.63660  0.91510  0.29276  1.0000 0.2939224225
C   C117      1.0  0.56220  0.22620  0.57515  1.0000 0.0801599902
C   C118      1.0  0.43780  0.72620  0.92485  1.0000 0.0801599902
C   C119      1.0  0.43780  0.77380  0.42485  1.0000 0.0801599902
C   C120      1.0  0.56220  0.27380  0.07515  1.0000 0.0801599902
C   C121      1.0  0.43740  0.03670  0.47706  1.0000 -0.2177771587
C   C122      1.0  0.56260  0.53670  0.02294  1.0000 -0.2177771587
C   C123      1.0  0.56260  0.96330  0.52294  1.0000 -0.2177771587
C   C124      1.0  0.43740  0.46330  0.97706  1.0000 -0.2177771587
C   C125      1.0  0.57580  0.42000  0.57234  1.0000 -0.14059926
C   C126      1.0  0.42420  0.92000  0.92766  1.0000 -0.14059926
C   C127      1.0  0.42420  0.58000  0.42766  1.0000 -0.14059926
C   C128      1.0  0.57580  0.08000  0.07234  1.0000 -0.14059926
C   C129      1.0  0.86530  0.80050  0.08848  1.0000 -0.14059926
C   C130      1.0  0.13470  0.30050  0.41152  1.0000 -0.14059926
C   C131      1.0  0.13470  0.19950  0.91152  1.0000 -0.14059926
C   C132      1.0  0.86530  0.69950  0.58848  1.0000 -0.14059926
C   C133      1.0  0.63020  0.43260  0.64716  1.0000 -0.1154601108
C   C134      1.0  0.36980  0.93260  0.85284  1.0000 -0.1154601108
C   C135      1.0  0.36980  0.56740  0.35284  1.0000 -0.1154601108
C   C136      1.0  0.63020  0.06740  0.14716  1.0000 -0.1154601108
C   C137      1.0  0.06590  0.48750  0.01103  1.0000 -0.2177771587
C   C138      1.0  0.93410  0.98750  0.48897  1.0000 -0.2177771587
C   C139      1.0  0.93410  0.51250  0.98897  1.0000 -0.2177771587
C   C140      1.0  0.06590  0.01250  0.51103  1.0000 -0.2177771587
C   C141      1.0  0.60920  0.52150  0.60773  1.0000 -0.0929521746
C   C142      1.0  0.39080  0.02150  0.89227  1.0000 -0.0929521746
C   C143      1.0  0.39080  0.47850  0.39227  1.0000 -0.0929521746
C   C144      1.0  0.60920  0.97850  0.10773  1.0000 -0.0929521746
C   C145      1.0  0.90310  0.08830  0.91175  1.0000 -0.0929521746
C   C146      1.0  0.09690  0.58830  0.58825  1.0000 -0.0929521746
C   C147      1.0  0.09690  0.91170  0.08825  1.0000 -0.0929521746
C   C148      1.0  0.90310  0.41170  0.41175  1.0000 -0.0929521746
C   C149      1.0  0.93870  0.96250  0.94172  1.0000 -0.14059926
C   C150      1.0  0.06130  0.46250  0.55828  1.0000 -0.14059926
C   C151      1.0  0.06130  0.03750  0.05828  1.0000 -0.14059926
C   C152      1.0  0.93870  0.53750  0.44172  1.0000 -0.14059926
C   C153      1.0  0.42170  0.29570  0.52727  1.0000 -0.4599331536
C   C154      1.0  0.57830  0.79570  0.97273  1.0000 -0.4599331536
C   C155      1.0  0.57830  0.70430  0.47273  1.0000 -0.4599331536
C   C156      1.0  0.42170  0.20430  0.02727  1.0000 -0.4599331536
C   C157      1.0  0.76680  0.68380  0.00710  1.0000 -0.2134720403
C   C158      1.0  0.23320  0.18380  0.49290  1.0000 -0.2134720403
C   C159      1.0  0.23320  0.31620  0.99290  1.0000 -0.2177771587
C   C160      1.0  0.76680  0.81620  0.50710  1.0000 -0.2177771587
C   C161      1.0  0.56450  0.16940  0.89541  1.0000 -0.0929521746
C   C162      1.0  0.43550  0.66940  0.60459  1.0000 -0.0929521746
C   C163      1.0  0.43550  0.83060  0.10459  1.0000 -0.0929521746
C   C164      1.0  0.56450  0.33060  0.39541  1.0000 -0.0929521746
C   C165      1.0  0.86140  0.01850  0.87432  1.0000 -0.1273980783
C   C166      1.0  0.13860  0.51850  0.62568  1.0000 -0.1273980783
C   C167      1.0  0.13860  0.98150  0.12568  1.0000 -0.1273980783
C   C168      1.0  0.86140  0.48150  0.37432  1.0000 -0.1273980783
C   C169      1.0  0.72550  0.71620  0.92762  1.0000 -0.4599331536
C   C170      1.0  0.27450  0.21620  0.57238  1.0000 -0.4599331536
C   C171      1.0  0.27450  0.28380  0.07238  1.0000 -0.4599331536
C   C172      1.0  0.72550  0.78380  0.42762  1.0000 -0.4599331536
C   C173      1.0  0.76030  0.28640  0.08887  1.0000 -0.454653779
C   C174      1.0  0.23970  0.78640  0.41113  1.0000 -0.454653779
C   C175      1.0  0.23970  0.71360  0.91113  1.0000 -0.454653779
C   C176      1.0  0.76030  0.21360  0.58887  1.0000 -0.454653779
C   C177      1.0  0.54460  0.59560  0.82511  1.0000 -0.3457425553
C   C178      1.0  0.45540  0.09560  0.67489  1.0000 -0.3457425553
C   C179      1.0  0.45540  0.40440  0.17489  1.0000 -0.3457425553
C   C180      1.0  0.54460  0.90440  0.32511  1.0000 -0.3457425553
C   C181      1.0  0.53190  0.62850  0.74530  1.0000 -0.3271616119
C   C182      1.0  0.46810  0.12850  0.75470  1.0000 -0.3271616119
C   C183      1.0  0.46810  0.37150  0.25470  1.0000 -0.3271616119
C   C184      1.0  0.53190  0.87150  0.24530  1.0000 -0.3271616119
C   C185      1.0  0.08040  0.73860  0.95870  1.0000 -0.4599331536
C   C186      1.0  0.91960  0.23860  0.54130  1.0000 -0.4599331536
C   C187      1.0  0.91960  0.26140  0.04130  1.0000 -0.4599331536
C   C188      1.0  0.08040  0.76140  0.45870  1.0000 -0.4599331536
N   N1        1.0  0.57392  0.59530  0.78809  1.0000 0.0456565377
N   N2        1.0  0.42608  0.09530  0.71191  1.0000 0.0456565377
N   N3        1.0  0.42608  0.40470  0.21191  1.0000 0.0456565377
N   N4        1.0  0.57392  0.90470  0.28809  1.0000 0.0456565377
O   O1        1.0  0.65511  0.98430  0.79938  1.0000 -0.5503328759
O   O2        1.0  0.34489  0.48430  0.70062  1.0000 -0.5503328759
O   O3        1.0  0.34489  0.01570  0.20062  1.0000 -0.5503328759
O   O4        1.0  0.65511  0.51570  0.29938  1.0000 -0.5503328759
O   O5        1.0  0.79049  0.86530  0.79491  1.0000 -0.5873984862
O   O6        1.0  0.20951  0.36530  0.70509  1.0000 -0.5873984862
O   O7        1.0  0.20951  0.13470  0.20509  1.0000 -0.5873984862
O   O8        1.0  0.79049  0.63470  0.29491  1.0000 -0.5873984862
O   O9        1.0  0.66451  0.59400  0.76220  1.0000 -0.5159856546
O   O10       1.0  0.33549  0.09400  0.73780  1.0000 -0.5159856546
O   O11       1.0  0.33549  0.40600  0.23780  1.0000 -0.5159856546
O   O12       1.0  0.66451  0.90600  0.26220  1.0000 -0.5159856546
O   O13       1.0  0.72167  0.23700  0.81450  1.0000 -0.5953855533
O   O14       1.0  0.27833  0.73700  0.68550  1.0000 -0.5953855533
O   O15       1.0  0.27833  0.76300  0.18550  1.0000 -0.5953855533
O   O16       1.0  0.72167  0.26300  0.31450  1.0000 -0.5953855533
O   O17       1.0  0.79347  0.96410  0.22117  1.0000 -0.5668569523
O   O18       1.0  0.20653  0.46410  0.27883  1.0000 -0.5668569523
O   O19       1.0  0.20653  0.03590  0.77883  1.0000 -0.5668569523
O   O20       1.0  0.79347  0.53590  0.72117  1.0000 -0.5668569523
O   O21       1.0  0.80173  0.57330  0.82280  1.0000 -0.5503328759
O   O22       1.0  0.19827  0.07330  0.67720  1.0000 -0.5503328759
O   O23       1.0  0.19827  0.42670  0.17720  1.0000 -0.5503328759
O   O24       1.0  0.80173  0.92670  0.32280  1.0000 -0.5503328759
O   O25       1.0  0.61529  0.98310  0.69801  1.0000 -0.5272845495
O   O26       1.0  0.38471  0.48310  0.80199  1.0000 -0.5272845495
O   O27       1.0  0.38471  0.01690  0.30199  1.0000 -0.5272845495
O   O28       1.0  0.61529  0.51690  0.19801  1.0000 -0.5272845495
O   O29       1.0  0.69101  0.20050  0.71992  1.0000 -0.5805837828
O   O30       1.0  0.30899  0.70050  0.78008  1.0000 -0.5805837828
O   O31       1.0  0.30899  0.79950  0.28008  1.0000 -0.5805837828
O   O32       1.0  0.69101  0.29950  0.21992  1.0000 -0.5805837828
O   O33       1.0  0.83488  0.20510  0.77291  1.0000 -0.6425606329
O   O34       1.0  0.16512  0.70510  0.72709  1.0000 -0.6425606329
O   O35       1.0  0.16512  0.79490  0.22709  1.0000 -0.6425606329
O   O36       1.0  0.83488  0.29490  0.27291  1.0000 -0.6425606329
O   O37       1.0  0.73595  0.70350  0.19730  1.0000 -0.5503328759
O   O38       1.0  0.26405  0.20350  0.30270  1.0000 -0.5503328759
O   O39       1.0  0.26405  0.29650  0.80270  1.0000 -0.5503328759
O   O40       1.0  0.73595  0.79650  0.69730  1.0000 -0.5503328759
