# DDEC6 charges by PACMAN v1.1 (https://github.com/mtap-research/PACMAN-charge/)
data_2014[Cu][acs]3[FSR]3
_chemical_formula_sum              "Cu6 H18 C18 O36"
_cell_length_a       7.3285
_cell_length_b       7.3285
_cell_length_c       24.431
_cell_angle_alpha    90
_cell_angle_beta     90
_cell_angle_gamma    120

_symmetry_space_group_name_H-M    "P 1"
_symmetry_Int_Tables_number       1

loop_
  _symmetry_equiv_pos_as_xyz
  'x, y, z'

loop_
  _atom_site_type_symbol
  _atom_site_label
  _atom_site_symmetry_multiplicity
  _atom_site_fract_x
  _atom_site_fract_y
  _atom_site_fract_z
  _atom_site_occupancy
  _atom_site_charge
Cu  Cu1       1.0  0.36451  0.68225  0.08333  1.0000 0.9189065351
Cu  Cu2       1.0  0.31774  0.68225  0.41667  1.0000 0.9189065351
Cu  Cu3       1.0  0.31774  0.63549  0.75000  1.0000 0.9189065351
Cu  Cu4       1.0  0.63549  0.31774  0.58333  1.0000 0.9189065351
Cu  Cu5       1.0  0.68225  0.31774  0.91667  1.0000 0.9189065351
Cu  Cu6       1.0  0.68225  0.36451  0.25000  1.0000 0.9189065351
H   H1        1.0  0.60390  0.60390  0.16667  1.0000 0.1077015851
H   H2        1.0  0.39610  0.00000  0.50000  1.0000 0.1077015851
H   H3        1.0  1.00000  0.39610  0.83333  1.0000 0.1077015851
H   H4        1.0  0.39610  0.39610  0.66667  1.0000 0.1077015851
H   H5        1.0  0.60390  0.00000  0.00000  1.0000 0.1077015851
H   H6        1.0  1.00000  0.60390  0.33333  1.0000 0.1077015851
H   H7        1.0  0.03310  0.55710  0.99690  1.0000 0.1319509152
H   H8        1.0  0.44290  0.47600  0.33023  1.0000 0.1319509152
H   H9        1.0  0.52400  0.96690  0.66357  1.0000 0.1319509152
H   H10       1.0  0.96690  0.44290  0.49690  1.0000 0.1319509152
H   H11       1.0  0.55710  0.52400  0.83023  1.0000 0.1319509152
H   H12       1.0  0.47600  0.03310  0.16357  1.0000 0.1319509152
H   H13       1.0  0.55710  0.03310  0.33643  1.0000 0.1319509152
H   H14       1.0  0.47600  0.44290  0.00310  1.0000 0.1319509152
H   H15       1.0  0.96690  0.52400  0.66977  1.0000 0.1319509152
H   H16       1.0  0.44290  0.96690  0.83643  1.0000 0.1319509152
H   H17       1.0  0.52400  0.55710  0.50310  1.0000 0.1319509152
H   H18       1.0  0.03310  0.47600  0.16977  1.0000 0.1319509152
C   C1        1.0  0.47700  0.47700  0.16667  1.0000 0.4937775486
C   C2        1.0  0.52300  0.00000  0.50000  1.0000 0.4937775486
C   C3        1.0  1.00000  0.52300  0.83333  1.0000 0.4937775486
C   C4        1.0  0.52300  0.52300  0.66667  1.0000 0.4937775486
C   C5        1.0  0.47700  0.00000  0.00000  1.0000 0.4937775486
C   C6        1.0  0.00000  0.47700  0.33333  1.0000 0.4937775486
C   C7        1.0  0.03240  0.42990  0.99860  1.0000 0.4937775486
C   C8        1.0  0.57010  0.60250  0.33193  1.0000 0.4937775486
C   C9        1.0  0.39750  0.96760  0.66527  1.0000 0.4937775486
C   C10       1.0  0.96760  0.57010  0.49860  1.0000 0.4937775486
C   C11       1.0  0.42990  0.39750  0.83193  1.0000 0.4937775486
C   C12       1.0  0.60250  0.03240  0.16527  1.0000 0.4937775486
C   C13       1.0  0.42990  0.03240  0.33473  1.0000 0.4937775486
C   C14       1.0  0.60250  0.57010  0.00140  1.0000 0.4937775486
C   C15       1.0  0.96760  0.39750  0.66807  1.0000 0.4937775486
C   C16       1.0  0.57010  0.96760  0.83473  1.0000 0.4937775486
C   C17       1.0  0.39750  0.42990  0.50140  1.0000 0.4937775486
C   C18       1.0  0.03240  0.60250  0.16807  1.0000 0.4937775486
O   O1        1.0  0.33750  0.45060  0.13220  1.0000 -0.4663398229
O   O2        1.0  0.54940  0.88690  0.46553  1.0000 -0.4663398229
O   O3        1.0  0.11310  0.66250  0.79887  1.0000 -0.4663398229
O   O4        1.0  0.66250  0.54940  0.63220  1.0000 -0.4663398229
O   O5        1.0  0.45060  0.11310  0.96553  1.0000 -0.4663398229
O   O6        1.0  0.88690  0.33750  0.29887  1.0000 -0.4663398229
O   O7        1.0  0.45060  0.33750  0.20113  1.0000 -0.4663398229
O   O8        1.0  0.88690  0.54940  0.86780  1.0000 -0.4663398229
O   O9        1.0  0.66250  0.11310  0.53447  1.0000 -0.4663398229
O   O10       1.0  0.54940  0.66250  0.70113  1.0000 -0.4663398229
O   O11       1.0  0.11310  0.45060  0.36780  1.0000 -0.4663398229
O   O12       1.0  0.33750  0.88690  0.03447  1.0000 -0.4663398229
O   O13       1.0  0.92200  0.29820  0.96490  1.0000 -0.4663398229
O   O14       1.0  0.70180  0.62380  0.29823  1.0000 -0.4663398229
O   O15       1.0  0.37620  0.07800  0.63157  1.0000 -0.4663398229
O   O16       1.0  0.07800  0.70180  0.46490  1.0000 -0.4663398229
O   O17       1.0  0.29820  0.37620  0.79823  1.0000 -0.4663398229
O   O18       1.0  0.62380  0.92200  0.13157  1.0000 -0.4663398229
O   O19       1.0  0.29820  0.92200  0.36843  1.0000 -0.4663398229
O   O20       1.0  0.62380  0.70180  0.03510  1.0000 -0.4644509103
O   O21       1.0  0.07800  0.37620  0.70177  1.0000 -0.4663398229
O   O22       1.0  0.70180  0.07800  0.86843  1.0000 -0.4663398229
O   O23       1.0  0.37620  0.29820  0.53510  1.0000 -0.4663398229
O   O24       1.0  0.92200  0.62380  0.20177  1.0000 -0.4663398229
O   O25       1.0  0.14110  0.41730  0.03380  1.0000 -0.4533990618
O   O26       1.0  0.58270  0.72380  0.36713  1.0000 -0.4533990618
O   O27       1.0  0.27620  0.85890  0.70047  1.0000 -0.4533990618
O   O28       1.0  0.85890  0.58270  0.53380  1.0000 -0.4533990618
O   O29       1.0  0.41730  0.27620  0.86713  1.0000 -0.4533990618
O   O30       1.0  0.72380  0.14110  0.20047  1.0000 -0.4533990618
O   O31       1.0  0.41730  0.14110  0.29953  1.0000 -0.4533990618
O   O32       1.0  0.72380  0.58270  0.96620  1.0000 -0.4533990618
O   O33       1.0  0.85890  0.27620  0.63287  1.0000 -0.4533990618
O   O34       1.0  0.58270  0.85890  0.79953  1.0000 -0.4533990618
O   O35       1.0  0.27620  0.41730  0.46620  1.0000 -0.4533990618
O   O36       1.0  0.14110  0.72380  0.13287  1.0000 -0.4533990618
