# DDEC6 charges by PACMAN v1.1 (https://github.com/mtap-research/PACMAN-charge/)
data_2014[UEu][nan]3[FSR]1
_chemical_formula_sum              "Eu2 U3 H26 C30 O40"
_cell_length_a       10.6427
_cell_length_b       11.5008
_cell_length_c       13.4731
_cell_angle_alpha    69.142
_cell_angle_beta     78.865
_cell_angle_gamma    63.208

_symmetry_space_group_name_H-M    "P 1"
_symmetry_Int_Tables_number       1

loop_
  _symmetry_equiv_pos_as_xyz
  'x, y, z'

loop_
  _atom_site_type_symbol
  _atom_site_label
  _atom_site_symmetry_multiplicity
  _atom_site_fract_x
  _atom_site_fract_y
  _atom_site_fract_z
  _atom_site_occupancy
  _atom_site_charge
Eu  Eu1       1.0  0.60329  0.22800  0.75140  1.0000 2.193642586
Eu  Eu2       1.0  0.39671  0.77200  0.24860  1.0000 2.193642586
U   U1        1.0  0.62579  0.71128  0.83650  1.0000 2.395116895
U   U2        1.0  0.37421  0.28872  0.16350  1.0000 2.395116895
U   U3        1.0  0.00000  0.50000  0.50000  1.0000 2.3751469548
H   H1        1.0  0.35780  0.45530  0.62230  1.0000 0.41939792
H   H2        1.0  0.64220  0.54470  0.37770  1.0000 0.41939792
H   H3        1.0  0.29610  0.35740  0.70500  1.0000 0.4084529276
H   H4        1.0  0.70390  0.64260  0.29500  1.0000 0.4084529276
H   H5        1.0  0.53300  0.48670  0.57100  1.0000 0.3841366466
H   H6        1.0  0.46700  0.51330  0.42900  1.0000 0.3841366466
H   H7        1.0  0.69350  0.43230  0.58590  1.0000 0.41939792
H   H8        1.0  0.30650  0.56770  0.41410  1.0000 0.41939792
H   H9        1.0  0.66860  0.17790  0.54630  1.0000 0.4084529276
H   H10       1.0  0.33140  0.82210  0.45370  1.0000 0.4084529276
H   H11       1.0  0.80780  0.08920  0.60770  1.0000 0.4282416101
H   H12       1.0  0.19220  0.91080  0.39230  1.0000 0.4282416101
H   H13       1.0  0.75230  0.93160  0.85650  1.0000 0.4084529276
H   H14       1.0  0.24770  0.06840  0.14350  1.0000 0.4084529276
H   H15       1.0  0.85770  0.99310  0.85280  1.0000 0.41939792
H   H16       1.0  0.14230  0.00690  0.14720  1.0000 0.41939792
H   H17       1.0  0.43870  0.48250  0.81090  1.0000 0.4364691075
H   H18       1.0  0.56130  0.51750  0.18910  1.0000 0.4364691075
H   H19       1.0  0.57910  0.41100  0.87010  1.0000 0.4364691075
H   H20       1.0  0.42090  0.58900  0.12990  1.0000 0.4364691075
H   H21       1.0  0.09880  0.36010  0.95580  1.0000 0.1418667059
H   H22       1.0  0.90120  0.63990  0.04420  1.0000 0.1418667059
H   H23       1.0  0.16310  0.10820  0.73500  1.0000 0.1418667059
H   H24       1.0  0.83690  0.89180  0.26500  1.0000 0.1418667059
H   H25       1.0  0.71120  0.00130  0.41660  1.0000 0.1307459171
H   H26       1.0  0.28880  0.99870  0.58340  1.0000 0.1307459171
C   C1        1.0  0.00170  0.34230  0.85120  1.0000 -0.0323863607
C   C2        1.0  0.99830  0.65770  0.14880  1.0000 -0.0323863607
C   C3        1.0  0.11370  0.31320  0.90790  1.0000 -0.0983320181
C   C4        1.0  0.88630  0.68680  0.09210  1.0000 -0.0983320181
C   C5        1.0  0.24770  0.21520  0.89450  1.0000 -0.0927802105
C   C6        1.0  0.75230  0.78480  0.10550  1.0000 -0.0927802105
C   C7        1.0  0.26750  0.14310  0.82420  1.0000 -0.0323863607
C   C8        1.0  0.73250  0.85690  0.17580  1.0000 -0.0323863607
C   C9        1.0  0.15140  0.16370  0.77520  1.0000 -0.1546911304
C   C10       1.0  0.84860  0.83630  0.22480  1.0000 -0.1546911304
C   C11       1.0  0.01940  0.26530  0.78570  1.0000 -0.0177623483
C   C12       1.0  0.98060  0.73470  0.21430  1.0000 -0.0177623483
C   C13       1.0  0.62600  0.00120  0.44960  1.0000 -0.1365845357
C   C14       1.0  0.37400  0.99880  0.55040  1.0000 -0.1365845357
C   C15       1.0  0.61530  0.87630  0.50560  1.0000 -0.0177623483
C   C16       1.0  0.38470  0.12370  0.49440  1.0000 -0.0177623483
C   C17       1.0  0.49160  0.87570  0.55620  1.0000 -0.0530944974
C   C18       1.0  0.50840  0.12430  0.44380  1.0000 -0.0530944974
C   C19       1.0  0.86680  0.46290  0.85660  1.0000 0.5661106403
C   C20       1.0  0.13320  0.53710  0.14340  1.0000 0.5661106403
C   C21       1.0  0.36240  0.19370  0.95810  1.0000 0.6560707386
C   C22       1.0  0.63760  0.80630  0.04190  1.0000 0.6560707386
C   C23       1.0  0.41010  0.03770  0.79770  1.0000 0.6300838883
C   C24       1.0  0.58990  0.96230  0.20230  1.0000 0.6300838883
C   C25       1.0  0.90060  0.29040  0.72310  1.0000 0.6703799065
C   C26       1.0  0.09940  0.70960  0.27690  1.0000 0.6703799065
C   C27       1.0  0.47080  0.74450  0.62170  1.0000 0.6300838883
C   C28       1.0  0.52920  0.25550  0.37830  1.0000 0.6300838883
C   C29       1.0  0.74620  0.74620  0.50770  1.0000 0.5661106403
C   C30       1.0  0.25380  0.25380  0.49230  1.0000 0.5661106403
O   O1        1.0  0.53730  0.63080  0.94240  1.0000 -0.6617398565
O   O2        1.0  0.46270  0.36920  0.05760  1.0000 -0.6617398565
O   O3        1.0  0.71690  0.78990  0.73130  1.0000 -0.6662882273
O   O4        1.0  0.28310  0.21010  0.26870  1.0000 -0.6662882273
O   O5        1.0  0.06980  0.49940  0.61000  1.0000 -0.6772624408
O   O6        1.0  0.93020  0.50060  0.39000  1.0000 -0.6772624408
O   O7        1.0  0.85100  0.53630  0.91320  1.0000 -0.5719020669
O   O8        1.0  0.14900  0.46370  0.08680  1.0000 -0.5719020669
O   O9        1.0  0.76510  0.49370  0.80230  1.0000 -0.5719020669
O   O10       1.0  0.23490  0.50630  0.19770  1.0000 -0.5719020669
O   O11       1.0  0.82110  0.23140  0.76990  1.0000 -0.6772624408
O   O12       1.0  0.17890  0.76860  0.23010  1.0000 -0.6772624408
O   O13       1.0  0.89050  0.36220  0.62590  1.0000 -0.598853976
O   O14       1.0  0.10950  0.63780  0.37410  1.0000 -0.598853976
O   O15       1.0  0.41860  0.91730  0.82050  1.0000 -0.6093853418
O   O16       1.0  0.58140  0.08270  0.17950  1.0000 -0.6093853418
O   O17       1.0  0.50260  0.07640  0.75360  1.0000 -0.6391724253
O   O18       1.0  0.49740  0.92360  0.24640  1.0000 -0.6391724253
O   O19       1.0  0.48270  0.17630  0.91850  1.0000 -0.6391724253
O   O20       1.0  0.51730  0.82370  0.08150  1.0000 -0.6391724253
O   O21       1.0  0.32460  0.19800  0.05390  1.0000 -0.6391724253
O   O22       1.0  0.67540  0.80200  0.94610  1.0000 -0.6391724253
O   O23       1.0  0.50320  0.69340  0.71850  1.0000 -0.6226901118
O   O24       1.0  0.49680  0.30660  0.28150  1.0000 -0.6226901118
O   O25       1.0  0.41490  0.70090  0.57840  1.0000 -0.5386500661
O   O26       1.0  0.58510  0.29910  0.42160  1.0000 -0.5386500661
O   O27       1.0  0.73620  0.63400  0.53540  1.0000 -0.5719020669
O   O28       1.0  0.26380  0.36600  0.46460  1.0000 -0.5719020669
O   O29       1.0  0.86360  0.74950  0.47820  1.0000 -0.5597772901
O   O30       1.0  0.13640  0.25050  0.52180  1.0000 -0.5597772901
O   O31       1.0  0.36970  0.37890  0.67730  1.0000 -0.8385541741
O   O32       1.0  0.63030  0.62110  0.32270  1.0000 -0.8385541741
O   O33       1.0  0.61180  0.42330  0.60560  1.0000 -0.8385541741
O   O34       1.0  0.38820  0.57670  0.39440  1.0000 -0.8385541741
O   O35       1.0  0.71660  0.14890  0.60490  1.0000 -0.8385541741
O   O36       1.0  0.28340  0.85110  0.39510  1.0000 -0.8385541741
O   O37       1.0  0.77310  0.00430  0.83830  1.0000 -0.8345143501
O   O38       1.0  0.22690  0.99570  0.16170  1.0000 -0.8345143501
O   O39       1.0  0.52390  0.41240  0.82640  1.0000 -0.8474310939
O   O40       1.0  0.47610  0.58760  0.17360  1.0000 -0.8474310939
