# DDEC6 charges by PACMAN v1.1 (https://github.com/mtap-research/PACMAN-charge/)
data_2014[Mn][rtl]3[FSR]3
_chemical_formula_sum              "Mn4 H64 C96 N8 O16"
_cell_length_a       9.8457
_cell_length_b       19.4937
_cell_length_c       16.7455
_cell_angle_alpha    90
_cell_angle_beta     94.348
_cell_angle_gamma    90

_symmetry_space_group_name_H-M    "P 1"
_symmetry_Int_Tables_number       1

loop_
  _symmetry_equiv_pos_as_xyz
  'x, y, z'

loop_
  _atom_site_type_symbol
  _atom_site_label
  _atom_site_symmetry_multiplicity
  _atom_site_fract_x
  _atom_site_fract_y
  _atom_site_fract_z
  _atom_site_occupancy
  _atom_site_charge
Mn  Mn1       1.0  0.50000  0.00000  0.50000  1.0000 0.9160689916
Mn  Mn2       1.0  0.50000  0.50000  0.00000  1.0000 0.9160689916
Mn  Mn3       1.0  0.00000  0.50000  0.00000  1.0000 0.9331822004
Mn  Mn4       1.0  0.00000  0.00000  0.50000  1.0000 0.9331822004
H   H1        1.0  0.79440  0.70680  0.92210  1.0000 0.1295401162
H   H2        1.0  0.20560  0.20680  0.57790  1.0000 0.1295401162
H   H3        1.0  0.20560  0.29320  0.07790  1.0000 0.1295401162
H   H4        1.0  0.79440  0.79320  0.42210  1.0000 0.1295401162
H   H5        1.0  0.73910  0.79770  0.83890  1.0000 0.1195064678
H   H6        1.0  0.26090  0.29770  0.66110  1.0000 0.1195064678
H   H7        1.0  0.26090  0.20230  0.16110  1.0000 0.1195064678
H   H8        1.0  0.73910  0.70230  0.33890  1.0000 0.1195064678
H   H9        1.0  0.55810  0.66850  0.67860  1.0000 0.1195064678
H   H10       1.0  0.44190  0.16850  0.82140  1.0000 0.1195064678
H   H11       1.0  0.44190  0.33150  0.32140  1.0000 0.1195064678
H   H12       1.0  0.55810  0.83150  0.17860  1.0000 0.1195064678
H   H13       1.0  0.59780  0.57970  0.76690  1.0000 0.1295401162
H   H14       1.0  0.40220  0.07970  0.73310  1.0000 0.1295401162
H   H15       1.0  0.40220  0.42030  0.23310  1.0000 0.1295401162
H   H16       1.0  0.59780  0.92030  0.26690  1.0000 0.1295401162
H   H17       1.0  0.56670  0.96510  0.68410  1.0000 0.1082231265
H   H18       1.0  0.43330  0.46510  0.81590  1.0000 0.1082231265
H   H19       1.0  0.43330  0.03490  0.31590  1.0000 0.1082231265
H   H20       1.0  0.56670  0.53490  0.18410  1.0000 0.1082231265
H   H21       1.0  0.61260  0.87810  0.77310  1.0000 0.1295401162
H   H22       1.0  0.38740  0.37810  0.72690  1.0000 0.1295401162
H   H23       1.0  0.38740  0.12190  0.22690  1.0000 0.1295401162
H   H24       1.0  0.61260  0.62190  0.27310  1.0000 0.1295401162
H   H25       1.0  0.60460  0.74790  0.58890  1.0000 0.1351554897
H   H26       1.0  0.39540  0.24790  0.91110  1.0000 0.1351554897
H   H27       1.0  0.39540  0.25210  0.41110  1.0000 0.1351554897
H   H28       1.0  0.60460  0.75210  0.08890  1.0000 0.1351554897
H   H29       1.0  0.55300  0.83860  0.50550  1.0000 0.1041370053
H   H30       1.0  0.44700  0.33860  0.99450  1.0000 0.1041370053
H   H31       1.0  0.44700  0.16140  0.49450  1.0000 0.1041370053
H   H32       1.0  0.55300  0.66140  0.00550  1.0000 0.1041370053
H   H33       1.0  0.39650  0.82420  0.35830  1.0000 0.1082231265
H   H34       1.0  0.60350  0.32420  0.14170  1.0000 0.1082231265
H   H35       1.0  0.60350  0.17580  0.64170  1.0000 0.1082231265
H   H36       1.0  0.39650  0.67580  0.85830  1.0000 0.1082231265
H   H37       1.0  0.34510  0.73250  0.27470  1.0000 0.1041370053
H   H38       1.0  0.65490  0.23250  0.22530  1.0000 0.1041370053
H   H39       1.0  0.65490  0.26750  0.72530  1.0000 0.1041370053
H   H40       1.0  0.34510  0.76750  0.77470  1.0000 0.1041370053
H   H41       1.0  0.95780  0.79150  0.25180  1.0000 0.1082231265
H   H42       1.0  0.04220  0.29150  0.24820  1.0000 0.1082231265
H   H43       1.0  0.04220  0.20850  0.74820  1.0000 0.1082231265
H   H44       1.0  0.95780  0.70850  0.75180  1.0000 0.1082231265
H   H45       1.0  0.00780  0.88280  0.33660  1.0000 0.1195064678
H   H46       1.0  0.99220  0.38280  0.16340  1.0000 0.1195064678
H   H47       1.0  0.99220  0.11720  0.66340  1.0000 0.1195064678
H   H48       1.0  0.00780  0.61720  0.83660  1.0000 0.1195064678
H   H49       1.0  0.25150  0.58550  0.08190  1.0000 0.1082231265
H   H50       1.0  0.74850  0.08550  0.41810  1.0000 0.1082231265
H   H51       1.0  0.74850  0.41450  0.91810  1.0000 0.1082231265
H   H52       1.0  0.25150  0.91450  0.58190  1.0000 0.1082231265
H   H53       1.0  0.30430  0.67470  0.16630  1.0000 0.1195064678
H   H54       1.0  0.69570  0.17470  0.33370  1.0000 0.1195064678
H   H55       1.0  0.69570  0.32530  0.83370  1.0000 0.1195064678
H   H56       1.0  0.30430  0.82530  0.66630  1.0000 0.1195064678
H   H57       1.0  0.91060  0.69350  0.19980  1.0000 0.1195064678
H   H58       1.0  0.08940  0.19350  0.30020  1.0000 0.1195064678
H   H59       1.0  0.08940  0.30650  0.80020  1.0000 0.1195064678
H   H60       1.0  0.91060  0.80650  0.69980  1.0000 0.1195064678
H   H61       1.0  0.86730  0.60600  0.11090  1.0000 0.1041370053
H   H62       1.0  0.13270  0.10600  0.38910  1.0000 0.1041370053
H   H63       1.0  0.13270  0.39400  0.88910  1.0000 0.1041370053
H   H64       1.0  0.86730  0.89400  0.61090  1.0000 0.1041370053
C   C1        1.0  0.73790  0.57330  0.90870  1.0000 0.5679400172
C   C2        1.0  0.26210  0.07330  0.59130  1.0000 0.5679400172
C   C3        1.0  0.26210  0.42670  0.09130  1.0000 0.5679400172
C   C4        1.0  0.73790  0.92670  0.40870  1.0000 0.5679400172
C   C5        1.0  0.70320  0.63330  0.85380  1.0000 -0.0296471771
C   C6        1.0  0.29680  0.13330  0.64620  1.0000 -0.0296471771
C   C7        1.0  0.29680  0.36670  0.14620  1.0000 -0.0296471771
C   C8        1.0  0.70320  0.86670  0.35380  1.0000 -0.0296471771
C   C9        1.0  0.74440  0.69900  0.87360  1.0000 -0.1237236876
C   C10       1.0  0.25560  0.19900  0.62640  1.0000 -0.1237236876
C   C11       1.0  0.25560  0.30100  0.12640  1.0000 -0.1237236876
C   C12       1.0  0.74440  0.80100  0.37360  1.0000 -0.1237236876
C   C13       1.0  0.71310  0.75360  0.82300  1.0000 -0.1623486672
C   C14       1.0  0.28690  0.25360  0.67700  1.0000 -0.1623486672
C   C15       1.0  0.28690  0.24640  0.17700  1.0000 -0.1623486672
C   C16       1.0  0.71310  0.74640  0.32300  1.0000 -0.1623486672
C   C17       1.0  0.64370  0.74380  0.74890  1.0000 0.0501971673
C   C18       1.0  0.35630  0.24380  0.75110  1.0000 0.0501971673
C   C19       1.0  0.35630  0.25620  0.25110  1.0000 0.0501971673
C   C20       1.0  0.64370  0.75620  0.24890  1.0000 0.0501971673
C   C21       1.0  0.60340  0.67690  0.72840  1.0000 -0.1514722091
C   C22       1.0  0.39660  0.17690  0.77160  1.0000 -0.1514722091
C   C23       1.0  0.39660  0.32310  0.27160  1.0000 -0.1514722091
C   C24       1.0  0.60340  0.82310  0.22840  1.0000 -0.1514722091
C   C25       1.0  0.62980  0.62340  0.78070  1.0000 -0.107330326
C   C26       1.0  0.37020  0.12340  0.71930  1.0000 -0.107330326
C   C27       1.0  0.37020  0.37660  0.21930  1.0000 -0.107330326
C   C28       1.0  0.62980  0.87660  0.28070  1.0000 -0.107330326
C   C29       1.0  0.57330  0.92060  0.66460  1.0000 0.090905359
C   C30       1.0  0.42670  0.42060  0.83540  1.0000 0.090905359
C   C31       1.0  0.42670  0.07940  0.33540  1.0000 0.090905359
C   C32       1.0  0.57330  0.57940  0.16460  1.0000 0.090905359
C   C33       1.0  0.60160  0.86840  0.71870  1.0000 -0.2102968028
C   C34       1.0  0.39840  0.36840  0.78130  1.0000 -0.2102968028
C   C35       1.0  0.39840  0.13160  0.28130  1.0000 -0.2102968028
C   C36       1.0  0.60160  0.63160  0.21870  1.0000 -0.2102968028
C   C37       1.0  0.61380  0.80160  0.69240  1.0000 0.1082231265
C   C38       1.0  0.38620  0.30160  0.80760  1.0000 0.1082231265
C   C39       1.0  0.38620  0.19840  0.30760  1.0000 0.1082231265
C   C40       1.0  0.61380  0.69840  0.19240  1.0000 0.1082231265
C   C41       1.0  0.59620  0.79160  0.61020  1.0000 -0.2179185041
C   C42       1.0  0.40380  0.29160  0.88980  1.0000 -0.2179185041
C   C43       1.0  0.40380  0.20840  0.38980  1.0000 -0.2179185041
C   C44       1.0  0.59620  0.70840  0.11020  1.0000 -0.2179185041
C   C45       1.0  0.56620  0.84680  0.56020  1.0000 0.0821726844
C   C46       1.0  0.43380  0.34680  0.93980  1.0000 0.0821726844
C   C47       1.0  0.43380  0.15320  0.43980  1.0000 0.0821726844
C   C48       1.0  0.56620  0.65320  0.06020  1.0000 0.0821726844
C   C49       1.0  0.24380  0.92540  0.40790  1.0000 0.5679400172
C   C50       1.0  0.75620  0.42540  0.09210  1.0000 0.5679400172
C   C51       1.0  0.75620  0.07460  0.59210  1.0000 0.5679400172
C   C52       1.0  0.24380  0.57460  0.90790  1.0000 0.5679400172
C   C53       1.0  0.20900  0.86440  0.35410  1.0000 -0.0219895072
C   C54       1.0  0.79100  0.36440  0.14590  1.0000 -0.0219895072
C   C55       1.0  0.79100  0.13560  0.64590  1.0000 -0.0219895072
C   C56       1.0  0.20900  0.63560  0.85410  1.0000 -0.0219895072
C   C57       1.0  0.30770  0.81830  0.33630  1.0000 -0.107330326
C   C58       1.0  0.69230  0.31830  0.16370  1.0000 -0.107330326
C   C59       1.0  0.69230  0.18170  0.66370  1.0000 -0.107330326
C   C60       1.0  0.30770  0.68170  0.83630  1.0000 -0.107330326
C   C61       1.0  0.27680  0.76330  0.28580  1.0000 -0.1514722091
C   C62       1.0  0.72320  0.26330  0.21420  1.0000 -0.1514722091
C   C63       1.0  0.72320  0.23670  0.71420  1.0000 -0.1514722091
C   C64       1.0  0.27680  0.73670  0.78580  1.0000 -0.1514722091
C   C65       1.0  0.14650  0.75340  0.25170  1.0000 0.0661558937
C   C66       1.0  0.85350  0.25340  0.24830  1.0000 0.0661558937
C   C67       1.0  0.85350  0.24660  0.74830  1.0000 0.0661558937
C   C68       1.0  0.14650  0.74660  0.75170  1.0000 0.0661558937
C   C69       1.0  0.04710  0.79830  0.27240  1.0000 -0.1436934862
C   C70       1.0  0.95290  0.29830  0.22760  1.0000 -0.1436934862
C   C71       1.0  0.95290  0.20170  0.72760  1.0000 -0.1436934862
C   C72       1.0  0.04710  0.70170  0.77240  1.0000 -0.1436934862
C   C73       1.0  0.07690  0.85340  0.32330  1.0000 -0.0968183223
C   C74       1.0  0.92310  0.35340  0.17670  1.0000 -0.0968183223
C   C75       1.0  0.92310  0.14660  0.67670  1.0000 -0.0968183223
C   C76       1.0  0.07690  0.64660  0.82330  1.0000 -0.0968183223
C   C77       1.0  0.18130  0.60780  0.10550  1.0000 0.090905359
C   C78       1.0  0.81870  0.10780  0.39450  1.0000 0.090905359
C   C79       1.0  0.81870  0.39220  0.89450  1.0000 0.090905359
C   C80       1.0  0.18130  0.89220  0.60550  1.0000 0.090905359
C   C81       1.0  0.21390  0.66120  0.15710  1.0000 -0.2102968028
C   C82       1.0  0.78610  0.16120  0.34290  1.0000 -0.2102968028
C   C83       1.0  0.78610  0.33880  0.84290  1.0000 -0.2102968028
C   C84       1.0  0.21390  0.83880  0.65710  1.0000 -0.2102968028
C   C85       1.0  0.11410  0.69510  0.19540  1.0000 0.1195064678
C   C86       1.0  0.88590  0.19510  0.30460  1.0000 0.1195064678
C   C87       1.0  0.88590  0.30490  0.80460  1.0000 0.1195064678
C   C88       1.0  0.11410  0.80490  0.69540  1.0000 0.1195064678
C   C89       1.0  0.98260  0.67260  0.17640  1.0000 -0.2102968028
C   C90       1.0  0.01740  0.17260  0.32360  1.0000 -0.2102968028
C   C91       1.0  0.01740  0.32740  0.82360  1.0000 -0.2102968028
C   C92       1.0  0.98260  0.82740  0.67640  1.0000 -0.2102968028
C   C93       1.0  0.95720  0.61940  0.12290  1.0000 0.090905359
C   C94       1.0  0.04280  0.11940  0.37710  1.0000 0.090905359
C   C95       1.0  0.04280  0.38060  0.87710  1.0000 0.090905359
C   C96       1.0  0.95720  0.88060  0.62290  1.0000 0.090905359
N   N1        1.0  0.55500  0.91095  0.58580  1.0000 -0.2278862205
N   N2        1.0  0.44500  0.41095  0.91420  1.0000 -0.2278862205
N   N3        1.0  0.44500  0.08905  0.41420  1.0000 -0.2278862205
N   N4        1.0  0.55500  0.58905  0.08580  1.0000 -0.2278862205
N   N5        1.0  0.05460  0.58660  0.08780  1.0000 -0.2179185041
N   N6        1.0  0.94540  0.08660  0.41220  1.0000 -0.2179185041
N   N7        1.0  0.94540  0.41340  0.91220  1.0000 -0.2179185041
N   N8        1.0  0.05460  0.91340  0.58780  1.0000 -0.2179185041
O   O1        1.0  0.85590  0.57255  0.94180  1.0000 -0.5497857575
O   O2        1.0  0.14410  0.07255  0.55820  1.0000 -0.5497857575
O   O3        1.0  0.14410  0.42745  0.05820  1.0000 -0.5497857575
O   O4        1.0  0.85590  0.92745  0.44180  1.0000 -0.5497857575
O   O5        1.0  0.64770  0.52906  0.91547  1.0000 -0.5619544778
O   O6        1.0  0.35230  0.02906  0.58453  1.0000 -0.5619544778
O   O7        1.0  0.35230  0.47094  0.08453  1.0000 -0.5619544778
O   O8        1.0  0.64770  0.97094  0.41547  1.0000 -0.5619544778
O   O9        1.0  0.36460  0.92963  0.43503  1.0000 -0.5619544778
O   O10       1.0  0.63540  0.42963  0.06497  1.0000 -0.5619544778
O   O11       1.0  0.63540  0.07037  0.56497  1.0000 -0.5619544778
O   O12       1.0  0.36460  0.57037  0.93503  1.0000 -0.5619544778
O   O13       1.0  0.15020  0.96659  0.41974  1.0000 -0.5619544778
O   O14       1.0  0.84980  0.46659  0.08026  1.0000 -0.5619544778
O   O15       1.0  0.84980  0.03341  0.58026  1.0000 -0.5619544778
O   O16       1.0  0.15020  0.53341  0.91974  1.0000 -0.5619544778
