# DDEC6 charges by PACMAN v1.1 (https://github.com/mtap-research/PACMAN-charge/)
data_2014[Cu][pcu]3[FSR]5
_chemical_formula_sum              "Cu16 H256 C336 N32 O80"
_cell_length_a       15.289
_cell_length_b       22.421
_cell_length_c       30.275
_cell_angle_alpha    90
_cell_angle_beta     90
_cell_angle_gamma    90

_symmetry_space_group_name_H-M    "P 1"
_symmetry_Int_Tables_number       1

loop_
  _symmetry_equiv_pos_as_xyz
  'x, y, z'

loop_
  _atom_site_type_symbol
  _atom_site_label
  _atom_site_symmetry_multiplicity
  _atom_site_fract_x
  _atom_site_fract_y
  _atom_site_fract_z
  _atom_site_occupancy
  _atom_site_charge
Cu  Cu1       1.0  0.70038  0.83243  0.11968  1.0000 0.7694397295
Cu  Cu2       1.0  0.29962  0.33243  0.38032  1.0000 0.7694397295
Cu  Cu3       1.0  0.79962  0.16757  0.61968  1.0000 0.7694397295
Cu  Cu4       1.0  0.20038  0.66757  0.88032  1.0000 0.7694397295
Cu  Cu5       1.0  0.29962  0.16757  0.88032  1.0000 0.7694397295
Cu  Cu6       1.0  0.70038  0.66757  0.61968  1.0000 0.7694397295
Cu  Cu7       1.0  0.20038  0.83243  0.38032  1.0000 0.7694397295
Cu  Cu8       1.0  0.79962  0.33243  0.11968  1.0000 0.7694397295
Cu  Cu9       1.0  0.69607  0.71461  0.13010  1.0000 0.8441537718
Cu  Cu10      1.0  0.30393  0.21461  0.36990  1.0000 0.8441537718
Cu  Cu11      1.0  0.80393  0.28539  0.63010  1.0000 0.8441537718
Cu  Cu12      1.0  0.19607  0.78539  0.86990  1.0000 0.8441537718
Cu  Cu13      1.0  0.30393  0.28539  0.86990  1.0000 0.8441537718
Cu  Cu14      1.0  0.69607  0.78539  0.63010  1.0000 0.8441537718
Cu  Cu15      1.0  0.19607  0.71461  0.36990  1.0000 0.8441537718
Cu  Cu16      1.0  0.80393  0.21461  0.13010  1.0000 0.8441537718
H   H1        1.0  0.83080  0.01600  0.19580  1.0000 0.2695550347
H   H2        1.0  0.16920  0.51600  0.30420  1.0000 0.2695550347
H   H3        1.0  0.66920  0.98400  0.69580  1.0000 0.2695550347
H   H4        1.0  0.33080  0.48400  0.80420  1.0000 0.2695550347
H   H5        1.0  0.16920  0.98400  0.80420  1.0000 0.2695550347
H   H6        1.0  0.83080  0.48400  0.69580  1.0000 0.2695550347
H   H7        1.0  0.33080  0.01600  0.30420  1.0000 0.2695550347
H   H8        1.0  0.66920  0.51600  0.19580  1.0000 0.2695550347
H   H9        1.0  0.00870  0.02530  0.14870  1.0000 0.2586618388
H   H10       1.0  0.99130  0.52530  0.35130  1.0000 0.2586618388
H   H11       1.0  0.49130  0.97470  0.64870  1.0000 0.2586618388
H   H12       1.0  0.50870  0.47470  0.85130  1.0000 0.2586618388
H   H13       1.0  0.99130  0.97470  0.85130  1.0000 0.2586618388
H   H14       1.0  0.00870  0.47470  0.64870  1.0000 0.2586618388
H   H15       1.0  0.50870  0.02530  0.35130  1.0000 0.2586618388
H   H16       1.0  0.49130  0.52530  0.14870  1.0000 0.2586618388
H   H17       1.0  0.65270  0.83460  0.99830  1.0000 0.1215351326
H   H18       1.0  0.34730  0.33460  0.50170  1.0000 0.1215351326
H   H19       1.0  0.84730  0.16540  0.49830  1.0000 0.1215351326
H   H20       1.0  0.15270  0.66540  0.00170  1.0000 0.1215351326
H   H21       1.0  0.34730  0.16540  0.00170  1.0000 0.1215351326
H   H22       1.0  0.65270  0.66540  0.49830  1.0000 0.1215351326
H   H23       1.0  0.15270  0.83460  0.50170  1.0000 0.1215351326
H   H24       1.0  0.84730  0.33460  0.99830  1.0000 0.1215351326
H   H25       1.0  0.66220  0.89050  0.93530  1.0000 0.109641964
H   H26       1.0  0.33780  0.39050  0.56470  1.0000 0.109641964
H   H27       1.0  0.83780  0.10950  0.43530  1.0000 0.109641964
H   H28       1.0  0.16220  0.60950  0.06470  1.0000 0.109641964
H   H29       1.0  0.33780  0.10950  0.06470  1.0000 0.109641964
H   H30       1.0  0.66220  0.60950  0.43530  1.0000 0.109641964
H   H31       1.0  0.16220  0.89050  0.56470  1.0000 0.109641964
H   H32       1.0  0.83780  0.39050  0.93530  1.0000 0.109641964
H   H33       1.0  0.55970  0.87850  0.87890  1.0000 0.109641964
H   H34       1.0  0.44030  0.37850  0.62110  1.0000 0.109641964
H   H35       1.0  0.94030  0.12150  0.37890  1.0000 0.109641964
H   H36       1.0  0.05970  0.62150  0.12110  1.0000 0.109641964
H   H37       1.0  0.44030  0.12150  0.12110  1.0000 0.109641964
H   H38       1.0  0.55970  0.62150  0.37890  1.0000 0.109641964
H   H39       1.0  0.05970  0.87850  0.62110  1.0000 0.109641964
H   H40       1.0  0.94030  0.37850  0.87890  1.0000 0.109641964
H   H41       1.0  0.44770  0.81250  0.88650  1.0000 0.1215351326
H   H42       1.0  0.55230  0.31250  0.61350  1.0000 0.1215351326
H   H43       1.0  0.05230  0.18750  0.38650  1.0000 0.1215351326
H   H44       1.0  0.94770  0.68750  0.11350  1.0000 0.1215351326
H   H45       1.0  0.55230  0.18750  0.11350  1.0000 0.1215351326
H   H46       1.0  0.44770  0.68750  0.38650  1.0000 0.1215351326
H   H47       1.0  0.94770  0.81250  0.61350  1.0000 0.1215351326
H   H48       1.0  0.05230  0.31250  0.88650  1.0000 0.1215351326
H   H49       1.0  0.35770  0.68110  0.99680  1.0000 0.1215351326
H   H50       1.0  0.64230  0.18110  0.50320  1.0000 0.1215351326
H   H51       1.0  0.14230  0.31890  0.49680  1.0000 0.1215351326
H   H52       1.0  0.85770  0.81890  0.00320  1.0000 0.1215351326
H   H53       1.0  0.64230  0.31890  0.00320  1.0000 0.1215351326
H   H54       1.0  0.35770  0.81890  0.49680  1.0000 0.1215351326
H   H55       1.0  0.85770  0.68110  0.50320  1.0000 0.1215351326
H   H56       1.0  0.14230  0.18110  0.99680  1.0000 0.1215351326
H   H57       1.0  0.46500  0.68910  0.05080  1.0000 0.1215351326
H   H58       1.0  0.53500  0.18910  0.44920  1.0000 0.1215351326
H   H59       1.0  0.03500  0.31090  0.55080  1.0000 0.1215351326
H   H60       1.0  0.96500  0.81090  0.94920  1.0000 0.1215351326
H   H61       1.0  0.53500  0.31090  0.94920  1.0000 0.1215351326
H   H62       1.0  0.46500  0.81090  0.55080  1.0000 0.1215351326
H   H63       1.0  0.96500  0.68910  0.44920  1.0000 0.1215351326
H   H64       1.0  0.03500  0.18910  0.05080  1.0000 0.1215351326
H   H65       1.0  0.94930  0.82750  0.19390  1.0000 0.1215351326
H   H66       1.0  0.05070  0.32750  0.30610  1.0000 0.1215351326
H   H67       1.0  0.55070  0.17250  0.69390  1.0000 0.1215351326
H   H68       1.0  0.44930  0.67250  0.80610  1.0000 0.1215351326
H   H69       1.0  0.05070  0.17250  0.80610  1.0000 0.1215351326
H   H70       1.0  0.94930  0.67250  0.69390  1.0000 0.1215351326
H   H71       1.0  0.44930  0.82750  0.30610  1.0000 0.1215351326
H   H72       1.0  0.55070  0.32750  0.19390  1.0000 0.1215351326
H   H73       1.0  0.05790  0.82960  0.24740  1.0000 0.1271053819
H   H74       1.0  0.94210  0.32960  0.25260  1.0000 0.1271053819
H   H75       1.0  0.44210  0.17040  0.74740  1.0000 0.1271053819
H   H76       1.0  0.55790  0.67040  0.75260  1.0000 0.1271053819
H   H77       1.0  0.94210  0.17040  0.75260  1.0000 0.1271053819
H   H78       1.0  0.05790  0.67040  0.74740  1.0000 0.1271053819
H   H79       1.0  0.55790  0.82960  0.25260  1.0000 0.1271053819
H   H80       1.0  0.44210  0.32960  0.24740  1.0000 0.1271053819
H   H81       1.0  0.93060  0.74030  0.36980  1.0000 0.1215351326
H   H82       1.0  0.06940  0.24030  0.13020  1.0000 0.1215351326
H   H83       1.0  0.56940  0.25970  0.86980  1.0000 0.1215351326
H   H84       1.0  0.43060  0.75970  0.63020  1.0000 0.1215351326
H   H85       1.0  0.06940  0.25970  0.63020  1.0000 0.1215351326
H   H86       1.0  0.93060  0.75970  0.86980  1.0000 0.1215351326
H   H87       1.0  0.43060  0.74030  0.13020  1.0000 0.1215351326
H   H88       1.0  0.56940  0.24030  0.36980  1.0000 0.1215351326
H   H89       1.0  0.79450  0.70580  0.38640  1.0000 0.109641964
H   H90       1.0  0.20550  0.20580  0.11360  1.0000 0.109641964
H   H91       1.0  0.70550  0.29420  0.88640  1.0000 0.109641964
H   H92       1.0  0.29450  0.79420  0.61360  1.0000 0.109641964
H   H93       1.0  0.20550  0.29420  0.61360  1.0000 0.109641964
H   H94       1.0  0.79450  0.79420  0.88640  1.0000 0.109641964
H   H95       1.0  0.29450  0.70580  0.11360  1.0000 0.109641964
H   H96       1.0  0.70550  0.20580  0.38640  1.0000 0.109641964
H   H97       1.0  0.68470  0.70700  0.33420  1.0000 0.109641964
H   H98       1.0  0.31530  0.20700  0.16580  1.0000 0.109641964
H   H99       1.0  0.81530  0.29300  0.83420  1.0000 0.109641964
H   H100      1.0  0.18470  0.79300  0.66580  1.0000 0.109641964
H   H101      1.0  0.31530  0.29300  0.66580  1.0000 0.109641964
H   H102      1.0  0.68470  0.79300  0.83420  1.0000 0.109641964
H   H103      1.0  0.18470  0.70700  0.16580  1.0000 0.109641964
H   H104      1.0  0.81530  0.20700  0.33420  1.0000 0.109641964
H   H105      1.0  0.71080  0.74010  0.26380  1.0000 0.1215351326
H   H106      1.0  0.28920  0.24010  0.23620  1.0000 0.1215351326
H   H107      1.0  0.78920  0.25990  0.76380  1.0000 0.1215351326
H   H108      1.0  0.21080  0.75990  0.73620  1.0000 0.1215351326
H   H109      1.0  0.28920  0.25990  0.73620  1.0000 0.1215351326
H   H110      1.0  0.71080  0.75990  0.76380  1.0000 0.1215351326
H   H111      1.0  0.21080  0.74010  0.23620  1.0000 0.1215351326
H   H112      1.0  0.78920  0.24010  0.26380  1.0000 0.1215351326
H   H113      1.0  0.55660  0.02620  0.07230  1.0000 0.1271053819
H   H114      1.0  0.44340  0.52620  0.42770  1.0000 0.1271053819
H   H115      1.0  0.94340  0.97380  0.57230  1.0000 0.1271053819
H   H116      1.0  0.05660  0.47380  0.92770  1.0000 0.1271053819
H   H117      1.0  0.44340  0.97380  0.92770  1.0000 0.1271053819
H   H118      1.0  0.55660  0.47380  0.57230  1.0000 0.1271053819
H   H119      1.0  0.05660  0.02620  0.42770  1.0000 0.1271053819
H   H120      1.0  0.94340  0.52620  0.07230  1.0000 0.1271053819
H   H121      1.0  0.65380  0.09100  0.10570  1.0000 0.1271053819
H   H122      1.0  0.34620  0.59100  0.39430  1.0000 0.1271053819
H   H123      1.0  0.84620  0.90900  0.60570  1.0000 0.1271053819
H   H124      1.0  0.15380  0.40900  0.89430  1.0000 0.1271053819
H   H125      1.0  0.34620  0.90900  0.89430  1.0000 0.1271053819
H   H126      1.0  0.65380  0.40900  0.60570  1.0000 0.1271053819
H   H127      1.0  0.15380  0.09100  0.39430  1.0000 0.1271053819
H   H128      1.0  0.84620  0.59100  0.10570  1.0000 0.1271053819
H   H129      1.0  0.79390  0.95020  0.14410  1.0000 0.109641964
H   H130      1.0  0.20610  0.45020  0.35590  1.0000 0.0985986823
H   H131      1.0  0.70610  0.04980  0.64410  1.0000 0.0985986823
H   H132      1.0  0.29390  0.54980  0.85590  1.0000 0.0985986823
H   H133      1.0  0.20610  0.04980  0.85590  1.0000 0.0985986823
H   H134      1.0  0.79390  0.54980  0.64410  1.0000 0.109641964
H   H135      1.0  0.29390  0.95020  0.35590  1.0000 0.109641964
H   H136      1.0  0.70610  0.45020  0.14410  1.0000 0.0985986823
H   H137      1.0  0.93520  0.11470  0.18380  1.0000 0.0985986823
H   H138      1.0  0.06480  0.61470  0.31620  1.0000 0.0985986823
H   H139      1.0  0.56480  0.88530  0.68380  1.0000 0.0985986823
H   H140      1.0  0.43520  0.38530  0.81620  1.0000 0.0985986823
H   H141      1.0  0.06480  0.88530  0.81620  1.0000 0.0985986823
H   H142      1.0  0.93520  0.38530  0.68380  1.0000 0.0985986823
H   H143      1.0  0.43520  0.11470  0.31620  1.0000 0.0985986823
H   H144      1.0  0.56480  0.61470  0.18380  1.0000 0.0985986823
H   H145      1.0  0.83920  0.14140  0.24130  1.0000 0.1215351326
H   H146      1.0  0.16080  0.64140  0.25870  1.0000 0.1215351326
H   H147      1.0  0.66080  0.85860  0.74130  1.0000 0.1215351326
H   H148      1.0  0.33920  0.35860  0.75870  1.0000 0.1215351326
H   H149      1.0  0.16080  0.85860  0.75870  1.0000 0.1215351326
H   H150      1.0  0.83920  0.35860  0.74130  1.0000 0.1215351326
H   H151      1.0  0.33920  0.14140  0.25870  1.0000 0.1215351326
H   H152      1.0  0.66080  0.64140  0.24130  1.0000 0.1215351326
H   H153      1.0  0.86680  0.08460  0.26830  1.0000 0.109641964
H   H154      1.0  0.13320  0.58460  0.23170  1.0000 0.109641964
H   H155      1.0  0.63320  0.91540  0.76830  1.0000 0.109641964
H   H156      1.0  0.36680  0.41540  0.73170  1.0000 0.109641964
H   H157      1.0  0.13320  0.91540  0.73170  1.0000 0.109641964
H   H158      1.0  0.86680  0.41540  0.76830  1.0000 0.109641964
H   H159      1.0  0.36680  0.08460  0.23170  1.0000 0.109641964
H   H160      1.0  0.63320  0.58460  0.26830  1.0000 0.109641964
H   H161      1.0  0.97910  0.18180  0.24830  1.0000 0.109641964
H   H162      1.0  0.02090  0.68180  0.25170  1.0000 0.109641964
H   H163      1.0  0.52090  0.81820  0.74830  1.0000 0.109641964
H   H164      1.0  0.47910  0.31820  0.75170  1.0000 0.109641964
H   H165      1.0  0.02090  0.81820  0.75170  1.0000 0.109641964
H   H166      1.0  0.97910  0.31820  0.74830  1.0000 0.109641964
H   H167      1.0  0.47910  0.18180  0.25170  1.0000 0.109641964
H   H168      1.0  0.52090  0.68180  0.24830  1.0000 0.109641964
H   H169      1.0  0.94510  0.16610  0.29580  1.0000 0.0898635701
H   H170      1.0  0.05490  0.66610  0.20420  1.0000 0.0898635701
H   H171      1.0  0.55490  0.83390  0.79580  1.0000 0.0898635701
H   H172      1.0  0.44510  0.33390  0.70420  1.0000 0.0898635701
H   H173      1.0  0.05490  0.83390  0.70420  1.0000 0.0898635701
H   H174      1.0  0.94510  0.33390  0.79580  1.0000 0.0898635701
H   H175      1.0  0.44510  0.16610  0.20420  1.0000 0.0898635701
H   H176      1.0  0.55490  0.66610  0.29580  1.0000 0.0898635701
H   H177      1.0  0.09140  0.13440  0.28570  1.0000 0.109641964
H   H178      1.0  0.90860  0.63440  0.21430  1.0000 0.109641964
H   H179      1.0  0.40860  0.86560  0.78570  1.0000 0.109641964
H   H180      1.0  0.59140  0.36560  0.71430  1.0000 0.109641964
H   H181      1.0  0.90860  0.86560  0.71430  1.0000 0.109641964
H   H182      1.0  0.09140  0.36560  0.78570  1.0000 0.109641964
H   H183      1.0  0.59140  0.13440  0.21430  1.0000 0.109641964
H   H184      1.0  0.40860  0.63440  0.28570  1.0000 0.109641964
H   H185      1.0  0.03010  0.08050  0.29770  1.0000 0.0985986823
H   H186      1.0  0.96990  0.58050  0.20230  1.0000 0.0985986823
H   H187      1.0  0.46990  0.91950  0.79770  1.0000 0.0985986823
H   H188      1.0  0.53010  0.41950  0.70230  1.0000 0.0985986823
H   H189      1.0  0.96990  0.91950  0.70230  1.0000 0.0985986823
H   H190      1.0  0.03010  0.41950  0.79770  1.0000 0.0985986823
H   H191      1.0  0.53010  0.08050  0.20230  1.0000 0.0985986823
H   H192      1.0  0.46990  0.58050  0.29770  1.0000 0.0985986823
H   H193      1.0  0.11870  0.05210  0.23880  1.0000 0.109641964
H   H194      1.0  0.88130  0.55210  0.26120  1.0000 0.109641964
H   H195      1.0  0.38130  0.94790  0.73880  1.0000 0.109641964
H   H196      1.0  0.61870  0.44790  0.76120  1.0000 0.109641964
H   H197      1.0  0.88130  0.94790  0.76120  1.0000 0.109641964
H   H198      1.0  0.11870  0.44790  0.73880  1.0000 0.109641964
H   H199      1.0  0.61870  0.05210  0.26120  1.0000 0.109641964
H   H200      1.0  0.38130  0.55210  0.23880  1.0000 0.109641964
H   H201      1.0  0.08910  0.10800  0.21140  1.0000 0.109641964
H   H202      1.0  0.91090  0.60800  0.28860  1.0000 0.109641964
H   H203      1.0  0.41090  0.89200  0.71140  1.0000 0.109641964
H   H204      1.0  0.58910  0.39200  0.78860  1.0000 0.109641964
H   H205      1.0  0.91090  0.89200  0.78860  1.0000 0.109641964
H   H206      1.0  0.08910  0.39200  0.71140  1.0000 0.109641964
H   H207      1.0  0.58910  0.10800  0.28860  1.0000 0.109641964
H   H208      1.0  0.41090  0.60800  0.21140  1.0000 0.109641964
H   H209      1.0  0.97510  0.01410  0.23650  1.0000 0.0898635701
H   H210      1.0  0.02490  0.51410  0.26350  1.0000 0.0898635701
H   H211      1.0  0.52490  0.98590  0.73650  1.0000 0.0898635701
H   H212      1.0  0.47510  0.48590  0.76350  1.0000 0.0898635701
H   H213      1.0  0.02490  0.98590  0.76350  1.0000 0.0898635701
H   H214      1.0  0.97510  0.48590  0.73650  1.0000 0.0898635701
H   H215      1.0  0.47510  0.01410  0.26350  1.0000 0.0898635701
H   H216      1.0  0.52490  0.51410  0.23650  1.0000 0.0898635701
H   H217      1.0  0.97860  0.96320  0.09670  1.0000 0.0898635701
H   H218      1.0  0.02140  0.46320  0.40330  1.0000 0.0898635701
H   H219      1.0  0.52140  0.03680  0.59670  1.0000 0.0898635701
H   H220      1.0  0.47860  0.53680  0.90330  1.0000 0.0898635701
H   H221      1.0  0.02140  0.03680  0.90330  1.0000 0.0898635701
H   H222      1.0  0.97860  0.53680  0.59670  1.0000 0.0898635701
H   H223      1.0  0.47860  0.96320  0.40330  1.0000 0.0898635701
H   H224      1.0  0.52140  0.46320  0.09670  1.0000 0.0898635701
H   H225      1.0  0.09770  0.83730  0.03280  1.0000 0.0985986823
H   H226      1.0  0.90230  0.33730  0.46720  1.0000 0.0985986823
H   H227      1.0  0.40230  0.16270  0.53280  1.0000 0.0985986823
H   H228      1.0  0.59770  0.66270  0.96720  1.0000 0.0985986823
H   H229      1.0  0.90230  0.16270  0.96720  1.0000 0.0985986823
H   H230      1.0  0.09770  0.66270  0.53280  1.0000 0.0985986823
H   H231      1.0  0.59770  0.83730  0.46720  1.0000 0.0985986823
H   H232      1.0  0.40230  0.33730  0.03280  1.0000 0.0985986823
H   H233      1.0  0.17760  0.81180  0.09390  1.0000 0.1271053819
H   H234      1.0  0.82240  0.31180  0.40610  1.0000 0.1271053819
H   H235      1.0  0.32240  0.18820  0.59390  1.0000 0.1271053819
H   H236      1.0  0.67760  0.68820  0.90610  1.0000 0.1271053819
H   H237      1.0  0.82240  0.18820  0.90610  1.0000 0.1271053819
H   H238      1.0  0.17760  0.68820  0.59390  1.0000 0.1271053819
H   H239      1.0  0.67760  0.81180  0.40610  1.0000 0.1271053819
H   H240      1.0  0.32240  0.31180  0.09390  1.0000 0.1271053819
H   H241      1.0  0.15930  0.86620  0.15890  1.0000 0.1215351326
H   H242      1.0  0.84070  0.36620  0.34110  1.0000 0.1215351326
H   H243      1.0  0.34070  0.13380  0.65890  1.0000 0.1215351326
H   H244      1.0  0.65930  0.63380  0.84110  1.0000 0.1215351326
H   H245      1.0  0.84070  0.13380  0.84110  1.0000 0.1215351326
H   H246      1.0  0.15930  0.63380  0.65890  1.0000 0.1215351326
H   H247      1.0  0.65930  0.86620  0.34110  1.0000 0.1215351326
H   H248      1.0  0.34070  0.36620  0.15890  1.0000 0.1215351326
H   H249      1.0  0.58100  0.92540  0.07570  1.0000 0.1215351326
H   H250      1.0  0.41900  0.42540  0.42430  1.0000 0.1215351326
H   H251      1.0  0.91900  0.07460  0.57570  1.0000 0.1215351326
H   H252      1.0  0.08100  0.57460  0.92430  1.0000 0.1215351326
H   H253      1.0  0.41900  0.07460  0.92430  1.0000 0.1215351326
H   H254      1.0  0.58100  0.57460  0.57570  1.0000 0.1215351326
H   H255      1.0  0.08100  0.92540  0.42430  1.0000 0.1215351326
H   H256      1.0  0.91900  0.42540  0.07570  1.0000 0.1215351326
C   C1        1.0  0.59710  0.75990  0.05972  1.0000 0.5619467298
C   C2        1.0  0.40290  0.25990  0.44028  1.0000 0.5619467298
C   C3        1.0  0.90290  0.24010  0.55972  1.0000 0.5619467298
C   C4        1.0  0.09710  0.74010  0.94028  1.0000 0.5619467298
C   C5        1.0  0.40290  0.24010  0.94028  1.0000 0.5619467298
C   C6        1.0  0.59710  0.74010  0.55972  1.0000 0.5619467298
C   C7        1.0  0.09710  0.75990  0.44028  1.0000 0.5619467298
C   C8        1.0  0.90290  0.25990  0.05972  1.0000 0.5619467298
C   C9        1.0  0.53380  0.75430  0.02185  1.0000 -0.0614478377
C   C10       1.0  0.46620  0.25430  0.47815  1.0000 -0.0614478377
C   C11       1.0  0.96620  0.24570  0.52185  1.0000 -0.0614478377
C   C12       1.0  0.03380  0.74570  0.97815  1.0000 -0.0614478377
C   C13       1.0  0.46620  0.24570  0.97815  1.0000 -0.0614478377
C   C14       1.0  0.53380  0.74570  0.52185  1.0000 -0.0614478377
C   C15       1.0  0.03380  0.75430  0.47815  1.0000 -0.0614478377
C   C16       1.0  0.96620  0.25430  0.02185  1.0000 -0.0614478377
C   C17       1.0  0.54050  0.79007  0.98299  1.0000 0.0529327816
C   C18       1.0  0.45950  0.29007  0.51701  1.0000 0.0529327816
C   C19       1.0  0.95950  0.20993  0.48299  1.0000 0.0529327816
C   C20       1.0  0.04050  0.70993  0.01701  1.0000 0.0529327816
C   C21       1.0  0.45950  0.20993  0.01701  1.0000 0.0529327816
C   C22       1.0  0.54050  0.70993  0.48299  1.0000 0.0529327816
C   C23       1.0  0.04050  0.79007  0.51701  1.0000 0.0529327816
C   C24       1.0  0.95950  0.29007  0.98299  1.0000 0.0529327816
C   C25       1.0  0.61040  0.83040  0.97643  1.0000 -0.1383217209
C   C26       1.0  0.38960  0.33040  0.52357  1.0000 -0.1383217209
C   C27       1.0  0.88960  0.16960  0.47643  1.0000 -0.1383217209
C   C28       1.0  0.11040  0.66960  0.02357  1.0000 -0.1383217209
C   C29       1.0  0.38960  0.16960  0.02357  1.0000 -0.1383217209
C   C30       1.0  0.61040  0.66960  0.47643  1.0000 -0.1383217209
C   C31       1.0  0.11040  0.83040  0.52357  1.0000 -0.1383217209
C   C32       1.0  0.88960  0.33040  0.97643  1.0000 -0.1383217209
C   C33       1.0  0.61670  0.86330  0.93860  1.0000 -0.1077960547
C   C34       1.0  0.38330  0.36330  0.56140  1.0000 -0.1077960547
C   C35       1.0  0.88330  0.13670  0.43860  1.0000 -0.1077960547
C   C36       1.0  0.11670  0.63670  0.06140  1.0000 -0.1077960547
C   C37       1.0  0.38330  0.13670  0.06140  1.0000 -0.1077960547
C   C38       1.0  0.61670  0.63670  0.43860  1.0000 -0.1077960547
C   C39       1.0  0.11670  0.86330  0.56140  1.0000 -0.1077960547
C   C40       1.0  0.88330  0.36330  0.93860  1.0000 -0.1077960547
C   C41       1.0  0.55470  0.85630  0.90467  1.0000 -0.1197531231
C   C42       1.0  0.44530  0.35630  0.59533  1.0000 -0.1197531231
C   C43       1.0  0.94530  0.14370  0.40467  1.0000 -0.1197531231
C   C44       1.0  0.05470  0.64370  0.09533  1.0000 -0.1197531231
C   C45       1.0  0.44530  0.14370  0.09533  1.0000 -0.1197531231
C   C46       1.0  0.55470  0.64370  0.40467  1.0000 -0.1197531231
C   C47       1.0  0.05470  0.85630  0.59533  1.0000 -0.1197531231
C   C48       1.0  0.94530  0.35630  0.90467  1.0000 -0.1197531231
C   C49       1.0  0.48750  0.81720  0.90943  1.0000 -0.1383217209
C   C50       1.0  0.51250  0.31720  0.59057  1.0000 -0.1383217209
C   C51       1.0  0.01250  0.18280  0.40943  1.0000 -0.1383217209
C   C52       1.0  0.98750  0.68280  0.09057  1.0000 -0.1383217209
C   C53       1.0  0.51250  0.18280  0.09057  1.0000 -0.1383217209
C   C54       1.0  0.48750  0.68280  0.40943  1.0000 -0.1383217209
C   C55       1.0  0.98750  0.81720  0.59057  1.0000 -0.1383217209
C   C56       1.0  0.01250  0.31720  0.90943  1.0000 -0.1383217209
C   C57       1.0  0.47690  0.78342  0.94878  1.0000 0.0529327816
C   C58       1.0  0.52310  0.28342  0.55122  1.0000 0.0529327816
C   C59       1.0  0.02310  0.21658  0.44878  1.0000 0.0529327816
C   C60       1.0  0.97690  0.71658  0.05122  1.0000 0.0529327816
C   C61       1.0  0.52310  0.21658  0.05122  1.0000 0.0529327816
C   C62       1.0  0.47690  0.71658  0.44878  1.0000 0.0529327816
C   C63       1.0  0.97690  0.78342  0.55122  1.0000 0.0529327816
C   C64       1.0  0.02310  0.28342  0.94878  1.0000 0.0529327816
C   C65       1.0  0.40660  0.74245  0.95543  1.0000 -0.0512718
C   C66       1.0  0.59340  0.24245  0.54457  1.0000 -0.0512718
C   C67       1.0  0.09340  0.25755  0.45543  1.0000 -0.0512718
C   C68       1.0  0.90660  0.75755  0.04457  1.0000 -0.0512718
C   C69       1.0  0.59340  0.25755  0.04457  1.0000 -0.0512718
C   C70       1.0  0.40660  0.75755  0.45543  1.0000 -0.0512718
C   C71       1.0  0.90660  0.74245  0.54457  1.0000 -0.0512718
C   C72       1.0  0.09340  0.24245  0.95543  1.0000 -0.0512718
C   C73       1.0  0.33010  0.73600  0.92382  1.0000 0.5619467298
C   C74       1.0  0.66990  0.23600  0.57618  1.0000 0.5619467298
C   C75       1.0  0.16990  0.26400  0.42382  1.0000 0.5619467298
C   C76       1.0  0.83010  0.76400  0.07618  1.0000 0.5619467298
C   C77       1.0  0.66990  0.26400  0.07618  1.0000 0.5619467298
C   C78       1.0  0.33010  0.76400  0.42382  1.0000 0.5619467298
C   C79       1.0  0.83010  0.73600  0.57618  1.0000 0.5619467298
C   C80       1.0  0.16990  0.23600  0.92382  1.0000 0.5619467298
C   C81       1.0  0.40320  0.70814  0.99307  1.0000 -0.1077960547
C   C82       1.0  0.59680  0.20814  0.50693  1.0000 -0.1077960547
C   C83       1.0  0.09680  0.29186  0.49307  1.0000 -0.1077960547
C   C84       1.0  0.90320  0.79186  0.00693  1.0000 -0.1077960547
C   C85       1.0  0.59680  0.29186  0.00693  1.0000 -0.1077960547
C   C86       1.0  0.40320  0.79186  0.49307  1.0000 -0.1077960547
C   C87       1.0  0.90320  0.70814  0.50693  1.0000 -0.1077960547
C   C88       1.0  0.09680  0.20814  0.99307  1.0000 -0.1077960547
C   C89       1.0  0.46740  0.71347  0.02601  1.0000 -0.1197531231
C   C90       1.0  0.53260  0.21347  0.47399  1.0000 -0.1197531231
C   C91       1.0  0.03260  0.28653  0.52601  1.0000 -0.1197531231
C   C92       1.0  0.96740  0.78653  0.97399  1.0000 -0.1197531231
C   C93       1.0  0.53260  0.28653  0.97399  1.0000 -0.1197531231
C   C94       1.0  0.46740  0.78653  0.52601  1.0000 -0.1197531231
C   C95       1.0  0.96740  0.71347  0.47399  1.0000 -0.1197531231
C   C96       1.0  0.03260  0.21347  0.02601  1.0000 -0.1197531231
C   C97       1.0  0.79540  0.78160  0.19200  1.0000 0.5619467298
C   C98       1.0  0.20460  0.28160  0.30800  1.0000 0.5619467298
C   C99       1.0  0.70460  0.21840  0.69200  1.0000 0.5619467298
C   C100      1.0  0.29540  0.71840  0.80800  1.0000 0.5619467298
C   C101      1.0  0.20460  0.21840  0.80800  1.0000 0.5619467298
C   C102      1.0  0.79540  0.71840  0.69200  1.0000 0.5619467298
C   C103      1.0  0.29540  0.78160  0.30800  1.0000 0.5619467298
C   C104      1.0  0.70460  0.28160  0.19200  1.0000 0.5619467298
C   C105      1.0  0.85890  0.78578  0.22971  1.0000 -0.0512718
C   C106      1.0  0.14110  0.28578  0.27029  1.0000 -0.0512718
C   C107      1.0  0.64110  0.21422  0.72971  1.0000 -0.0512718
C   C108      1.0  0.35890  0.71422  0.77029  1.0000 -0.0512718
C   C109      1.0  0.14110  0.21422  0.77029  1.0000 -0.0512718
C   C110      1.0  0.85890  0.71422  0.72971  1.0000 -0.0512718
C   C111      1.0  0.35890  0.78578  0.27029  1.0000 -0.0512718
C   C112      1.0  0.64110  0.28578  0.22971  1.0000 -0.0512718
C   C113      1.0  0.93840  0.81080  0.22149  1.0000 -0.1011167122
C   C114      1.0  0.06160  0.31080  0.27851  1.0000 -0.1011167122
C   C115      1.0  0.56160  0.18920  0.72149  1.0000 -0.1011167122
C   C116      1.0  0.43840  0.68920  0.77851  1.0000 -0.1011167122
C   C117      1.0  0.06160  0.18920  0.77851  1.0000 -0.1011167122
C   C118      1.0  0.93840  0.68920  0.72149  1.0000 -0.1011167122
C   C119      1.0  0.43840  0.81080  0.27851  1.0000 -0.1011167122
C   C120      1.0  0.56160  0.31080  0.22149  1.0000 -0.1011167122
C   C121      1.0  0.00430  0.81190  0.25369  1.0000 -0.1011167122
C   C122      1.0  0.99570  0.31190  0.24631  1.0000 -0.1011167122
C   C123      1.0  0.49570  0.18810  0.75369  1.0000 -0.1011167122
C   C124      1.0  0.50430  0.68810  0.74631  1.0000 -0.1011167122
C   C125      1.0  0.99570  0.18810  0.74631  1.0000 -0.1011167122
C   C126      1.0  0.00430  0.68810  0.75369  1.0000 -0.1011167122
C   C127      1.0  0.50430  0.81190  0.24631  1.0000 -0.1011167122
C   C128      1.0  0.49570  0.31190  0.25369  1.0000 -0.1011167122
C   C129      1.0  0.98970  0.78700  0.29442  1.0000 -0.0512718
C   C130      1.0  0.01030  0.28700  0.20558  1.0000 -0.0512718
C   C131      1.0  0.51030  0.21300  0.79442  1.0000 -0.0512718
C   C132      1.0  0.48970  0.71300  0.70558  1.0000 -0.0512718
C   C133      1.0  0.01030  0.21300  0.70558  1.0000 -0.0512718
C   C134      1.0  0.98970  0.71300  0.79442  1.0000 -0.0512718
C   C135      1.0  0.48970  0.78700  0.20558  1.0000 -0.0512718
C   C136      1.0  0.51030  0.28700  0.29442  1.0000 -0.0512718
C   C137      1.0  0.90640  0.76310  0.30537  1.0000 0.0529327816
C   C138      1.0  0.09360  0.26310  0.19463  1.0000 0.0529327816
C   C139      1.0  0.59360  0.23690  0.80537  1.0000 0.0529327816
C   C140      1.0  0.40640  0.73690  0.69463  1.0000 0.0529327816
C   C141      1.0  0.09360  0.23690  0.69463  1.0000 0.0529327816
C   C142      1.0  0.90640  0.73690  0.80537  1.0000 0.0529327816
C   C143      1.0  0.40640  0.76310  0.19463  1.0000 0.0529327816
C   C144      1.0  0.59360  0.26310  0.30537  1.0000 0.0529327816
C   C145      1.0  0.88710  0.74080  0.34831  1.0000 -0.1383217209
C   C146      1.0  0.11290  0.24080  0.15169  1.0000 -0.1383217209
C   C147      1.0  0.61290  0.25920  0.84831  1.0000 -0.1383217209
C   C148      1.0  0.38710  0.75920  0.65169  1.0000 -0.1383217209
C   C149      1.0  0.11290  0.25920  0.65169  1.0000 -0.1383217209
C   C150      1.0  0.88710  0.75920  0.84831  1.0000 -0.1383217209
C   C151      1.0  0.38710  0.74080  0.15169  1.0000 -0.1383217209
C   C152      1.0  0.61290  0.24080  0.34831  1.0000 -0.1383217209
C   C153      1.0  0.80600  0.72020  0.35818  1.0000 -0.1011167122
C   C154      1.0  0.19400  0.22020  0.14182  1.0000 -0.1011167122
C   C155      1.0  0.69400  0.27980  0.85818  1.0000 -0.1011167122
C   C156      1.0  0.30600  0.77980  0.64182  1.0000 -0.1011167122
C   C157      1.0  0.19400  0.27980  0.64182  1.0000 -0.1011167122
C   C158      1.0  0.80600  0.77980  0.85818  1.0000 -0.1011167122
C   C159      1.0  0.30600  0.72020  0.14182  1.0000 -0.1011167122
C   C160      1.0  0.69400  0.22020  0.35818  1.0000 -0.1011167122
C   C161      1.0  0.74010  0.72060  0.32665  1.0000 -0.1077960547
C   C162      1.0  0.25990  0.22060  0.17335  1.0000 -0.1077960547
C   C163      1.0  0.75990  0.27940  0.82665  1.0000 -0.1077960547
C   C164      1.0  0.24010  0.77940  0.67335  1.0000 -0.1077960547
C   C165      1.0  0.25990  0.27940  0.67335  1.0000 -0.1077960547
C   C166      1.0  0.74010  0.77940  0.82665  1.0000 -0.1077960547
C   C167      1.0  0.24010  0.72060  0.17335  1.0000 -0.1077960547
C   C168      1.0  0.75990  0.22060  0.32665  1.0000 -0.1077960547
C   C169      1.0  0.75550  0.74070  0.28467  1.0000 -0.1383217209
C   C170      1.0  0.24450  0.24070  0.21533  1.0000 -0.1383217209
C   C171      1.0  0.74450  0.25930  0.78467  1.0000 -0.1383217209
C   C172      1.0  0.25550  0.75930  0.71533  1.0000 -0.1383217209
C   C173      1.0  0.24450  0.25930  0.71533  1.0000 -0.1383217209
C   C174      1.0  0.75550  0.75930  0.78467  1.0000 -0.1383217209
C   C175      1.0  0.25550  0.74070  0.21533  1.0000 -0.1383217209
C   C176      1.0  0.74450  0.24070  0.28467  1.0000 -0.1383217209
C   C177      1.0  0.83920  0.76231  0.27289  1.0000 0.0529327816
C   C178      1.0  0.16080  0.26231  0.22711  1.0000 0.0529327816
C   C179      1.0  0.66080  0.23769  0.77289  1.0000 0.0529327816
C   C180      1.0  0.33920  0.73769  0.72711  1.0000 0.0529327816
C   C181      1.0  0.16080  0.23769  0.72711  1.0000 0.0529327816
C   C182      1.0  0.83920  0.73769  0.77289  1.0000 0.0529327816
C   C183      1.0  0.33920  0.76231  0.22711  1.0000 0.0529327816
C   C184      1.0  0.66080  0.26231  0.27289  1.0000 0.0529327816
C   C185      1.0  0.06530  0.78310  0.32588  1.0000 0.5619467298
C   C186      1.0  0.93470  0.28310  0.17412  1.0000 0.5619467298
C   C187      1.0  0.43470  0.21690  0.82588  1.0000 0.5619467298
C   C188      1.0  0.56530  0.71690  0.67412  1.0000 0.5619467298
C   C189      1.0  0.93470  0.21690  0.67412  1.0000 0.5619467298
C   C190      1.0  0.06530  0.71690  0.82588  1.0000 0.5619467298
C   C191      1.0  0.56530  0.78310  0.17412  1.0000 0.5619467298
C   C192      1.0  0.43470  0.28310  0.32588  1.0000 0.5619467298
C   C193      1.0  0.60520  0.01150  0.08723  1.0000 -0.1476091374
C   C194      1.0  0.39480  0.51150  0.41277  1.0000 -0.1476091374
C   C195      1.0  0.89480  0.98850  0.58723  1.0000 -0.1476091374
C   C196      1.0  0.10520  0.48850  0.91277  1.0000 -0.1476091374
C   C197      1.0  0.39480  0.98850  0.91277  1.0000 -0.1476091374
C   C198      1.0  0.60520  0.48850  0.58723  1.0000 -0.1476091374
C   C199      1.0  0.10520  0.01150  0.41277  1.0000 -0.1476091374
C   C200      1.0  0.89480  0.51150  0.08723  1.0000 -0.1476091374
C   C201      1.0  0.66260  0.05000  0.10733  1.0000 -0.0512718
C   C202      1.0  0.33740  0.55000  0.39267  1.0000 -0.0512718
C   C203      1.0  0.83740  0.95000  0.60733  1.0000 -0.0512718
C   C204      1.0  0.16260  0.45000  0.89267  1.0000 -0.0512718
C   C205      1.0  0.33740  0.95000  0.89267  1.0000 -0.0512718
C   C206      1.0  0.66260  0.45000  0.60733  1.0000 -0.0512718
C   C207      1.0  0.16260  0.05000  0.39267  1.0000 -0.0512718
C   C208      1.0  0.83740  0.55000  0.10733  1.0000 -0.0512718
C   C209      1.0  0.73350  0.02702  0.12995  1.0000 -0.0728290144
C   C210      1.0  0.26650  0.52702  0.37005  1.0000 -0.0728290144
C   C211      1.0  0.76650  0.97298  0.62995  1.0000 -0.0728290144
C   C212      1.0  0.23350  0.47298  0.87005  1.0000 -0.0728290144
C   C213      1.0  0.26650  0.97298  0.87005  1.0000 -0.0728290144
C   C214      1.0  0.73350  0.47298  0.62995  1.0000 -0.0728290144
C   C215      1.0  0.23350  0.02702  0.37005  1.0000 -0.0728290144
C   C216      1.0  0.76650  0.52702  0.12995  1.0000 -0.0728290144
C   C217      1.0  0.74500  0.96570  0.12989  1.0000 0.0372087468
C   C218      1.0  0.25500  0.46570  0.37011  1.0000 0.0372087468
C   C219      1.0  0.75500  0.03430  0.62989  1.0000 0.0372087468
C   C220      1.0  0.24500  0.53430  0.87011  1.0000 0.0372087468
C   C221      1.0  0.25500  0.03430  0.87011  1.0000 0.0372087468
C   C222      1.0  0.74500  0.53430  0.62989  1.0000 0.0372087468
C   C223      1.0  0.24500  0.96570  0.37011  1.0000 0.0372087468
C   C224      1.0  0.75500  0.46570  0.12989  1.0000 0.0372087468
C   C225      1.0  0.79770  0.06935  0.15035  1.0000 0.4615387122
C   C226      1.0  0.20230  0.56935  0.34965  1.0000 0.4615387122
C   C227      1.0  0.70230  0.93065  0.65035  1.0000 0.4615387122
C   C228      1.0  0.29770  0.43065  0.84965  1.0000 0.4615387122
C   C229      1.0  0.20230  0.93065  0.84965  1.0000 0.4615387122
C   C230      1.0  0.79770  0.43065  0.65035  1.0000 0.4615387122
C   C231      1.0  0.29770  0.06935  0.34965  1.0000 0.4615387122
C   C232      1.0  0.70230  0.56935  0.15035  1.0000 0.4615387122
C   C233      1.0  0.91640  0.08385  0.20470  1.0000 0.0803278956
C   C234      1.0  0.08360  0.58385  0.29530  1.0000 0.0803278956
C   C235      1.0  0.58360  0.91615  0.70470  1.0000 0.0803278956
C   C236      1.0  0.41640  0.41615  0.79530  1.0000 0.0803278956
C   C237      1.0  0.08360  0.91615  0.79530  1.0000 0.0803278956
C   C238      1.0  0.91640  0.41615  0.70470  1.0000 0.0803278956
C   C239      1.0  0.41640  0.08385  0.29530  1.0000 0.0803278956
C   C240      1.0  0.58360  0.58385  0.20470  1.0000 0.0803278956
C   C241      1.0  0.88720  0.11440  0.24751  1.0000 -0.2312684799
C   C242      1.0  0.11280  0.61440  0.25249  1.0000 -0.2312684799
C   C243      1.0  0.61280  0.88560  0.74751  1.0000 -0.2312684799
C   C244      1.0  0.38720  0.38560  0.75249  1.0000 -0.2312684799
C   C245      1.0  0.11280  0.88560  0.75249  1.0000 -0.2312684799
C   C246      1.0  0.88720  0.38560  0.74751  1.0000 -0.2312684799
C   C247      1.0  0.38720  0.11440  0.25249  1.0000 -0.2312684799
C   C248      1.0  0.61280  0.61440  0.24751  1.0000 -0.2312684799
C   C249      1.0  0.96350  0.14920  0.26777  1.0000 -0.159955718
C   C250      1.0  0.03650  0.64920  0.23223  1.0000 -0.159955718
C   C251      1.0  0.53650  0.85080  0.76777  1.0000 -0.159955718
C   C252      1.0  0.46350  0.35080  0.73223  1.0000 -0.159955718
C   C253      1.0  0.03650  0.85080  0.73223  1.0000 -0.159955718
C   C254      1.0  0.96350  0.35080  0.76777  1.0000 -0.159955718
C   C255      1.0  0.46350  0.14920  0.23223  1.0000 -0.159955718
C   C256      1.0  0.53650  0.64920  0.26777  1.0000 -0.159955718
C   C257      1.0  0.04320  0.11000  0.27522  1.0000 -0.159955718
C   C258      1.0  0.95680  0.61000  0.22478  1.0000 -0.159955718
C   C259      1.0  0.45680  0.89000  0.77522  1.0000 -0.159955718
C   C260      1.0  0.54320  0.39000  0.72478  1.0000 -0.159955718
C   C261      1.0  0.95680  0.89000  0.72478  1.0000 -0.159955718
C   C262      1.0  0.04320  0.39000  0.77522  1.0000 -0.159955718
C   C263      1.0  0.54320  0.11000  0.22478  1.0000 -0.159955718
C   C264      1.0  0.45680  0.61000  0.27522  1.0000 -0.159955718
C   C265      1.0  0.07000  0.07870  0.23288  1.0000 -0.2248740023
C   C266      1.0  0.93000  0.57870  0.26712  1.0000 -0.2248740023
C   C267      1.0  0.43000  0.92130  0.73288  1.0000 -0.2248740023
C   C268      1.0  0.57000  0.42130  0.76712  1.0000 -0.2248740023
C   C269      1.0  0.93000  0.92130  0.76712  1.0000 -0.2248740023
C   C270      1.0  0.07000  0.42130  0.73288  1.0000 -0.2248740023
C   C271      1.0  0.57000  0.07870  0.26712  1.0000 -0.2248740023
C   C272      1.0  0.43000  0.57870  0.23288  1.0000 -0.2248740023
C   C273      1.0  0.99350  0.04300  0.21398  1.0000 0.0653748565
C   C274      1.0  0.00650  0.54300  0.28602  1.0000 0.0653748565
C   C275      1.0  0.50650  0.95700  0.71398  1.0000 0.0653748565
C   C276      1.0  0.49350  0.45700  0.78602  1.0000 0.0653748565
C   C277      1.0  0.00650  0.95700  0.78602  1.0000 0.0653748565
C   C278      1.0  0.99350  0.45700  0.71398  1.0000 0.0653748565
C   C279      1.0  0.49350  0.04300  0.28602  1.0000 0.0653748565
C   C280      1.0  0.50650  0.54300  0.21398  1.0000 0.0653748565
C   C281      1.0  0.05320  0.95490  0.17659  1.0000 0.4615387122
C   C282      1.0  0.94680  0.45490  0.32341  1.0000 0.4615387122
C   C283      1.0  0.44680  0.04510  0.67659  1.0000 0.4615387122
C   C284      1.0  0.55320  0.54510  0.82341  1.0000 0.4615387122
C   C285      1.0  0.94680  0.04510  0.82341  1.0000 0.4615387122
C   C286      1.0  0.05320  0.54510  0.67659  1.0000 0.4615387122
C   C287      1.0  0.55320  0.95490  0.32341  1.0000 0.4615387122
C   C288      1.0  0.44680  0.45490  0.17659  1.0000 0.4615387122
C   C289      1.0  0.06610  0.92140  0.13459  1.0000 -0.075557602
C   C290      1.0  0.93390  0.42140  0.36541  1.0000 -0.0728290144
C   C291      1.0  0.43390  0.07860  0.63459  1.0000 -0.0728290144
C   C292      1.0  0.56610  0.57860  0.86541  1.0000 -0.075557602
C   C293      1.0  0.93390  0.07860  0.86541  1.0000 -0.0728290144
C   C294      1.0  0.06610  0.57860  0.63459  1.0000 -0.075557602
C   C295      1.0  0.56610  0.92140  0.36541  1.0000 -0.0728290144
C   C296      1.0  0.43390  0.42140  0.13459  1.0000 -0.075557602
C   C297      1.0  0.01950  0.93250  0.09634  1.0000 0.0251468687
C   C298      1.0  0.98050  0.43250  0.40366  1.0000 0.0245454857
C   C299      1.0  0.48050  0.06750  0.59634  1.0000 0.0251468687
C   C300      1.0  0.51950  0.56750  0.90366  1.0000 0.0251468687
C   C301      1.0  0.98050  0.06750  0.90366  1.0000 0.0245454857
C   C302      1.0  0.01950  0.56750  0.59634  1.0000 0.0251468687
C   C303      1.0  0.51950  0.93250  0.40366  1.0000 0.0245454857
C   C304      1.0  0.48050  0.43250  0.09634  1.0000 0.0245454857
C   C305      1.0  0.08890  0.85840  0.05884  1.0000 0.0898635701
C   C306      1.0  0.91110  0.35840  0.44116  1.0000 0.0898635701
C   C307      1.0  0.41110  0.14160  0.55884  1.0000 0.0898635701
C   C308      1.0  0.58890  0.64160  0.94116  1.0000 0.0898635701
C   C309      1.0  0.91110  0.14160  0.94116  1.0000 0.0898635701
C   C310      1.0  0.08890  0.64160  0.55884  1.0000 0.0898635701
C   C311      1.0  0.58890  0.85840  0.44116  1.0000 0.0898635701
C   C312      1.0  0.41110  0.35840  0.05884  1.0000 0.0898635701
C   C313      1.0  0.13780  0.84320  0.09523  1.0000 -0.1476091374
C   C314      1.0  0.86220  0.34320  0.40477  1.0000 -0.1476091374
C   C315      1.0  0.36220  0.15680  0.59523  1.0000 -0.1476091374
C   C316      1.0  0.63780  0.65680  0.90477  1.0000 -0.1476091374
C   C317      1.0  0.86220  0.15680  0.90477  1.0000 -0.1476091374
C   C318      1.0  0.13780  0.65680  0.59523  1.0000 -0.1476091374
C   C319      1.0  0.63780  0.84320  0.40477  1.0000 -0.1476091374
C   C320      1.0  0.36220  0.34320  0.09523  1.0000 -0.1476091374
C   C321      1.0  0.12670  0.87530  0.13384  1.0000 -0.0614478377
C   C322      1.0  0.87330  0.37530  0.36616  1.0000 -0.0614478377
C   C323      1.0  0.37330  0.12470  0.63384  1.0000 -0.0614478377
C   C324      1.0  0.62670  0.62470  0.86616  1.0000 -0.0614478377
C   C325      1.0  0.87330  0.12470  0.86616  1.0000 -0.0614478377
C   C326      1.0  0.12670  0.62470  0.63384  1.0000 -0.0614478377
C   C327      1.0  0.62670  0.87530  0.36616  1.0000 -0.0614478377
C   C328      1.0  0.37330  0.37530  0.13384  1.0000 -0.0614478377
C   C329      1.0  0.62030  0.95110  0.08941  1.0000 0.0803278956
C   C330      1.0  0.37970  0.45110  0.41059  1.0000 0.0803278956
C   C331      1.0  0.87970  0.04890  0.58941  1.0000 0.0803278956
C   C332      1.0  0.12030  0.54890  0.91059  1.0000 0.0803278956
C   C333      1.0  0.37970  0.04890  0.91059  1.0000 0.0803278956
C   C334      1.0  0.62030  0.54890  0.58941  1.0000 0.0803278956
C   C335      1.0  0.12030  0.95110  0.41059  1.0000 0.0803278956
C   C336      1.0  0.87970  0.45110  0.08941  1.0000 0.0803278956
N   N1        1.0  0.68980  0.92765  0.11065  1.0000 -0.2141986111
N   N2        1.0  0.31020  0.42765  0.38935  1.0000 -0.2141986111
N   N3        1.0  0.81020  0.07235  0.61065  1.0000 -0.2141986111
N   N4        1.0  0.18980  0.57235  0.88935  1.0000 -0.2141986111
N   N5        1.0  0.31020  0.07235  0.88935  1.0000 -0.2141986111
N   N6        1.0  0.68980  0.57235  0.61065  1.0000 -0.2141986111
N   N7        1.0  0.18980  0.92765  0.38935  1.0000 -0.2141986111
N   N8        1.0  0.81020  0.42765  0.11065  1.0000 -0.2141986111
N   N9        1.0  0.84390  0.05009  0.18469  1.0000 -0.3902737101
N   N10       1.0  0.15610  0.55009  0.31531  1.0000 -0.3902737101
N   N11       1.0  0.65610  0.94991  0.68469  1.0000 -0.3902737101
N   N12       1.0  0.34390  0.44991  0.81531  1.0000 -0.3902737101
N   N13       1.0  0.15610  0.94991  0.81531  1.0000 -0.3902737101
N   N14       1.0  0.84390  0.44991  0.68469  1.0000 -0.3902737101
N   N15       1.0  0.34390  0.05009  0.31531  1.0000 -0.3902737101
N   N16       1.0  0.65610  0.55009  0.18469  1.0000 -0.3902737101
N   N17       1.0  0.01760  0.00950  0.17423  1.0000 -0.4016469097
N   N18       1.0  0.98240  0.50950  0.32577  1.0000 -0.4016469097
N   N19       1.0  0.48240  0.99050  0.67423  1.0000 -0.4016469097
N   N20       1.0  0.51760  0.49050  0.82577  1.0000 -0.4016469097
N   N21       1.0  0.98240  0.99050  0.82577  1.0000 -0.4016469097
N   N22       1.0  0.01760  0.49050  0.67423  1.0000 -0.4016469097
N   N23       1.0  0.51760  0.00950  0.32577  1.0000 -0.4016469097
N   N24       1.0  0.48240  0.50950  0.17423  1.0000 -0.4016469097
N   N25       1.0  0.02980  0.90182  0.05899  1.0000 -0.2312684799
N   N26       1.0  0.97020  0.40182  0.44101  1.0000 -0.2312684799
N   N27       1.0  0.47020  0.09818  0.55899  1.0000 -0.2312684799
N   N28       1.0  0.52980  0.59818  0.94101  1.0000 -0.2312684799
N   N29       1.0  0.97020  0.09818  0.94101  1.0000 -0.2312684799
N   N30       1.0  0.02980  0.59818  0.55899  1.0000 -0.2312684799
N   N31       1.0  0.52980  0.90182  0.44101  1.0000 -0.2312684799
N   N32       1.0  0.47020  0.40182  0.05899  1.0000 -0.2312684799
O   O1        1.0  0.61410  0.81180  0.07317  1.0000 -0.5316849326
O   O2        1.0  0.38590  0.31180  0.42683  1.0000 -0.5316849326
O   O3        1.0  0.88590  0.18820  0.57317  1.0000 -0.5316849326
O   O4        1.0  0.11410  0.68820  0.92683  1.0000 -0.5316849326
O   O5        1.0  0.38590  0.18820  0.92683  1.0000 -0.5316849326
O   O6        1.0  0.61410  0.68820  0.57317  1.0000 -0.5316849326
O   O7        1.0  0.11410  0.81180  0.42683  1.0000 -0.5316849326
O   O8        1.0  0.88590  0.31180  0.07317  1.0000 -0.5316849326
O   O9        1.0  0.62750  0.71185  0.07534  1.0000 -0.5003065144
O   O10       1.0  0.37250  0.21185  0.42466  1.0000 -0.5003065144
O   O11       1.0  0.87250  0.28815  0.57534  1.0000 -0.5003065144
O   O12       1.0  0.12750  0.78815  0.92466  1.0000 -0.5003065144
O   O13       1.0  0.37250  0.28815  0.92466  1.0000 -0.5003065144
O   O14       1.0  0.62750  0.78815  0.57534  1.0000 -0.5003065144
O   O15       1.0  0.12750  0.71185  0.42466  1.0000 -0.5003065144
O   O16       1.0  0.87250  0.21185  0.07534  1.0000 -0.5003065144
O   O17       1.0  0.78289  0.82881  0.17017  1.0000 -0.5216276025
O   O18       1.0  0.21711  0.32881  0.32983  1.0000 -0.5216276025
O   O19       1.0  0.71711  0.17119  0.67017  1.0000 -0.5216276025
O   O20       1.0  0.28289  0.67119  0.82983  1.0000 -0.5216276025
O   O21       1.0  0.21711  0.17119  0.82983  1.0000 -0.5216276025
O   O22       1.0  0.78289  0.67119  0.67017  1.0000 -0.5216276025
O   O23       1.0  0.28289  0.82881  0.32983  1.0000 -0.5216276025
O   O24       1.0  0.71711  0.32881  0.17017  1.0000 -0.5216276025
O   O25       1.0  0.76220  0.73147  0.18410  1.0000 -0.5099912038
O   O26       1.0  0.23780  0.23147  0.31590  1.0000 -0.5099912038
O   O27       1.0  0.73780  0.26853  0.68410  1.0000 -0.5099912038
O   O28       1.0  0.26220  0.76853  0.81590  1.0000 -0.5099912038
O   O29       1.0  0.23780  0.26853  0.81590  1.0000 -0.5099912038
O   O30       1.0  0.76220  0.76853  0.68410  1.0000 -0.5099912038
O   O31       1.0  0.26220  0.73147  0.31590  1.0000 -0.5099912038
O   O32       1.0  0.73780  0.23147  0.18410  1.0000 -0.5099912038
O   O33       1.0  0.10309  0.83102  0.33654  1.0000 -0.5003065144
O   O34       1.0  0.89691  0.33102  0.16346  1.0000 -0.5003065144
O   O35       1.0  0.39691  0.16898  0.83654  1.0000 -0.5003065144
O   O36       1.0  0.60309  0.66898  0.66346  1.0000 -0.5003065144
O   O37       1.0  0.89691  0.16898  0.66346  1.0000 -0.5003065144
O   O38       1.0  0.10309  0.66898  0.83654  1.0000 -0.5003065144
O   O39       1.0  0.60309  0.83102  0.16346  1.0000 -0.5003065144
O   O40       1.0  0.39691  0.33102  0.33654  1.0000 -0.5003065144
O   O41       1.0  0.08704  0.73126  0.33782  1.0000 -0.5216276025
O   O42       1.0  0.91296  0.23126  0.16218  1.0000 -0.5216276025
O   O43       1.0  0.41296  0.26874  0.83782  1.0000 -0.5216276025
O   O44       1.0  0.58704  0.76874  0.66218  1.0000 -0.5216276025
O   O45       1.0  0.91296  0.26874  0.66218  1.0000 -0.5216276025
O   O46       1.0  0.08704  0.76874  0.83782  1.0000 -0.5216276025
O   O47       1.0  0.58704  0.73126  0.16218  1.0000 -0.5216276025
O   O48       1.0  0.41296  0.23126  0.33782  1.0000 -0.5216276025
O   O49       1.0  0.30456  0.78247  0.90444  1.0000 -0.5099912038
O   O50       1.0  0.69544  0.28247  0.59556  1.0000 -0.5099912038
O   O51       1.0  0.19544  0.21753  0.40444  1.0000 -0.5099912038
O   O52       1.0  0.80456  0.71753  0.09556  1.0000 -0.5099912038
O   O53       1.0  0.69544  0.21753  0.09556  1.0000 -0.5099912038
O   O54       1.0  0.30456  0.71753  0.40444  1.0000 -0.5099912038
O   O55       1.0  0.80456  0.78247  0.59556  1.0000 -0.5099912038
O   O56       1.0  0.19544  0.28247  0.90444  1.0000 -0.5099912038
O   O57       1.0  0.29660  0.68513  0.92068  1.0000 -0.5099912038
O   O58       1.0  0.70340  0.18513  0.57932  1.0000 -0.5099912038
O   O59       1.0  0.20340  0.31487  0.42068  1.0000 -0.5099912038
O   O60       1.0  0.79660  0.81487  0.07932  1.0000 -0.5099912038
O   O61       1.0  0.70340  0.31487  0.07932  1.0000 -0.5099912038
O   O62       1.0  0.29660  0.81487  0.42068  1.0000 -0.5099912038
O   O63       1.0  0.79660  0.68513  0.57932  1.0000 -0.5099912038
O   O64       1.0  0.20340  0.18513  0.92068  1.0000 -0.5099912038
O   O65       1.0  0.80720  0.11951  0.13375  1.0000 -0.4827457344
O   O66       1.0  0.19280  0.61951  0.36625  1.0000 -0.4827457344
O   O67       1.0  0.69280  0.88049  0.63375  1.0000 -0.4827457344
O   O68       1.0  0.30720  0.38049  0.86625  1.0000 -0.4827457344
O   O69       1.0  0.19280  0.88049  0.86625  1.0000 -0.4827457344
O   O70       1.0  0.80720  0.38049  0.63375  1.0000 -0.4827457344
O   O71       1.0  0.30720  0.11951  0.36625  1.0000 -0.4827457344
O   O72       1.0  0.69280  0.61951  0.13375  1.0000 -0.4827457344
O   O73       1.0  0.07330  0.93166  0.21220  1.0000 -0.4895631423
O   O74       1.0  0.92670  0.43166  0.28780  1.0000 -0.4895631423
O   O75       1.0  0.42670  0.06834  0.71220  1.0000 -0.4895631423
O   O76       1.0  0.57330  0.56834  0.78780  1.0000 -0.4895631423
O   O77       1.0  0.92670  0.06834  0.78780  1.0000 -0.4895631423
O   O78       1.0  0.07330  0.56834  0.71220  1.0000 -0.4895631423
O   O79       1.0  0.57330  0.93166  0.28780  1.0000 -0.4895631423
O   O80       1.0  0.42670  0.43166  0.21220  1.0000 -0.4895631423
