# DDEC6 charges by PACMAN v1.1 (https://github.com/mtap-research/PACMAN-charge/)
data_2014[Zn][nan]3[FSR]1
_chemical_formula_sum              "Zn2 H24 C32 N6 O10"
_cell_length_a       7.4083
_cell_length_b       10.89
_cell_length_c       13.632
_cell_angle_alpha    66.67
_cell_angle_beta     78.17
_cell_angle_gamma    71.78

_symmetry_space_group_name_H-M    "P 1"
_symmetry_Int_Tables_number       1

loop_
  _symmetry_equiv_pos_as_xyz
  'x, y, z'

loop_
  _atom_site_type_symbol
  _atom_site_label
  _atom_site_symmetry_multiplicity
  _atom_site_fract_x
  _atom_site_fract_y
  _atom_site_fract_z
  _atom_site_occupancy
  _atom_site_charge
Zn  Zn1       1.0  0.00000  0.50000  0.00000  1.0000 0.6791356539
Zn  Zn2       1.0  0.50000  0.00000  0.00000  1.0000 0.8316618537
H   H1        1.0  0.95410  0.29380  0.23130  1.0000 0.1230738074
H   H2        1.0  0.04590  0.70620  0.76870  1.0000 0.1230738074
H   H3        1.0  0.99180  0.67870  0.12450  1.0000 0.1109957325
H   H4        1.0  0.00820  0.32130  0.87550  1.0000 0.1109957325
H   H5        1.0  0.95260  0.27390  0.40700  1.0000 0.1302096134
H   H6        1.0  0.04740  0.72610  0.59300  1.0000 0.1302096134
H   H7        1.0  0.99950  0.66960  0.29590  1.0000 0.1302096134
H   H8        1.0  0.00050  0.33040  0.70410  1.0000 0.1302096134
H   H9        1.0  0.86700  0.90600  0.98800  1.0000 0.3932691848
H   H10       1.0  0.13300  0.09400  0.01200  1.0000 0.3932691848
H   H11       1.0  0.81700  0.03100  0.01400  1.0000 0.3818886017
H   H12       1.0  0.18300  0.96900  0.98600  1.0000 0.3818886017
H   H13       1.0  0.97780  0.36690  0.53830  1.0000 0.1109957325
H   H14       1.0  0.02220  0.63310  0.46170  1.0000 0.1109957325
H   H15       1.0  0.39570  0.72360  0.13550  1.0000 0.1109957325
H   H16       1.0  0.60430  0.27640  0.86450  1.0000 0.1035192917
H   H17       1.0  0.60350  0.95500  0.22040  1.0000 0.1230738074
H   H18       1.0  0.39650  0.04500  0.77960  1.0000 0.1230738074
H   H19       1.0  0.40120  0.55950  0.30750  1.0000 0.1230738074
H   H20       1.0  0.59880  0.44050  0.69250  1.0000 0.1230738074
H   H21       1.0  0.59900  0.80400  0.39710  1.0000 0.1302096134
H   H22       1.0  0.40100  0.19600  0.60290  1.0000 0.1302096134
H   H23       1.0  0.52140  0.59710  0.53700  1.0000 0.1109957325
H   H24       1.0  0.47860  0.40290  0.46300  1.0000 0.1109957325
C   C1        1.0  0.65930  0.72760  0.95287  1.0000 0.5411234831
C   C2        1.0  0.34070  0.27240  0.04713  1.0000 0.5411234831
C   C3        1.0  0.61390  0.37090  0.04385  1.0000 0.0876987165
C   C4        1.0  0.38610  0.62910  0.95615  1.0000 0.0876987165
C   C5        1.0  0.57640  0.60710  0.97337  1.0000 0.0453436149
C   C6        1.0  0.42360  0.39290  0.02663  1.0000 0.0453436149
C   C7        1.0  0.96360  0.37060  0.24480  1.0000 0.1035192917
C   C8        1.0  0.03640  0.62940  0.75520  1.0000 0.1035192917
C   C9        1.0  0.98660  0.59490  0.18300  1.0000 0.0839227771
C   C10       1.0  0.01340  0.40510  0.81700  1.0000 0.0839227771
C   C11       1.0  0.74670  0.22820  0.09390  1.0000 0.546573106
C   C12       1.0  0.25330  0.77180  0.90610  1.0000 0.546573106
C   C13       1.0  0.96430  0.35780  0.35020  1.0000 -0.2025601903
C   C14       1.0  0.03570  0.64220  0.64980  1.0000 -0.2025601903
C   C15       1.0  0.99080  0.59070  0.28510  1.0000 -0.2025601903
C   C16       1.0  0.00920  0.40930  0.71490  1.0000 -0.2025601903
C   C17       1.0  0.98210  0.46740  0.37330  1.0000 0.1512928417
C   C18       1.0  0.01790  0.53260  0.62670  1.0000 0.1512928417
C   C19       1.0  0.98940  0.45260  0.48400  1.0000 -0.1457304994
C   C20       1.0  0.01060  0.54740  0.51600  1.0000 -0.1457304994
C   C21       1.0  0.44090  0.73840  0.18920  1.0000 0.0876987165
C   C22       1.0  0.55910  0.26160  0.81080  1.0000 0.0876987165
C   C23       1.0  0.56000  0.87470  0.23870  1.0000 0.1109957325
C   C24       1.0  0.44000  0.12530  0.76130  1.0000 0.1109957325
C   C25       1.0  0.44160  0.64040  0.29210  1.0000 -0.2025601903
C   C26       1.0  0.55840  0.35960  0.70790  1.0000 -0.2025601903
C   C27       1.0  0.56000  0.78370  0.34420  1.0000 -0.2025601903
C   C28       1.0  0.44000  0.21630  0.65580  1.0000 -0.2025601903
C   C29       1.0  0.50260  0.66200  0.37320  1.0000 0.1512928417
C   C30       1.0  0.49740  0.33800  0.62680  1.0000 0.1512928417
C   C31       1.0  0.50720  0.56560  0.48390  1.0000 -0.1457304994
C   C32       1.0  0.49280  0.43440  0.51610  1.0000 -0.1457304994
N   N1        1.0  0.68910  0.47920  0.01587  1.0000 -0.2446704621
N   N2        1.0  0.31090  0.52080  0.98413  1.0000 -0.2446704621
N   N3        1.0  0.97560  0.48660  0.16161  1.0000 -0.2137356216
N   N4        1.0  0.02440  0.51340  0.83839  1.0000 -0.2137356216
N   N5        1.0  0.50090  0.85360  0.16128  1.0000 -0.2314179802
N   N6        1.0  0.49910  0.14640  0.83872  1.0000 -0.2314179802
O   O1        1.0  0.83510  0.70163  0.95828  1.0000 -0.5062050486
O   O2        1.0  0.16490  0.29837  0.04172  1.0000 -0.5062050486
O   O3        1.0  0.54020  0.84233  0.93736  1.0000 -0.5226664806
O   O4        1.0  0.45980  0.15767  0.06264  1.0000 -0.5226664806
O   O5        1.0  0.85960  0.18140  0.02686  1.0000 -0.5698765779
O   O6        1.0  0.14040  0.81860  0.97314  1.0000 -0.5698765779
O   O7        1.0  0.73600  0.17640  0.19354  1.0000 -0.5698765779
O   O8        1.0  0.26400  0.82360  0.80646  1.0000 -0.5698765779
O   O9        1.0  0.78620  0.97700  0.99340  1.0000 -0.6799621249
O   O10       1.0  0.21380  0.02300  0.00660  1.0000 -0.6799621249
