# DDEC6 charges by PACMAN v1.1 (https://github.com/mtap-research/PACMAN-charge/)
data_2014[Co][hms]3[FSR]1
_chemical_formula_sum              "Co8 H168 C248 N40 O32"
_cell_length_a       17.311
_cell_length_b       20.119
_cell_length_c       20.365
_cell_angle_alpha    90
_cell_angle_beta     103.166
_cell_angle_gamma    90

_symmetry_space_group_name_H-M    "P 1"
_symmetry_Int_Tables_number       1

loop_
  _symmetry_equiv_pos_as_xyz
  'x, y, z'

loop_
  _atom_site_type_symbol
  _atom_site_label
  _atom_site_symmetry_multiplicity
  _atom_site_fract_x
  _atom_site_fract_y
  _atom_site_fract_z
  _atom_site_occupancy
  _atom_site_charge
Co  Co1       1.0  0.26328  0.13550  0.87510  1.0000 0.7359267871
Co  Co2       1.0  0.23672  0.63550  0.12490  1.0000 0.7359267871
Co  Co3       1.0  0.25581  0.12816  0.38409  1.0000 0.7734374355
Co  Co4       1.0  0.24419  0.62816  0.61591  1.0000 0.7734374355
Co  Co5       1.0  0.73672  0.86450  0.12490  1.0000 0.7359267871
Co  Co6       1.0  0.76328  0.36450  0.87510  1.0000 0.7359267871
Co  Co7       1.0  0.74419  0.87184  0.61591  1.0000 0.7734374355
Co  Co8       1.0  0.75581  0.37184  0.38409  1.0000 0.7734374355
H   H1        1.0  0.40000  0.23390  0.84020  1.0000 0.1208980766
H   H2        1.0  0.10000  0.73390  0.15980  1.0000 0.1208980766
H   H3        1.0  0.53750  0.24560  0.90510  1.0000 0.1305225406
H   H4        1.0  0.96250  0.74560  0.09490  1.0000 0.1305225406
H   H5        1.0  0.42830  0.10550  0.98600  1.0000 0.1208980766
H   H6        1.0  0.07170  0.60550  0.01400  1.0000 0.1208980766
H   H7        1.0  0.61190  0.25660  0.02290  1.0000 0.1383151165
H   H8        1.0  0.88810  0.75660  0.97710  1.0000 0.1383151165
H   H9        1.0  0.72550  0.24170  0.10480  1.0000 0.1305225406
H   H10       1.0  0.77450  0.74170  0.89520  1.0000 0.1305225406
H   H11       1.0  0.68050  0.04670  0.10960  1.0000 0.1305225406
H   H12       1.0  0.81950  0.54670  0.89040  1.0000 0.1305225406
H   H13       1.0  0.56910  0.06120  0.02500  1.0000 0.1305225406
H   H14       1.0  0.93090  0.56120  0.97500  1.0000 0.1305225406
H   H15       1.0  0.78140  0.22350  0.21580  1.0000 0.1208980766
H   H16       1.0  0.71860  0.72350  0.78420  1.0000 0.1208980766
H   H17       1.0  0.89610  0.21510  0.29800  1.0000 0.1208980766
H   H18       1.0  0.60390  0.71510  0.70200  1.0000 0.1208980766
H   H19       1.0  0.93920  0.03750  0.22620  1.0000 0.1208980766
H   H20       1.0  0.56080  0.53750  0.77380  1.0000 0.1208980766
H   H21       1.0  0.82380  0.04550  0.14360  1.0000 0.1208980766
H   H22       1.0  0.67620  0.54550  0.85640  1.0000 0.1208980766
H   H23       1.0  0.08680  0.10470  0.27060  1.0000 0.1208980766
H   H24       1.0  0.41320  0.60470  0.72940  1.0000 0.1208980766
H   H25       1.0  0.11030  0.14680  0.46090  1.0000 0.1208980766
H   H26       1.0  0.38970  0.64680  0.53910  1.0000 0.1208980766
H   H27       1.0  0.96880  0.14960  0.40870  1.0000 0.1208980766
H   H28       1.0  0.53120  0.64960  0.59130  1.0000 0.1208980766
H   H29       1.0  0.10000  0.15760  0.75930  1.0000 0.1208980766
H   H30       1.0  0.40000  0.65760  0.24070  1.0000 0.1208980766
H   H31       1.0  0.11380  0.07750  0.93240  1.0000 0.1208980766
H   H32       1.0  0.38620  0.57750  0.06760  1.0000 0.1208980766
H   H33       1.0  0.97730  0.06870  0.87120  1.0000 0.1383151165
H   H34       1.0  0.52270  0.56870  0.12880  1.0000 0.1383151165
H   H35       1.0  0.93910  0.22420  0.73530  1.0000 0.1305225406
H   H36       1.0  0.56090  0.72420  0.26470  1.0000 0.1305225406
H   H37       1.0  0.82380  0.23080  0.65330  1.0000 0.1208980766
H   H38       1.0  0.67620  0.73080  0.34670  1.0000 0.1208980766
H   H39       1.0  0.80520  0.03340  0.65240  1.0000 0.1208980766
H   H40       1.0  0.69480  0.53340  0.34760  1.0000 0.1208980766
H   H41       1.0  0.91920  0.02710  0.73650  1.0000 0.1208980766
H   H42       1.0  0.58080  0.52710  0.26350  1.0000 0.1208980766
H   H43       1.0  0.74030  0.22430  0.55290  1.0000 0.1208980766
H   H44       1.0  0.75970  0.72430  0.44710  1.0000 0.1208980766
H   H45       1.0  0.62450  0.22750  0.47180  1.0000 0.1208980766
H   H46       1.0  0.87550  0.72750  0.52820  1.0000 0.1208980766
H   H47       1.0  0.56230  0.05100  0.53500  1.0000 0.1305225406
H   H48       1.0  0.93770  0.55100  0.46500  1.0000 0.1305225406
H   H49       1.0  0.67910  0.04870  0.61690  1.0000 0.1208980766
H   H50       1.0  0.82090  0.54870  0.38310  1.0000 0.1208980766
H   H51       1.0  0.53770  0.17680  0.35860  1.0000 0.1208980766
H   H52       1.0  0.96230  0.67680  0.64140  1.0000 0.1208980766
H   H53       1.0  0.39740  0.16720  0.30730  1.0000 0.1208980766
H   H54       1.0  0.10260  0.66720  0.69270  1.0000 0.1208980766
H   H55       1.0  0.42640  0.11100  0.49440  1.0000 0.1208980766
H   H56       1.0  0.07360  0.61100  0.50560  1.0000 0.1208980766
H   H57       1.0  0.27780  0.13150  0.63810  1.0000 0.1208980766
H   H58       1.0  0.22220  0.63150  0.36190  1.0000 0.1208980766
H   H59       1.0  0.27440  0.95710  0.73230  1.0000 0.1104337487
H   H60       1.0  0.22560  0.45710  0.26770  1.0000 0.1104337487
H   H61       1.0  0.26290  0.96120  0.53410  1.0000 0.1208980766
H   H62       1.0  0.23710  0.46120  0.46590  1.0000 0.1104337487
H   H63       1.0  0.35190  0.85220  0.70990  1.0000 0.1305225406
H   H64       1.0  0.14810  0.35220  0.29010  1.0000 0.1305225406
H   H65       1.0  0.34150  0.73980  0.70150  1.0000 0.102675371
H   H66       1.0  0.15850  0.23980  0.29850  1.0000 0.102675371
H   H67       1.0  0.16370  0.75290  0.54530  1.0000 0.102675371
H   H68       1.0  0.33630  0.25290  0.45470  1.0000 0.102675371
H   H69       1.0  0.17170  0.86590  0.54810  1.0000 0.1305225406
H   H70       1.0  0.32830  0.36590  0.45190  1.0000 0.1305225406
H   H71       1.0  0.26470  0.96960  0.22800  1.0000 0.1104337487
H   H72       1.0  0.23530  0.46960  0.77200  1.0000 0.1104337487
H   H73       1.0  0.28560  0.96880  0.03610  1.0000 0.1104337487
H   H74       1.0  0.21440  0.46880  0.96390  1.0000 0.1104337487
H   H75       1.0  0.26220  0.14100  0.12800  1.0000 0.1208980766
H   H76       1.0  0.23780  0.64100  0.87200  1.0000 0.1208980766
H   H77       1.0  0.28240  0.86770  0.23100  1.0000 0.1208980766
H   H78       1.0  0.21760  0.36770  0.76900  1.0000 0.1208980766
H   H79       1.0  0.27590  0.75580  0.22820  1.0000 0.1104337487
H   H80       1.0  0.22410  0.25580  0.77180  1.0000 0.1104337487
H   H81       1.0  0.25720  0.75530  0.03700  1.0000 0.1104337487
H   H82       1.0  0.24280  0.25530  0.96300  1.0000 0.1104337487
H   H83       1.0  0.26810  0.86750  0.03520  1.0000 0.1208980766
H   H84       1.0  0.23190  0.36750  0.96480  1.0000 0.1208980766
H   H85       1.0  0.60000  0.76610  0.15980  1.0000 0.1208980766
H   H86       1.0  0.90000  0.26610  0.84020  1.0000 0.1208980766
H   H87       1.0  0.46250  0.75440  0.09490  1.0000 0.1305225406
H   H88       1.0  0.03750  0.25440  0.90510  1.0000 0.1305225406
H   H89       1.0  0.57170  0.89450  0.01400  1.0000 0.1208980766
H   H90       1.0  0.92830  0.39450  0.98600  1.0000 0.1208980766
H   H91       1.0  0.38810  0.74340  0.97710  1.0000 0.1383151165
H   H92       1.0  0.11190  0.24340  0.02290  1.0000 0.1383151165
H   H93       1.0  0.27450  0.75830  0.89520  1.0000 0.1305225406
H   H94       1.0  0.22550  0.25830  0.10480  1.0000 0.1305225406
H   H95       1.0  0.31950  0.95330  0.89040  1.0000 0.1305225406
H   H96       1.0  0.18050  0.45330  0.10960  1.0000 0.1305225406
H   H97       1.0  0.43090  0.93880  0.97500  1.0000 0.1305225406
H   H98       1.0  0.06910  0.43880  0.02500  1.0000 0.1305225406
H   H99       1.0  0.21860  0.77650  0.78420  1.0000 0.1208980766
H   H100      1.0  0.28140  0.27650  0.21580  1.0000 0.1208980766
H   H101      1.0  0.10390  0.78490  0.70200  1.0000 0.1208980766
H   H102      1.0  0.39610  0.28490  0.29800  1.0000 0.1208980766
H   H103      1.0  0.06080  0.96250  0.77380  1.0000 0.1208980766
H   H104      1.0  0.43920  0.46250  0.22620  1.0000 0.1208980766
H   H105      1.0  0.17620  0.95450  0.85640  1.0000 0.1208980766
H   H106      1.0  0.32380  0.45450  0.14360  1.0000 0.1208980766
H   H107      1.0  0.91320  0.89530  0.72940  1.0000 0.1208980766
H   H108      1.0  0.58680  0.39530  0.27060  1.0000 0.1208980766
H   H109      1.0  0.88970  0.85320  0.53910  1.0000 0.1208980766
H   H110      1.0  0.61030  0.35320  0.46090  1.0000 0.1208980766
H   H111      1.0  0.03120  0.85040  0.59130  1.0000 0.1208980766
H   H112      1.0  0.46880  0.35040  0.40870  1.0000 0.1208980766
H   H113      1.0  0.90000  0.84240  0.24070  1.0000 0.1208980766
H   H114      1.0  0.60000  0.34240  0.75930  1.0000 0.1208980766
H   H115      1.0  0.88620  0.92250  0.06760  1.0000 0.1208980766
H   H116      1.0  0.61380  0.42250  0.93240  1.0000 0.1208980766
H   H117      1.0  0.02270  0.93130  0.12880  1.0000 0.1383151165
H   H118      1.0  0.47730  0.43130  0.87120  1.0000 0.1383151165
H   H119      1.0  0.06090  0.77580  0.26470  1.0000 0.1305225406
H   H120      1.0  0.43910  0.27580  0.73530  1.0000 0.1305225406
H   H121      1.0  0.17620  0.76920  0.34670  1.0000 0.1208980766
H   H122      1.0  0.32380  0.26920  0.65330  1.0000 0.1208980766
H   H123      1.0  0.19480  0.96660  0.34760  1.0000 0.1208980766
H   H124      1.0  0.30520  0.46660  0.65240  1.0000 0.1208980766
H   H125      1.0  0.08080  0.97290  0.26350  1.0000 0.1208980766
H   H126      1.0  0.41920  0.47290  0.73650  1.0000 0.1208980766
H   H127      1.0  0.25970  0.77570  0.44710  1.0000 0.1208980766
H   H128      1.0  0.24030  0.27570  0.55290  1.0000 0.1208980766
H   H129      1.0  0.37550  0.77250  0.52820  1.0000 0.1208980766
H   H130      1.0  0.12450  0.27250  0.47180  1.0000 0.1208980766
H   H131      1.0  0.43770  0.94900  0.46500  1.0000 0.1305225406
H   H132      1.0  0.06230  0.44900  0.53500  1.0000 0.1305225406
H   H133      1.0  0.32090  0.95130  0.38310  1.0000 0.1208980766
H   H134      1.0  0.17910  0.45130  0.61690  1.0000 0.1208980766
H   H135      1.0  0.46230  0.82320  0.64140  1.0000 0.1208980766
H   H136      1.0  0.03770  0.32320  0.35860  1.0000 0.1208980766
H   H137      1.0  0.60260  0.83280  0.69270  1.0000 0.1208980766
H   H138      1.0  0.89740  0.33280  0.30730  1.0000 0.1208980766
H   H139      1.0  0.57360  0.88900  0.50560  1.0000 0.1208980766
H   H140      1.0  0.92640  0.38900  0.49440  1.0000 0.1208980766
H   H141      1.0  0.72220  0.86850  0.36190  1.0000 0.1208980766
H   H142      1.0  0.77780  0.36850  0.63810  1.0000 0.1208980766
H   H143      1.0  0.72560  0.04290  0.26770  1.0000 0.1104337487
H   H144      1.0  0.77440  0.54290  0.73230  1.0000 0.1104337487
H   H145      1.0  0.73710  0.03880  0.46590  1.0000 0.1104337487
H   H146      1.0  0.76290  0.53880  0.53410  1.0000 0.1208980766
H   H147      1.0  0.64810  0.14780  0.29010  1.0000 0.1305225406
H   H148      1.0  0.85190  0.64780  0.70990  1.0000 0.1305225406
H   H149      1.0  0.65850  0.26020  0.29850  1.0000 0.102675371
H   H150      1.0  0.84150  0.76020  0.70150  1.0000 0.102675371
H   H151      1.0  0.83630  0.24710  0.45470  1.0000 0.102675371
H   H152      1.0  0.66370  0.74710  0.54530  1.0000 0.102675371
H   H153      1.0  0.82830  0.13410  0.45190  1.0000 0.1305225406
H   H154      1.0  0.67170  0.63410  0.54810  1.0000 0.1305225406
H   H155      1.0  0.73530  0.03040  0.77200  1.0000 0.1104337487
H   H156      1.0  0.76470  0.53040  0.22800  1.0000 0.1104337487
H   H157      1.0  0.71440  0.03120  0.96390  1.0000 0.1104337487
H   H158      1.0  0.78560  0.53120  0.03610  1.0000 0.1104337487
H   H159      1.0  0.73780  0.85900  0.87200  1.0000 0.1208980766
H   H160      1.0  0.76220  0.35900  0.12800  1.0000 0.1208980766
H   H161      1.0  0.71760  0.13230  0.76900  1.0000 0.1208980766
H   H162      1.0  0.78240  0.63230  0.23100  1.0000 0.1208980766
H   H163      1.0  0.72410  0.24420  0.77180  1.0000 0.1104337487
H   H164      1.0  0.77590  0.74420  0.22820  1.0000 0.1104337487
H   H165      1.0  0.74280  0.24470  0.96300  1.0000 0.1104337487
H   H166      1.0  0.75720  0.74470  0.03700  1.0000 0.1104337487
H   H167      1.0  0.73190  0.13250  0.96480  1.0000 0.1208980766
H   H168      1.0  0.76810  0.63250  0.03520  1.0000 0.1208980766
C   C1        1.0  0.42330  0.20880  0.87780  1.0000 -0.0205462103
C   C2        1.0  0.07670  0.70880  0.12220  1.0000 -0.0205462103
C   C3        1.0  0.49970  0.21580  0.91340  1.0000 -0.1176595871
C   C4        1.0  0.00030  0.71580  0.08660  1.0000 -0.1176595871
C   C5        1.0  0.43840  0.13844  0.95709  1.0000 0.1208980766
C   C6        1.0  0.06160  0.63844  0.04291  1.0000 0.1208980766
C   C7        1.0  0.57840  0.15968  0.01646  1.0000 0.1484811853
C   C8        1.0  0.92160  0.65968  0.98354  1.0000 0.1484811853
C   C9        1.0  0.62600  0.21439  0.04018  1.0000 -0.1728350638
C   C10       1.0  0.87400  0.71439  0.95982  1.0000 -0.1728350638
C   C11       1.0  0.69370  0.20518  0.08927  1.0000 -0.1122545652
C   C12       1.0  0.80630  0.70518  0.91073  1.0000 -0.1122545652
C   C13       1.0  0.71650  0.14298  0.11666  1.0000 0.0610889232
C   C14       1.0  0.78350  0.64298  0.88334  1.0000 0.0610889232
C   C15       1.0  0.66740  0.08893  0.09196  1.0000 -0.1122545652
C   C16       1.0  0.83260  0.58893  0.90804  1.0000 -0.1122545652
C   C17       1.0  0.60020  0.09777  0.04190  1.0000 -0.1807813223
C   C18       1.0  0.89980  0.59777  0.95810  1.0000 -0.1807813223
C   C19       1.0  0.79040  0.13557  0.17016  1.0000 0.0610889232
C   C20       1.0  0.70960  0.63557  0.82984  1.0000 0.0610889232
C   C21       1.0  0.81320  0.18600  0.21752  1.0000 -0.1176595871
C   C22       1.0  0.68680  0.68600  0.78248  1.0000 -0.1176595871
C   C23       1.0  0.88190  0.18114  0.26660  1.0000 -0.1807813223
C   C24       1.0  0.61810  0.68114  0.73340  1.0000 -0.1807813223
C   C25       1.0  0.93010  0.12610  0.26951  1.0000 0.1484811853
C   C26       1.0  0.56990  0.62610  0.73049  1.0000 0.1484811853
C   C27       1.0  0.90760  0.07521  0.22380  1.0000 -0.1807813223
C   C28       1.0  0.59240  0.57521  0.77620  1.0000 -0.1807813223
C   C29       1.0  0.83830  0.08000  0.17434  1.0000 -0.1122545652
C   C30       1.0  0.66170  0.58000  0.82566  1.0000 -0.1122545652
C   C31       1.0  0.07530  0.11464  0.31195  1.0000 0.102675371
C   C32       1.0  0.42470  0.61464  0.68805  1.0000 0.102675371
C   C33       1.0  0.08790  0.13800  0.41570  1.0000 -0.0325428632
C   C34       1.0  0.41210  0.63800  0.58430  1.0000 -0.0325428632
C   C35       1.0  0.00940  0.13950  0.38730  1.0000 -0.1176595871
C   C36       1.0  0.49060  0.63950  0.61270  1.0000 -0.1176595871
C   C37       1.0  0.08600  0.13630  0.79540  1.0000 0.1104337487
C   C38       1.0  0.41400  0.63630  0.20460  1.0000 0.1104337487
C   C39       1.0  0.09410  0.09250  0.88860  1.0000 -0.0205462103
C   C40       1.0  0.40590  0.59250  0.11140  1.0000 -0.0205462103
C   C41       1.0  0.01830  0.08860  0.85560  1.0000 -0.1122545652
C   C42       1.0  0.48170  0.58860  0.14440  1.0000 -0.1122545652
C   C43       1.0  0.94130  0.12468  0.74334  1.0000 0.1383151165
C   C44       1.0  0.55870  0.62468  0.25666  1.0000 0.1383151165
C   C45       1.0  0.91190  0.18560  0.71890  1.0000 -0.1807813223
C   C46       1.0  0.58810  0.68560  0.28110  1.0000 -0.1807813223
C   C47       1.0  0.84260  0.18950  0.67010  1.0000 -0.1257282805
C   C48       1.0  0.65740  0.68950  0.32990  1.0000 -0.1257282805
C   C49       1.0  0.79970  0.13238  0.64547  1.0000 0.0610889232
C   C50       1.0  0.70030  0.63238  0.35453  1.0000 0.0610889232
C   C51       1.0  0.83100  0.07230  0.66970  1.0000 -0.1122545652
C   C52       1.0  0.66900  0.57230  0.33030  1.0000 -0.1122545652
C   C53       1.0  0.90040  0.06830  0.71940  1.0000 -0.1728350638
C   C54       1.0  0.59960  0.56830  0.28060  1.0000 -0.1728350638
C   C55       1.0  0.72320  0.13577  0.59417  1.0000 0.0533605858
C   C56       1.0  0.77680  0.63577  0.40583  1.0000 0.0533605858
C   C57       1.0  0.70460  0.18930  0.54960  1.0000 -0.1176595871
C   C58       1.0  0.79540  0.68930  0.45040  1.0000 -0.1176595871
C   C59       1.0  0.63530  0.19160  0.50130  1.0000 -0.1728350638
C   C60       1.0  0.86470  0.69160  0.49870  1.0000 -0.1728350638
C   C61       1.0  0.58130  0.14002  0.49654  1.0000 0.1484811853
C   C62       1.0  0.91870  0.64002  0.50346  1.0000 0.1484811853
C   C63       1.0  0.59800  0.08610  0.53900  1.0000 -0.1807813223
C   C64       1.0  0.90200  0.58610  0.46100  1.0000 -0.1807813223
C   C65       1.0  0.66840  0.08490  0.58770  1.0000 -0.1122545652
C   C66       1.0  0.83160  0.58490  0.41230  1.0000 -0.1122545652
C   C67       1.0  0.49850  0.16240  0.37980  1.0000 -0.1176595871
C   C68       1.0  0.00150  0.66240  0.62020  1.0000 -0.1176595871
C   C69       1.0  0.42090  0.15720  0.35200  1.0000 -0.0385256533
C   C70       1.0  0.07910  0.65720  0.64800  1.0000 -0.0385256533
C   C71       1.0  0.43630  0.12641  0.45403  1.0000 0.1104337487
C   C72       1.0  0.06370  0.62641  0.54597  1.0000 0.1104337487
C   C73       1.0  0.26910  0.09030  0.51150  1.0000 0.5142422717
C   C74       1.0  0.23090  0.59030  0.48850  1.0000 0.5142422717
C   C75       1.0  0.27130  0.05225  0.57589  1.0000 -0.0103207511
C   C76       1.0  0.22870  0.55225  0.42411  1.0000 -0.0103207511
C   C77       1.0  0.27550  0.08530  0.63692  1.0000 -0.1257282805
C   C78       1.0  0.22450  0.58530  0.36308  1.0000 -0.1257282805
C   C79       1.0  0.27500  0.08519  0.76082  1.0000 0.5199731987
C   C80       1.0  0.22500  0.58519  0.23918  1.0000 0.5199731987
C   C81       1.0  0.27640  0.05014  0.69607  1.0000 -0.0103207511
C   C82       1.0  0.22360  0.55014  0.30393  1.0000 -0.0103207511
C   C83       1.0  0.27300  0.98113  0.69309  1.0000 -0.1525440538
C   C84       1.0  0.22700  0.48113  0.30691  1.0000 -0.1525440538
C   C85       1.0  0.26769  0.94738  0.63289  1.0000 0.0533605858
C   C86       1.0  0.23231  0.44738  0.36711  1.0000 0.0533605858
C   C87       1.0  0.26670  0.98357  0.57473  1.0000 -0.1568085019
C   C88       1.0  0.23330  0.48357  0.42527  1.0000 -0.1525440538
C   C89       1.0  0.26230  0.87351  0.63011  1.0000 0.1208980766
C   C90       1.0  0.23770  0.37351  0.36989  1.0000 0.1208980766
C   C91       1.0  0.31330  0.83327  0.67573  1.0000 -0.209402974
C   C92       1.0  0.18670  0.33327  0.32427  1.0000 -0.209402974
C   C93       1.0  0.30670  0.76557  0.67026  1.0000 0.0804683747
C   C94       1.0  0.19330  0.26557  0.32974  1.0000 0.0804683747
C   C95       1.0  0.20260  0.77306  0.57842  1.0000 0.0804683747
C   C96       1.0  0.29740  0.27306  0.42158  1.0000 0.0804683747
C   C97       1.0  0.20660  0.84112  0.58041  1.0000 -0.209402974
C   C98       1.0  0.29340  0.34112  0.41959  1.0000 -0.209402974
C   C99       1.0  0.24700  0.10047  0.24679  1.0000 0.5301843088
C   C100      1.0  0.25300  0.60047  0.75321  1.0000 0.5301843088
C   C101      1.0  0.26099  0.06167  0.18746  1.0000 -0.0205462103
C   C102      1.0  0.23901  0.56167  0.81254  1.0000 -0.0205462103
C   C103      1.0  0.26648  0.99226  0.18859  1.0000 -0.1568085019
C   C104      1.0  0.23352  0.49226  0.81141  1.0000 -0.1568085019
C   C105      1.0  0.27449  0.95650  0.13228  1.0000 0.0661700245
C   C106      1.0  0.22551  0.45650  0.86772  1.0000 0.0661700245
C   C107      1.0  0.27886  0.99180  0.07402  1.0000 -0.1568085019
C   C108      1.0  0.22114  0.49180  0.92598  1.0000 -0.1568085019
C   C109      1.0  0.27327  0.06083  0.07191  1.0000 -0.0103207511
C   C110      1.0  0.22673  0.56083  0.92809  1.0000 -0.0103207511
C   C111      1.0  0.27090  0.09921  0.00725  1.0000 0.5142422717
C   C112      1.0  0.22910  0.59921  0.99275  1.0000 0.5142422717
C   C113      1.0  0.26506  0.09486  0.12903  1.0000 -0.1257282805
C   C114      1.0  0.23494  0.59486  0.87097  1.0000 -0.1257282805
C   C115      1.0  0.27400  0.88287  0.13295  1.0000 0.1208980766
C   C116      1.0  0.22600  0.38287  0.86705  1.0000 0.1208980766
C   C117      1.0  0.27680  0.84608  0.18980  1.0000 -0.209402974
C   C118      1.0  0.22320  0.34608  0.81020  1.0000 -0.209402974
C   C119      1.0  0.27160  0.77836  0.18770  1.0000 0.0610889232
C   C120      1.0  0.22840  0.27836  0.81230  1.0000 0.0610889232
C   C121      1.0  0.26140  0.77812  0.07738  1.0000 0.0804683747
C   C122      1.0  0.23860  0.27812  0.92262  1.0000 0.0804683747
C   C123      1.0  0.26790  0.84631  0.07568  1.0000 -0.209402974
C   C124      1.0  0.23210  0.34631  0.92432  1.0000 -0.209402974
C   C125      1.0  0.57670  0.79120  0.12220  1.0000 -0.0205462103
C   C126      1.0  0.92330  0.29120  0.87780  1.0000 -0.0205462103
C   C127      1.0  0.50030  0.78420  0.08660  1.0000 -0.1176595871
C   C128      1.0  0.99970  0.28420  0.91340  1.0000 -0.1176595871
C   C129      1.0  0.56160  0.86156  0.04291  1.0000 0.1208980766
C   C130      1.0  0.93840  0.36156  0.95709  1.0000 0.1208980766
C   C131      1.0  0.42160  0.84032  0.98354  1.0000 0.1484811853
C   C132      1.0  0.07840  0.34032  0.01646  1.0000 0.1484811853
C   C133      1.0  0.37400  0.78561  0.95982  1.0000 -0.1728350638
C   C134      1.0  0.12600  0.28561  0.04018  1.0000 -0.1728350638
C   C135      1.0  0.30630  0.79482  0.91073  1.0000 -0.1122545652
C   C136      1.0  0.19370  0.29482  0.08927  1.0000 -0.1122545652
C   C137      1.0  0.28350  0.85702  0.88334  1.0000 0.0610889232
C   C138      1.0  0.21650  0.35702  0.11666  1.0000 0.0610889232
C   C139      1.0  0.33260  0.91107  0.90804  1.0000 -0.1122545652
C   C140      1.0  0.16740  0.41107  0.09196  1.0000 -0.1122545652
C   C141      1.0  0.39980  0.90223  0.95810  1.0000 -0.1807813223
C   C142      1.0  0.10020  0.40223  0.04190  1.0000 -0.1807813223
C   C143      1.0  0.20960  0.86443  0.82984  1.0000 0.0610889232
C   C144      1.0  0.29040  0.36443  0.17016  1.0000 0.0610889232
C   C145      1.0  0.18680  0.81400  0.78248  1.0000 -0.1176595871
C   C146      1.0  0.31320  0.31400  0.21752  1.0000 -0.1176595871
C   C147      1.0  0.11810  0.81886  0.73340  1.0000 -0.1807813223
C   C148      1.0  0.38190  0.31886  0.26660  1.0000 -0.1728350638
C   C149      1.0  0.06990  0.87390  0.73049  1.0000 0.1484811853
C   C150      1.0  0.43010  0.37390  0.26951  1.0000 0.1484811853
C   C151      1.0  0.09240  0.92479  0.77620  1.0000 -0.1807813223
C   C152      1.0  0.40760  0.42479  0.22380  1.0000 -0.1807813223
C   C153      1.0  0.16170  0.92000  0.82566  1.0000 -0.1122545652
C   C154      1.0  0.33830  0.42000  0.17434  1.0000 -0.1122545652
C   C155      1.0  0.92470  0.88536  0.68805  1.0000 0.102675371
C   C156      1.0  0.57530  0.38536  0.31195  1.0000 0.102675371
C   C157      1.0  0.91210  0.86200  0.58430  1.0000 -0.0325428632
C   C158      1.0  0.58790  0.36200  0.41570  1.0000 -0.0325428632
C   C159      1.0  0.99060  0.86050  0.61270  1.0000 -0.1176595871
C   C160      1.0  0.50940  0.36050  0.38730  1.0000 -0.1176595871
C   C161      1.0  0.91400  0.86370  0.20460  1.0000 0.1104337487
C   C162      1.0  0.58600  0.36370  0.79540  1.0000 0.1104337487
C   C163      1.0  0.90590  0.90750  0.11140  1.0000 -0.0205462103
C   C164      1.0  0.59410  0.40750  0.88860  1.0000 -0.0205462103
C   C165      1.0  0.98170  0.91140  0.14440  1.0000 -0.1122545652
C   C166      1.0  0.51830  0.41140  0.85560  1.0000 -0.1122545652
C   C167      1.0  0.05870  0.87532  0.25666  1.0000 0.1383151165
C   C168      1.0  0.44130  0.37532  0.74334  1.0000 0.1383151165
C   C169      1.0  0.08810  0.81440  0.28110  1.0000 -0.1807813223
C   C170      1.0  0.41190  0.31440  0.71890  1.0000 -0.1807813223
C   C171      1.0  0.15740  0.81050  0.32990  1.0000 -0.1257282805
C   C172      1.0  0.34260  0.31050  0.67010  1.0000 -0.1257282805
C   C173      1.0  0.20030  0.86762  0.35453  1.0000 0.0610889232
C   C174      1.0  0.29970  0.36762  0.64547  1.0000 0.0610889232
C   C175      1.0  0.16900  0.92770  0.33030  1.0000 -0.1122545652
C   C176      1.0  0.33100  0.42770  0.66970  1.0000 -0.1122545652
C   C177      1.0  0.09960  0.93170  0.28060  1.0000 -0.1728350638
C   C178      1.0  0.40040  0.43170  0.71940  1.0000 -0.1728350638
C   C179      1.0  0.27680  0.86423  0.40583  1.0000 0.0533605858
C   C180      1.0  0.22320  0.36423  0.59417  1.0000 0.0533605858
C   C181      1.0  0.29540  0.81070  0.45040  1.0000 -0.1176595871
C   C182      1.0  0.20460  0.31070  0.54960  1.0000 -0.1176595871
C   C183      1.0  0.36470  0.80840  0.49870  1.0000 -0.1728350638
C   C184      1.0  0.13530  0.30840  0.50130  1.0000 -0.1728350638
C   C185      1.0  0.41870  0.85998  0.50346  1.0000 0.1484811853
C   C186      1.0  0.08130  0.35998  0.49654  1.0000 0.1484811853
C   C187      1.0  0.40200  0.91390  0.46100  1.0000 -0.1807813223
C   C188      1.0  0.09800  0.41390  0.53900  1.0000 -0.1807813223
C   C189      1.0  0.33160  0.91510  0.41230  1.0000 -0.1122545652
C   C190      1.0  0.16840  0.41510  0.58770  1.0000 -0.1122545652
C   C191      1.0  0.50150  0.83760  0.62020  1.0000 -0.1176595871
C   C192      1.0  0.99850  0.33760  0.37980  1.0000 -0.1176595871
C   C193      1.0  0.57910  0.84280  0.64800  1.0000 -0.0385256533
C   C194      1.0  0.92090  0.34280  0.35200  1.0000 -0.0385256533
C   C195      1.0  0.56370  0.87359  0.54597  1.0000 0.1104337487
C   C196      1.0  0.93630  0.37359  0.45403  1.0000 0.1104337487
C   C197      1.0  0.73090  0.90970  0.48850  1.0000 0.5142422717
C   C198      1.0  0.76910  0.40970  0.51150  1.0000 0.5142422717
C   C199      1.0  0.72870  0.94775  0.42411  1.0000 -0.0103207511
C   C200      1.0  0.77130  0.44775  0.57589  1.0000 -0.0103207511
C   C201      1.0  0.72450  0.91470  0.36308  1.0000 -0.1257282805
C   C202      1.0  0.77550  0.41470  0.63692  1.0000 -0.1257282805
C   C203      1.0  0.72500  0.91481  0.23918  1.0000 0.5199731987
C   C204      1.0  0.77500  0.41481  0.76082  1.0000 0.5199731987
C   C205      1.0  0.72360  0.94986  0.30393  1.0000 -0.0103207511
C   C206      1.0  0.77640  0.44986  0.69607  1.0000 -0.0103207511
C   C207      1.0  0.72700  0.01887  0.30691  1.0000 -0.1525440538
C   C208      1.0  0.77300  0.51887  0.69309  1.0000 -0.1525440538
C   C209      1.0  0.73231  0.05262  0.36711  1.0000 0.0533605858
C   C210      1.0  0.76769  0.55262  0.63289  1.0000 0.0533605858
C   C211      1.0  0.73330  0.01643  0.42527  1.0000 -0.1525440538
C   C212      1.0  0.76670  0.51643  0.57473  1.0000 -0.1568085019
C   C213      1.0  0.73770  0.12649  0.36989  1.0000 0.1208980766
C   C214      1.0  0.76230  0.62649  0.63011  1.0000 0.1208980766
C   C215      1.0  0.68670  0.16673  0.32427  1.0000 -0.209402974
C   C216      1.0  0.81330  0.66667  0.67573  1.0000 -0.209402974
C   C217      1.0  0.69330  0.23443  0.32974  1.0000 0.0804683747
C   C218      1.0  0.80670  0.73443  0.67026  1.0000 0.0804683747
C   C219      1.0  0.79740  0.22694  0.42158  1.0000 0.0804683747
C   C220      1.0  0.70260  0.72694  0.57842  1.0000 0.0804683747
C   C221      1.0  0.79340  0.15888  0.41959  1.0000 -0.209402974
C   C222      1.0  0.70660  0.65888  0.58041  1.0000 -0.209402974
C   C223      1.0  0.75300  0.89953  0.75321  1.0000 0.5301843088
C   C224      1.0  0.74700  0.39953  0.24679  1.0000 0.5301843088
C   C225      1.0  0.73901  0.93833  0.81254  1.0000 -0.0205462103
C   C226      1.0  0.76099  0.43833  0.18746  1.0000 -0.0205462103
C   C227      1.0  0.73352  0.00774  0.81141  1.0000 -0.1568085019
C   C228      1.0  0.76648  0.50774  0.18859  1.0000 -0.1568085019
C   C229      1.0  0.72551  0.04350  0.86772  1.0000 0.0661700245
C   C230      1.0  0.77449  0.54350  0.13228  1.0000 0.0661700245
C   C231      1.0  0.72114  0.00820  0.92598  1.0000 -0.1568085019
C   C232      1.0  0.77886  0.50820  0.07402  1.0000 -0.1568085019
C   C233      1.0  0.72673  0.93917  0.92809  1.0000 -0.0103207511
C   C234      1.0  0.77327  0.43917  0.07191  1.0000 -0.0103207511
C   C235      1.0  0.72910  0.90079  0.99275  1.0000 0.5142422717
C   C236      1.0  0.77090  0.40079  0.00725  1.0000 0.5142422717
C   C237      1.0  0.73494  0.90514  0.87097  1.0000 -0.1257282805
C   C238      1.0  0.76506  0.40514  0.12903  1.0000 -0.1257282805
C   C239      1.0  0.72600  0.11713  0.86705  1.0000 0.1208980766
C   C240      1.0  0.77400  0.61713  0.13295  1.0000 0.1208980766
C   C241      1.0  0.72320  0.15392  0.81020  1.0000 -0.209402974
C   C242      1.0  0.77680  0.65392  0.18980  1.0000 -0.209402974
C   C243      1.0  0.72840  0.22164  0.81230  1.0000 0.0610889232
C   C244      1.0  0.77160  0.72164  0.18770  1.0000 0.0610889232
C   C245      1.0  0.73860  0.22188  0.92262  1.0000 0.0804683747
C   C246      1.0  0.76140  0.72188  0.07738  1.0000 0.0804683747
C   C247      1.0  0.73210  0.15369  0.92432  1.0000 -0.209402974
C   C248      1.0  0.76790  0.65369  0.07568  1.0000 -0.209402974
N   N1        1.0  0.38584  0.16027  0.90468  1.0000 -0.2599328284
N   N2        1.0  0.11416  0.66027  0.09532  1.0000 -0.2599328284
N   N3        1.0  0.50887  0.16933  0.96409  1.0000 0.0016181081
N   N4        1.0  0.99113  0.66933  0.03591  1.0000 0.0016181081
N   N5        1.0  0.00150  0.12323  0.32061  1.0000 0.0016181081
N   N6        1.0  0.49850  0.62323  0.67939  1.0000 0.0016181081
N   N7        1.0  0.12983  0.12187  0.36857  1.0000 -0.2899852891
N   N8        1.0  0.37017  0.62187  0.63143  1.0000 -0.2899852891
N   N9        1.0  0.13710  0.12067  0.85064  1.0000 -0.2599328284
N   N10       1.0  0.36290  0.62067  0.14936  1.0000 -0.2599328284
N   N11       1.0  0.01198  0.11891  0.79545  1.0000 -0.0022061389
N   N12       1.0  0.48802  0.61891  0.20455  1.0000 -0.0022061389
N   N13       1.0  0.50890  0.14246  0.44593  1.0000 -0.0022061389
N   N14       1.0  0.99110  0.64246  0.55407  1.0000 -0.0022061389
N   N15       1.0  0.38084  0.13482  0.39876  1.0000 -0.2899852891
N   N16       1.0  0.11916  0.63482  0.60124  1.0000 -0.2899852891
N   N17       1.0  0.25268  0.73418  0.62229  1.0000 -0.2545676877
N   N18       1.0  0.24732  0.23418  0.37771  1.0000 -0.2545676877
N   N19       1.0  0.26073  0.74264  0.13148  1.0000 -0.2386440237
N   N20       1.0  0.23927  0.24264  0.86852  1.0000 -0.2386440237
N   N21       1.0  0.61416  0.83973  0.09532  1.0000 -0.2599328284
N   N22       1.0  0.88584  0.33973  0.90468  1.0000 -0.2599328284
N   N23       1.0  0.49113  0.83067  0.03591  1.0000 0.0016181081
N   N24       1.0  0.00887  0.33067  0.96409  1.0000 0.0016181081
N   N25       1.0  0.99850  0.87677  0.67939  1.0000 0.0016181081
N   N26       1.0  0.50150  0.37677  0.32061  1.0000 0.0016181081
N   N27       1.0  0.87017  0.87813  0.63143  1.0000 -0.2899852891
N   N28       1.0  0.62983  0.37813  0.36857  1.0000 -0.2899852891
N   N29       1.0  0.86290  0.87933  0.14936  1.0000 -0.2599328284
N   N30       1.0  0.63710  0.37933  0.85064  1.0000 -0.2599328284
N   N31       1.0  0.98802  0.88109  0.20455  1.0000 -0.0022061389
N   N32       1.0  0.51198  0.38109  0.79545  1.0000 -0.0022061389
N   N33       1.0  0.49110  0.85754  0.55407  1.0000 -0.0022061389
N   N34       1.0  0.00890  0.35754  0.44593  1.0000 -0.0022061389
N   N35       1.0  0.61916  0.86518  0.60124  1.0000 -0.2899852891
N   N36       1.0  0.88084  0.36518  0.39876  1.0000 -0.2899852891
N   N37       1.0  0.74732  0.26582  0.37771  1.0000 -0.2545676877
N   N38       1.0  0.75268  0.76582  0.62229  1.0000 -0.2545676877
N   N39       1.0  0.73927  0.25736  0.86852  1.0000 -0.2386440237
N   N40       1.0  0.76073  0.75736  0.13148  1.0000 -0.2386440237
O   O1        1.0  0.26419  0.05763  0.45835  1.0000 -0.5220697571
O   O2        1.0  0.23581  0.55763  0.54165  1.0000 -0.5220697571
O   O3        1.0  0.27190  0.15124  0.51187  1.0000 -0.5510380056
O   O4        1.0  0.22810  0.65124  0.48813  1.0000 -0.5510380056
O   O5        1.0  0.26423  0.14635  0.76035  1.0000 -0.5510380056
O   O6        1.0  0.23577  0.64635  0.23965  1.0000 -0.5510380056
O   O7        1.0  0.28271  0.05274  0.81366  1.0000 -0.5220697571
O   O8        1.0  0.21729  0.55274  0.18634  1.0000 -0.5220697571
O   O9        1.0  0.25637  0.06987  0.30232  1.0000 -0.5510380056
O   O10       1.0  0.24363  0.56987  0.69768  1.0000 -0.5510380056
O   O11       1.0  0.22660  0.15885  0.23860  1.0000 -0.5586573679
O   O12       1.0  0.27340  0.65885  0.76140  1.0000 -0.5586573679
O   O13       1.0  0.27658  0.06829  0.95551  1.0000 -0.5294769008
O   O14       1.0  0.22342  0.56829  0.04449  1.0000 -0.5294769008
O   O15       1.0  0.26230  0.15959  0.00797  1.0000 -0.5510380056
O   O16       1.0  0.23770  0.65959  0.99203  1.0000 -0.5510380056
O   O17       1.0  0.73581  0.94237  0.54165  1.0000 -0.5220697571
O   O18       1.0  0.76419  0.44237  0.45835  1.0000 -0.5220697571
O   O19       1.0  0.72810  0.84876  0.48813  1.0000 -0.5510380056
O   O20       1.0  0.77190  0.34876  0.51187  1.0000 -0.5510380056
O   O21       1.0  0.73577  0.85365  0.23965  1.0000 -0.5510380056
O   O22       1.0  0.76423  0.35365  0.76035  1.0000 -0.5510380056
O   O23       1.0  0.71729  0.94726  0.18634  1.0000 -0.5220697571
O   O24       1.0  0.78271  0.44726  0.81366  1.0000 -0.5220697571
O   O25       1.0  0.74363  0.93013  0.69768  1.0000 -0.5510380056
O   O26       1.0  0.75637  0.43013  0.30232  1.0000 -0.5510380056
O   O27       1.0  0.77340  0.84115  0.76140  1.0000 -0.5586573679
O   O28       1.0  0.72660  0.34115  0.23860  1.0000 -0.5586573679
O   O29       1.0  0.72342  0.93171  0.04449  1.0000 -0.5294769008
O   O30       1.0  0.77658  0.43171  0.95551  1.0000 -0.5294769008
O   O31       1.0  0.73770  0.84041  0.99203  1.0000 -0.5510380056
O   O32       1.0  0.76230  0.34041  0.00797  1.0000 -0.5510380056
