# DDEC6 charges by PACMAN v1.1 (https://github.com/mtap-research/PACMAN-charge/)
data_2014[Co][dia]3[FSR]6
_chemical_formula_sum              "Co8 H176 C224 N32 O40"
_cell_length_a       13.601
_cell_length_b       17.201
_cell_length_c       23.81
_cell_angle_alpha    90
_cell_angle_beta     90
_cell_angle_gamma    90

_symmetry_space_group_name_H-M    "P 1"
_symmetry_Int_Tables_number       1

loop_
  _symmetry_equiv_pos_as_xyz
  'x, y, z'

loop_
  _atom_site_type_symbol
  _atom_site_label
  _atom_site_symmetry_multiplicity
  _atom_site_fract_x
  _atom_site_fract_y
  _atom_site_fract_z
  _atom_site_occupancy
  _atom_site_charge
Co  Co1       1.0  0.48358  0.64805  0.42743  1.0000 0.7586314772
Co  Co2       1.0  0.48358  0.85195  0.07257  1.0000 0.7586314772
Co  Co3       1.0  0.01642  0.35195  0.92743  1.0000 0.7586314772
Co  Co4       1.0  0.01642  0.14805  0.57257  1.0000 0.7586314772
Co  Co5       1.0  0.51642  0.35195  0.57257  1.0000 0.7586314772
Co  Co6       1.0  0.51642  0.14805  0.92743  1.0000 0.7586314772
Co  Co7       1.0  0.98358  0.64805  0.07257  1.0000 0.7586314772
Co  Co8       1.0  0.98358  0.85195  0.42743  1.0000 0.7586314772
H   H1        1.0  0.79840  0.72830  0.51370  1.0000 0.1122995821
H   H2        1.0  0.79840  0.77170  0.98630  1.0000 0.1122995821
H   H3        1.0  0.70160  0.27170  0.01370  1.0000 0.1122995821
H   H4        1.0  0.70160  0.22830  0.48630  1.0000 0.1122995821
H   H5        1.0  0.90300  0.72790  0.59080  1.0000 0.1422282309
H   H6        1.0  0.90300  0.77210  0.90920  1.0000 0.1422282309
H   H7        1.0  0.59700  0.27210  0.09080  1.0000 0.1422282309
H   H8        1.0  0.59700  0.22790  0.40920  1.0000 0.1422282309
H   H9        1.0  0.70590  0.60110  0.67600  1.0000 0.129630736
H   H10       1.0  0.70590  0.89890  0.82400  1.0000 0.129630736
H   H11       1.0  0.79410  0.39890  0.17600  1.0000 0.129630736
H   H12       1.0  0.79410  0.10110  0.32400  1.0000 0.129630736
H   H13       1.0  0.60380  0.60140  0.59850  1.0000 0.1191983787
H   H14       1.0  0.60380  0.89860  0.90150  1.0000 0.1191983787
H   H15       1.0  0.89620  0.39860  0.09850  1.0000 0.1191983787
H   H16       1.0  0.89620  0.10140  0.40150  1.0000 0.1191983787
H   H17       1.0  0.90120  0.68950  0.78790  1.0000 0.1422282309
H   H18       1.0  0.90120  0.81050  0.71210  1.0000 0.1422282309
H   H19       1.0  0.59880  0.31050  0.28790  1.0000 0.1422282309
H   H20       1.0  0.59880  0.18950  0.21210  1.0000 0.1422282309
H   H21       1.0  0.93060  0.60250  0.85880  1.0000 0.1191983787
H   H22       1.0  0.93060  0.89750  0.64120  1.0000 0.1191983787
H   H23       1.0  0.56940  0.39750  0.35880  1.0000 0.1191983787
H   H24       1.0  0.56940  0.10250  0.14120  1.0000 0.1191983787
H   H25       1.0  0.91700  0.42880  0.74620  1.0000 0.1191983787
H   H26       1.0  0.91700  0.07120  0.75380  1.0000 0.1191983787
H   H27       1.0  0.58300  0.57120  0.24620  1.0000 0.1191983787
H   H28       1.0  0.58300  0.92880  0.25380  1.0000 0.1191983787
H   H29       1.0  0.87370  0.52030  0.67490  1.0000 0.1191983787
H   H30       1.0  0.87370  0.97970  0.82510  1.0000 0.1191983787
H   H31       1.0  0.62630  0.47970  0.17490  1.0000 0.1191983787
H   H32       1.0  0.62630  0.02030  0.32510  1.0000 0.1191983787
H   H33       1.0  0.38720  0.55110  0.51890  1.0000 0.129630736
H   H34       1.0  0.38720  0.94890  0.98110  1.0000 0.129630736
H   H35       1.0  0.11280  0.44890  0.01890  1.0000 0.129630736
H   H36       1.0  0.11280  0.05110  0.48110  1.0000 0.129630736
H   H37       1.0  0.13610  0.53270  0.43860  1.0000 0.1191983787
H   H38       1.0  0.13610  0.96730  0.06140  1.0000 0.1191983787
H   H39       1.0  0.36390  0.46730  0.93860  1.0000 0.1191983787
H   H40       1.0  0.36390  0.03270  0.56140  1.0000 0.1191983787
H   H41       1.0  0.24950  0.61170  0.38190  1.0000 0.1191983787
H   H42       1.0  0.24950  0.88830  0.11810  1.0000 0.1191983787
H   H43       1.0  0.25050  0.38830  0.88190  1.0000 0.1191983787
H   H44       1.0  0.25050  0.11170  0.61810  1.0000 0.1191983787
H   H45       1.0  0.15210  0.45360  0.53060  1.0000 0.1191983787
H   H46       1.0  0.15210  0.04640  0.96940  1.0000 0.1191983787
H   H47       1.0  0.34790  0.54640  0.03060  1.0000 0.1191983787
H   H48       1.0  0.34790  0.95360  0.46940  1.0000 0.1191983787
H   H49       1.0  0.25940  0.44230  0.55320  1.0000 0.1191983787
H   H50       1.0  0.25940  0.05770  0.94680  1.0000 0.1191983787
H   H51       1.0  0.24060  0.55770  0.05320  1.0000 0.1191983787
H   H52       1.0  0.24060  0.94230  0.44680  1.0000 0.1191983787
H   H53       1.0  0.15400  0.51740  0.72860  1.0000 0.1191983787
H   H54       1.0  0.15400  0.98260  0.77140  1.0000 0.1191983787
H   H55       1.0  0.34600  0.48260  0.22860  1.0000 0.1191983787
H   H56       1.0  0.34600  0.01740  0.27140  1.0000 0.1191983787
H   H57       1.0  0.12330  0.64990  0.71950  1.0000 0.1122995821
H   H58       1.0  0.12330  0.85010  0.78050  1.0000 0.1122995821
H   H59       1.0  0.37670  0.35010  0.21950  1.0000 0.1122995821
H   H60       1.0  0.37670  0.14990  0.28050  1.0000 0.1122995821
H   H61       1.0  0.12480  0.70650  0.63150  1.0000 0.1122995821
H   H62       1.0  0.12480  0.79350  0.86850  1.0000 0.1122995821
H   H63       1.0  0.37520  0.29350  0.13150  1.0000 0.1122995821
H   H64       1.0  0.37520  0.20650  0.36850  1.0000 0.1122995821
H   H65       1.0  0.16790  0.63220  0.55400  1.0000 0.1122995821
H   H66       1.0  0.16790  0.86780  0.94600  1.0000 0.1122995821
H   H67       1.0  0.33210  0.36780  0.05400  1.0000 0.1122995821
H   H68       1.0  0.33210  0.13220  0.44600  1.0000 0.1122995821
H   H69       1.0  0.20740  0.39880  0.69460  1.0000 0.129630736
H   H70       1.0  0.20740  0.10120  0.80540  1.0000 0.129630736
H   H71       1.0  0.29260  0.60120  0.19460  1.0000 0.129630736
H   H72       1.0  0.29260  0.89880  0.30540  1.0000 0.129630736
H   H73       1.0  0.26510  0.39720  0.63750  1.0000 0.129630736
H   H74       1.0  0.26510  0.10280  0.86250  1.0000 0.129630736
H   H75       1.0  0.23490  0.60280  0.13750  1.0000 0.129630736
H   H76       1.0  0.23490  0.89720  0.36250  1.0000 0.129630736
H   H77       1.0  0.19540  0.26550  0.60570  1.0000 0.1191983787
H   H78       1.0  0.19540  0.23450  0.89430  1.0000 0.1191983787
H   H79       1.0  0.30460  0.73450  0.10570  1.0000 0.1191983787
H   H80       1.0  0.30460  0.76550  0.39430  1.0000 0.1191983787
H   H81       1.0  0.91710  0.31150  0.59850  1.0000 0.1191983787
H   H82       1.0  0.91710  0.18850  0.90150  1.0000 0.1191983787
H   H83       1.0  0.58290  0.68850  0.09850  1.0000 0.1191983787
H   H84       1.0  0.58290  0.81150  0.40150  1.0000 0.1191983787
H   H85       1.0  0.99940  0.42330  0.64110  1.0000 0.1191983787
H   H86       1.0  0.99940  0.07670  0.85890  1.0000 0.1191983787
H   H87       1.0  0.50060  0.57670  0.14110  1.0000 0.1191983787
H   H88       1.0  0.50060  0.92330  0.35890  1.0000 0.1191983787
H   H89       1.0  0.20160  0.27170  0.48630  1.0000 0.1122995821
H   H90       1.0  0.20160  0.22830  0.01370  1.0000 0.1122995821
H   H91       1.0  0.29840  0.72830  0.98630  1.0000 0.1122995821
H   H92       1.0  0.29840  0.77170  0.51370  1.0000 0.1122995821
H   H93       1.0  0.09700  0.27210  0.40920  1.0000 0.1422282309
H   H94       1.0  0.09700  0.22790  0.09080  1.0000 0.1422282309
H   H95       1.0  0.40300  0.72790  0.90920  1.0000 0.1422282309
H   H96       1.0  0.40300  0.77210  0.59080  1.0000 0.1422282309
H   H97       1.0  0.29410  0.39890  0.32400  1.0000 0.129630736
H   H98       1.0  0.29410  0.10110  0.17600  1.0000 0.129630736
H   H99       1.0  0.20590  0.60110  0.82400  1.0000 0.129630736
H   H100      1.0  0.20590  0.89890  0.67600  1.0000 0.129630736
H   H101      1.0  0.39620  0.39860  0.40150  1.0000 0.1191983787
H   H102      1.0  0.39620  0.10140  0.09850  1.0000 0.1191983787
H   H103      1.0  0.10380  0.60140  0.90150  1.0000 0.1191983787
H   H104      1.0  0.10380  0.89860  0.59850  1.0000 0.1191983787
H   H105      1.0  0.09880  0.31050  0.21210  1.0000 0.1422282309
H   H106      1.0  0.09880  0.18950  0.28790  1.0000 0.1422282309
H   H107      1.0  0.40120  0.68950  0.71210  1.0000 0.1422282309
H   H108      1.0  0.40120  0.81050  0.78790  1.0000 0.1422282309
H   H109      1.0  0.06940  0.39750  0.14120  1.0000 0.1191983787
H   H110      1.0  0.06940  0.10250  0.35880  1.0000 0.1191983787
H   H111      1.0  0.43060  0.60250  0.64120  1.0000 0.1191983787
H   H112      1.0  0.43060  0.89750  0.85880  1.0000 0.1191983787
H   H113      1.0  0.08300  0.57120  0.25380  1.0000 0.1191983787
H   H114      1.0  0.08300  0.92880  0.24620  1.0000 0.1191983787
H   H115      1.0  0.41700  0.42880  0.75380  1.0000 0.1191983787
H   H116      1.0  0.41700  0.07120  0.74620  1.0000 0.1191983787
H   H117      1.0  0.12630  0.47970  0.32510  1.0000 0.1191983787
H   H118      1.0  0.12630  0.02030  0.17490  1.0000 0.1191983787
H   H119      1.0  0.37370  0.52030  0.82510  1.0000 0.1191983787
H   H120      1.0  0.37370  0.97970  0.67490  1.0000 0.1191983787
H   H121      1.0  0.61280  0.44890  0.48110  1.0000 0.129630736
H   H122      1.0  0.61280  0.05110  0.01890  1.0000 0.129630736
H   H123      1.0  0.88720  0.55110  0.98110  1.0000 0.129630736
H   H124      1.0  0.88720  0.94890  0.51890  1.0000 0.129630736
H   H125      1.0  0.86390  0.46730  0.56140  1.0000 0.1191983787
H   H126      1.0  0.86390  0.03270  0.93860  1.0000 0.1191983787
H   H127      1.0  0.63610  0.53270  0.06140  1.0000 0.1191983787
H   H128      1.0  0.63610  0.96730  0.43860  1.0000 0.1191983787
H   H129      1.0  0.75050  0.38830  0.61810  1.0000 0.1191983787
H   H130      1.0  0.75050  0.11170  0.88190  1.0000 0.1191983787
H   H131      1.0  0.74950  0.61170  0.11810  1.0000 0.1191983787
H   H132      1.0  0.74950  0.88830  0.38190  1.0000 0.1191983787
H   H133      1.0  0.84790  0.54640  0.46940  1.0000 0.1191983787
H   H134      1.0  0.84790  0.95360  0.03060  1.0000 0.1191983787
H   H135      1.0  0.65210  0.45360  0.96940  1.0000 0.1191983787
H   H136      1.0  0.65210  0.04640  0.53060  1.0000 0.1191983787
H   H137      1.0  0.74060  0.55770  0.44680  1.0000 0.1191983787
H   H138      1.0  0.74060  0.94230  0.05320  1.0000 0.1191983787
H   H139      1.0  0.75940  0.44230  0.94680  1.0000 0.1191983787
H   H140      1.0  0.75940  0.05770  0.55320  1.0000 0.1191983787
H   H141      1.0  0.84600  0.48260  0.27140  1.0000 0.1191983787
H   H142      1.0  0.84600  0.01740  0.22860  1.0000 0.1191983787
H   H143      1.0  0.65400  0.51740  0.77140  1.0000 0.1191983787
H   H144      1.0  0.65400  0.98260  0.72860  1.0000 0.1191983787
H   H145      1.0  0.87670  0.35010  0.28050  1.0000 0.1122995821
H   H146      1.0  0.87670  0.14990  0.21950  1.0000 0.1122995821
H   H147      1.0  0.62330  0.64990  0.78050  1.0000 0.1122995821
H   H148      1.0  0.62330  0.85010  0.71950  1.0000 0.1122995821
H   H149      1.0  0.87520  0.29350  0.36850  1.0000 0.1122995821
H   H150      1.0  0.87520  0.20650  0.13150  1.0000 0.1122995821
H   H151      1.0  0.62480  0.70650  0.86850  1.0000 0.1122995821
H   H152      1.0  0.62480  0.79350  0.63150  1.0000 0.1122995821
H   H153      1.0  0.83210  0.36780  0.44600  1.0000 0.1122995821
H   H154      1.0  0.83210  0.13220  0.05400  1.0000 0.1122995821
H   H155      1.0  0.66790  0.63220  0.94600  1.0000 0.1122995821
H   H156      1.0  0.66790  0.86780  0.55400  1.0000 0.1122995821
H   H157      1.0  0.79260  0.60120  0.30540  1.0000 0.129630736
H   H158      1.0  0.79260  0.89880  0.19460  1.0000 0.129630736
H   H159      1.0  0.70740  0.39880  0.80540  1.0000 0.129630736
H   H160      1.0  0.70740  0.10120  0.69460  1.0000 0.129630736
H   H161      1.0  0.73490  0.60280  0.36250  1.0000 0.129630736
H   H162      1.0  0.73490  0.89720  0.13750  1.0000 0.129630736
H   H163      1.0  0.76510  0.39720  0.86250  1.0000 0.129630736
H   H164      1.0  0.76510  0.10280  0.63750  1.0000 0.129630736
H   H165      1.0  0.80460  0.73450  0.39430  1.0000 0.1191983787
H   H166      1.0  0.80460  0.76550  0.10570  1.0000 0.1191983787
H   H167      1.0  0.69540  0.26550  0.89430  1.0000 0.1191983787
H   H168      1.0  0.69540  0.23450  0.60570  1.0000 0.1191983787
H   H169      1.0  0.08290  0.68850  0.40150  1.0000 0.1191983787
H   H170      1.0  0.08290  0.81150  0.09850  1.0000 0.1191983787
H   H171      1.0  0.41710  0.31150  0.90150  1.0000 0.1191983787
H   H172      1.0  0.41710  0.18850  0.59850  1.0000 0.1191983787
H   H173      1.0  0.00060  0.57670  0.35890  1.0000 0.1191983787
H   H174      1.0  0.00060  0.92330  0.14110  1.0000 0.1191983787
H   H175      1.0  0.49940  0.42330  0.85890  1.0000 0.1191983787
H   H176      1.0  0.49940  0.07670  0.64110  1.0000 0.1191983787
C   C1        1.0  0.69010  0.66667  0.54840  1.0000 -0.0515153132
C   C2        1.0  0.69010  0.83340  0.95160  1.0000 -0.0515153132
C   C3        1.0  0.80990  0.33340  0.04840  1.0000 -0.0515153132
C   C4        1.0  0.80990  0.16660  0.45160  1.0000 -0.0515153132
C   C5        1.0  0.77940  0.70290  0.54640  1.0000 -0.0886826272
C   C6        1.0  0.77940  0.79710  0.95360  1.0000 -0.0886826272
C   C7        1.0  0.72060  0.29710  0.04640  1.0000 -0.0886826272
C   C8        1.0  0.72060  0.20290  0.45360  1.0000 -0.0886826272
C   C9        1.0  0.84260  0.70260  0.59250  1.0000 -0.2128909528
C   C10       1.0  0.84260  0.79740  0.90750  1.0000 -0.2128909528
C   C11       1.0  0.65740  0.29740  0.09250  1.0000 -0.2128909528
C   C12       1.0  0.65740  0.20260  0.40750  1.0000 -0.2128909528
C   C13       1.0  0.81410  0.66440  0.64060  1.0000 0.2416948509
C   C14       1.0  0.81410  0.83560  0.85940  1.0000 0.2416948509
C   C15       1.0  0.68590  0.33560  0.14060  1.0000 0.2416948509
C   C16       1.0  0.68590  0.16440  0.35940  1.0000 0.2416948509
C   C17       1.0  0.72480  0.62670  0.64330  1.0000 -0.2295380439
C   C18       1.0  0.72480  0.87330  0.85670  1.0000 -0.2295380439
C   C19       1.0  0.77520  0.37330  0.14330  1.0000 -0.2295380439
C   C20       1.0  0.77520  0.12670  0.35670  1.0000 -0.2295380439
C   C21       1.0  0.66360  0.62750  0.59710  1.0000 -0.0886826272
C   C22       1.0  0.66360  0.87250  0.90290  1.0000 -0.0886826272
C   C23       1.0  0.83640  0.37250  0.09710  1.0000 -0.0886826272
C   C24       1.0  0.83640  0.12750  0.40290  1.0000 -0.0886826272
C   C25       1.0  0.62310  0.66780  0.49940  1.0000 0.5371685346
C   C26       1.0  0.62310  0.83220  0.00060  1.0000 0.5371685346
C   C27       1.0  0.87690  0.33220  0.99940  1.0000 0.5371685346
C   C28       1.0  0.87690  0.16780  0.50060  1.0000 0.5371685346
C   C29       1.0  0.88730  0.61340  0.72550  1.0000 0.2416948509
C   C30       1.0  0.88730  0.88660  0.77450  1.0000 0.2416948509
C   C31       1.0  0.61270  0.38660  0.22550  1.0000 0.2416948509
C   C32       1.0  0.61270  0.11340  0.27450  1.0000 0.2416948509
C   C33       1.0  0.90340  0.63670  0.77970  1.0000 -0.1992147769
C   C34       1.0  0.90340  0.86330  0.72030  1.0000 -0.1992147769
C   C35       1.0  0.59660  0.36330  0.27970  1.0000 -0.1992147769
C   C36       1.0  0.59660  0.13670  0.22030  1.0000 -0.1992147769
C   C37       1.0  0.92250  0.58550  0.82200  1.0000 -0.0886826272
C   C38       1.0  0.92250  0.91450  0.67800  1.0000 -0.0886826272
C   C39       1.0  0.57750  0.41450  0.32200  1.0000 -0.0886826272
C   C40       1.0  0.57750  0.08550  0.17800  1.0000 -0.0886826272
C   C41       1.0  0.92950  0.50800  0.80860  1.0000 -0.0118523635
C   C42       1.0  0.92950  0.99200  0.69140  1.0000 -0.0118523635
C   C43       1.0  0.57050  0.49200  0.30860  1.0000 -0.0118523635
C   C44       1.0  0.57050  0.00800  0.19140  1.0000 -0.0118523635
C   C45       1.0  0.91260  0.48150  0.75450  1.0000 -0.0990783344
C   C46       1.0  0.91260  0.01850  0.74550  1.0000 -0.0990783344
C   C47       1.0  0.58740  0.51850  0.25450  1.0000 -0.0990783344
C   C48       1.0  0.58740  0.98150  0.24550  1.0000 -0.0990783344
C   C49       1.0  0.88830  0.53650  0.71130  1.0000 -0.2295380439
C   C50       1.0  0.88830  0.96350  0.78870  1.0000 -0.2295380439
C   C51       1.0  0.61170  0.46350  0.21130  1.0000 -0.2295380439
C   C52       1.0  0.61170  0.03650  0.28870  1.0000 -0.2295380439
C   C53       1.0  0.95820  0.44850  0.85730  1.0000 0.4920505639
C   C54       1.0  0.95820  0.05150  0.64270  1.0000 0.4920505639
C   C55       1.0  0.54180  0.55150  0.35730  1.0000 0.4920505639
C   C56       1.0  0.54180  0.94850  0.14270  1.0000 0.4920505639
C   C57       1.0  0.33840  0.55710  0.49190  1.0000 0.129630736
C   C58       1.0  0.33840  0.94290  0.00810  1.0000 0.129630736
C   C59       1.0  0.16160  0.44290  0.99190  1.0000 0.129630736
C   C60       1.0  0.16160  0.05710  0.50810  1.0000 0.129630736
C   C61       1.0  0.20010  0.54630  0.44820  1.0000 -0.112819848
C   C62       1.0  0.20010  0.95370  0.05180  1.0000 -0.112819848
C   C63       1.0  0.29990  0.45370  0.94820  1.0000 -0.112819848
C   C64       1.0  0.29990  0.04630  0.55180  1.0000 -0.112819848
C   C65       1.0  0.26340  0.59010  0.41680  1.0000 -0.044875117
C   C66       1.0  0.26340  0.90990  0.08320  1.0000 -0.044875117
C   C67       1.0  0.23660  0.40990  0.91680  1.0000 -0.044875117
C   C68       1.0  0.23660  0.09010  0.58320  1.0000 -0.044875117
C   C69       1.0  0.21080  0.48090  0.54260  1.0000 -0.1575559184
C   C70       1.0  0.21080  0.01910  0.95740  1.0000 -0.1575559184
C   C71       1.0  0.28920  0.51910  0.04260  1.0000 -0.1575559184
C   C72       1.0  0.28920  0.98090  0.45740  1.0000 -0.1575559184
C   C73       1.0  0.18610  0.53060  0.59410  1.0000 0.0484005893
C   C74       1.0  0.18610  0.96940  0.90590  1.0000 0.0484005893
C   C75       1.0  0.31390  0.46940  0.09410  1.0000 0.0484005893
C   C76       1.0  0.31390  0.03060  0.40590  1.0000 0.0484005893
C   C77       1.0  0.18110  0.49510  0.64650  1.0000 0.0484005893
C   C78       1.0  0.18110  0.00490  0.85350  1.0000 0.0484005893
C   C79       1.0  0.31890  0.50490  0.14650  1.0000 0.0484005893
C   C80       1.0  0.31890  0.99510  0.35350  1.0000 0.0484005893
C   C81       1.0  0.15710  0.54050  0.69330  1.0000 -0.1543945295
C   C82       1.0  0.15710  0.95950  0.80670  1.0000 -0.1543945295
C   C83       1.0  0.34290  0.45950  0.19330  1.0000 -0.1543945295
C   C84       1.0  0.34290  0.04050  0.30670  1.0000 -0.1543945295
C   C85       1.0  0.13770  0.62020  0.68790  1.0000 -0.0990783344
C   C86       1.0  0.13770  0.87980  0.81210  1.0000 -0.0990783344
C   C87       1.0  0.36230  0.37980  0.18790  1.0000 -0.0990783344
C   C88       1.0  0.36230  0.12020  0.31210  1.0000 -0.0990783344
C   C89       1.0  0.13990  0.65410  0.63570  1.0000 -0.0886826272
C   C90       1.0  0.13990  0.84590  0.86430  1.0000 -0.0886826272
C   C91       1.0  0.36010  0.34590  0.13570  1.0000 -0.0886826272
C   C92       1.0  0.36010  0.15410  0.36430  1.0000 -0.0886826272
C   C93       1.0  0.16510  0.60900  0.58920  1.0000 -0.1575559184
C   C94       1.0  0.16510  0.89100  0.91080  1.0000 -0.1575559184
C   C95       1.0  0.33490  0.39100  0.08920  1.0000 -0.1575559184
C   C96       1.0  0.33490  0.10900  0.41080  1.0000 -0.1575559184
C   C97       1.0  0.20240  0.40980  0.65470  1.0000 -0.169249868
C   C98       1.0  0.20240  0.09020  0.84530  1.0000 -0.169249868
C   C99       1.0  0.29760  0.59020  0.15470  1.0000 -0.169249868
C   C100      1.0  0.29760  0.90980  0.34530  1.0000 -0.169249868
C   C101      1.0  0.13530  0.29080  0.60910  1.0000 0.1016462716
C   C102      1.0  0.13530  0.20920  0.89090  1.0000 0.1016462716
C   C103      1.0  0.36470  0.70920  0.10910  1.0000 0.1016462716
C   C104      1.0  0.36470  0.79080  0.39090  1.0000 0.1016462716
C   C105      1.0  0.98430  0.31530  0.60530  1.0000 -0.0289912791
C   C106      1.0  0.98430  0.18470  0.89470  1.0000 -0.0289912791
C   C107      1.0  0.51570  0.68470  0.10530  1.0000 -0.0289912791
C   C108      1.0  0.51570  0.81530  0.39470  1.0000 -0.0289912791
C   C109      1.0  0.02940  0.37790  0.62860  1.0000 -0.112819848
C   C110      1.0  0.02940  0.12210  0.87140  1.0000 -0.112819848
C   C111      1.0  0.47060  0.62210  0.12860  1.0000 -0.112819848
C   C112      1.0  0.47060  0.87790  0.37140  1.0000 -0.112819848
C   C113      1.0  0.30990  0.33340  0.45160  1.0000 -0.0515153132
C   C114      1.0  0.30990  0.16660  0.04840  1.0000 -0.0515153132
C   C115      1.0  0.19010  0.66667  0.95160  1.0000 -0.0515153132
C   C116      1.0  0.19010  0.83340  0.54840  1.0000 -0.0515153132
C   C117      1.0  0.22060  0.29710  0.45360  1.0000 -0.0886826272
C   C118      1.0  0.22060  0.20290  0.04640  1.0000 -0.0886826272
C   C119      1.0  0.27940  0.70290  0.95360  1.0000 -0.0886826272
C   C120      1.0  0.27940  0.79710  0.54640  1.0000 -0.0886826272
C   C121      1.0  0.15740  0.29740  0.40750  1.0000 -0.2128909528
C   C122      1.0  0.15740  0.20260  0.09250  1.0000 -0.2128909528
C   C123      1.0  0.34260  0.70260  0.90750  1.0000 -0.2128909528
C   C124      1.0  0.34260  0.79740  0.59250  1.0000 -0.2128909528
C   C125      1.0  0.18590  0.33560  0.35940  1.0000 0.2416948509
C   C126      1.0  0.18590  0.16440  0.14060  1.0000 0.2416948509
C   C127      1.0  0.31410  0.66440  0.85940  1.0000 0.2416948509
C   C128      1.0  0.31410  0.83560  0.64060  1.0000 0.2416948509
C   C129      1.0  0.27520  0.37330  0.35670  1.0000 -0.2295380439
C   C130      1.0  0.27520  0.12670  0.14330  1.0000 -0.2295380439
C   C131      1.0  0.22480  0.62670  0.85670  1.0000 -0.2295380439
C   C132      1.0  0.22480  0.87330  0.64330  1.0000 -0.2295380439
C   C133      1.0  0.33640  0.37250  0.40290  1.0000 -0.0886826272
C   C134      1.0  0.33640  0.12750  0.09710  1.0000 -0.0886826272
C   C135      1.0  0.16360  0.62750  0.90290  1.0000 -0.0886826272
C   C136      1.0  0.16360  0.87250  0.59710  1.0000 -0.0886826272
C   C137      1.0  0.37690  0.33220  0.50060  1.0000 0.5371685346
C   C138      1.0  0.37690  0.16780  0.99940  1.0000 0.5371685346
C   C139      1.0  0.12310  0.66780  0.00060  1.0000 0.5371685346
C   C140      1.0  0.12310  0.83220  0.49940  1.0000 0.5371685346
C   C141      1.0  0.11270  0.38660  0.27450  1.0000 0.2416948509
C   C142      1.0  0.11270  0.11340  0.22550  1.0000 0.2416948509
C   C143      1.0  0.38730  0.61340  0.77450  1.0000 0.2416948509
C   C144      1.0  0.38730  0.88660  0.72550  1.0000 0.2416948509
C   C145      1.0  0.09660  0.36330  0.22030  1.0000 -0.1992147769
C   C146      1.0  0.09660  0.13670  0.27970  1.0000 -0.1992147769
C   C147      1.0  0.40340  0.63670  0.72030  1.0000 -0.1992147769
C   C148      1.0  0.40340  0.86330  0.77970  1.0000 -0.1992147769
C   C149      1.0  0.07750  0.41450  0.17800  1.0000 -0.0886826272
C   C150      1.0  0.07750  0.08550  0.32200  1.0000 -0.0886826272
C   C151      1.0  0.42250  0.58550  0.67800  1.0000 -0.0886826272
C   C152      1.0  0.42250  0.91450  0.82200  1.0000 -0.0886826272
C   C153      1.0  0.07050  0.49200  0.19140  1.0000 -0.0118523635
C   C154      1.0  0.07050  0.00800  0.30860  1.0000 -0.0118523635
C   C155      1.0  0.42950  0.50800  0.69140  1.0000 -0.0118523635
C   C156      1.0  0.42950  0.99200  0.80860  1.0000 -0.0118523635
C   C157      1.0  0.08740  0.51850  0.24550  1.0000 -0.0990783344
C   C158      1.0  0.08740  0.98150  0.25450  1.0000 -0.0990783344
C   C159      1.0  0.41260  0.48150  0.74550  1.0000 -0.0990783344
C   C160      1.0  0.41260  0.01850  0.75450  1.0000 -0.0990783344
C   C161      1.0  0.11170  0.46350  0.28870  1.0000 -0.2295380439
C   C162      1.0  0.11170  0.03650  0.21130  1.0000 -0.2295380439
C   C163      1.0  0.38830  0.53650  0.78870  1.0000 -0.2295380439
C   C164      1.0  0.38830  0.96350  0.71130  1.0000 -0.2295380439
C   C165      1.0  0.04180  0.55150  0.14270  1.0000 0.4920505639
C   C166      1.0  0.04180  0.94850  0.35730  1.0000 0.4920505639
C   C167      1.0  0.45820  0.44850  0.64270  1.0000 0.4920505639
C   C168      1.0  0.45820  0.05150  0.85730  1.0000 0.4920505639
C   C169      1.0  0.66160  0.44290  0.50810  1.0000 0.129630736
C   C170      1.0  0.66160  0.05710  0.99190  1.0000 0.129630736
C   C171      1.0  0.83840  0.55710  0.00810  1.0000 0.129630736
C   C172      1.0  0.83840  0.94290  0.49190  1.0000 0.129630736
C   C173      1.0  0.79990  0.45370  0.55180  1.0000 -0.112819848
C   C174      1.0  0.79990  0.04630  0.94820  1.0000 -0.112819848
C   C175      1.0  0.70010  0.54630  0.05180  1.0000 -0.112819848
C   C176      1.0  0.70010  0.95370  0.44820  1.0000 -0.112819848
C   C177      1.0  0.73660  0.40990  0.58320  1.0000 -0.044875117
C   C178      1.0  0.73660  0.09010  0.91680  1.0000 -0.044875117
C   C179      1.0  0.76340  0.59010  0.08320  1.0000 -0.0515153132
C   C180      1.0  0.76340  0.90990  0.41680  1.0000 -0.044875117
C   C181      1.0  0.78920  0.51910  0.45740  1.0000 -0.1575559184
C   C182      1.0  0.78920  0.98090  0.04260  1.0000 -0.1575559184
C   C183      1.0  0.71080  0.48090  0.95740  1.0000 -0.1575559184
C   C184      1.0  0.71080  0.01910  0.54260  1.0000 -0.1575559184
C   C185      1.0  0.81390  0.46940  0.40590  1.0000 0.0484005893
C   C186      1.0  0.81390  0.03060  0.09410  1.0000 0.0484005893
C   C187      1.0  0.68610  0.53060  0.90590  1.0000 0.0484005893
C   C188      1.0  0.68610  0.96940  0.59410  1.0000 0.0484005893
C   C189      1.0  0.81890  0.50490  0.35350  1.0000 0.0484005893
C   C190      1.0  0.81890  0.99510  0.14650  1.0000 0.0484005893
C   C191      1.0  0.68110  0.49510  0.85350  1.0000 0.0484005893
C   C192      1.0  0.68110  0.00490  0.64650  1.0000 0.0484005893
C   C193      1.0  0.84290  0.45950  0.30670  1.0000 -0.1543945295
C   C194      1.0  0.84290  0.04050  0.19330  1.0000 -0.1543945295
C   C195      1.0  0.65710  0.54050  0.80670  1.0000 -0.1543945295
C   C196      1.0  0.65710  0.95950  0.69330  1.0000 -0.1543945295
C   C197      1.0  0.86230  0.37980  0.31210  1.0000 -0.0990783344
C   C198      1.0  0.86230  0.12020  0.18790  1.0000 -0.0990783344
C   C199      1.0  0.63770  0.62020  0.81210  1.0000 -0.0990783344
C   C200      1.0  0.63770  0.87980  0.68790  1.0000 -0.0990783344
C   C201      1.0  0.86010  0.34590  0.36430  1.0000 -0.0886826272
C   C202      1.0  0.86010  0.15410  0.13570  1.0000 -0.0886826272
C   C203      1.0  0.63990  0.65410  0.86430  1.0000 -0.0886826272
C   C204      1.0  0.63990  0.84590  0.63570  1.0000 -0.0886826272
C   C205      1.0  0.83490  0.39100  0.41080  1.0000 -0.1575559184
C   C206      1.0  0.83490  0.10900  0.08920  1.0000 -0.1543945295
C   C207      1.0  0.66510  0.60900  0.91080  1.0000 -0.1575559184
C   C208      1.0  0.66510  0.89100  0.58920  1.0000 -0.1575559184
C   C209      1.0  0.79760  0.59020  0.34530  1.0000 -0.169249868
C   C210      1.0  0.79760  0.90980  0.15470  1.0000 -0.169249868
C   C211      1.0  0.70240  0.40980  0.84530  1.0000 -0.169249868
C   C212      1.0  0.70240  0.09020  0.65470  1.0000 -0.169249868
C   C213      1.0  0.86470  0.70920  0.39090  1.0000 0.1016462716
C   C214      1.0  0.86470  0.79080  0.10910  1.0000 0.1016462716
C   C215      1.0  0.63530  0.29080  0.89090  1.0000 0.1016462716
C   C216      1.0  0.63530  0.20920  0.60910  1.0000 0.1016462716
C   C217      1.0  0.01570  0.68470  0.39470  1.0000 -0.0289912791
C   C218      1.0  0.01570  0.81530  0.10530  1.0000 -0.0289912791
C   C219      1.0  0.48430  0.31530  0.89470  1.0000 -0.0289912791
C   C220      1.0  0.48430  0.18470  0.60530  1.0000 -0.0289912791
C   C221      1.0  0.97060  0.62210  0.37140  1.0000 -0.112819848
C   C222      1.0  0.97060  0.87790  0.12860  1.0000 -0.112819848
C   C223      1.0  0.52940  0.37790  0.87140  1.0000 -0.112819848
C   C224      1.0  0.52940  0.12210  0.62860  1.0000 -0.112819848
N   N1        1.0  0.34980  0.59690  0.44504  1.0000 -0.301510034
N   N2        1.0  0.34980  0.90310  0.05496  1.0000 -0.301510034
N   N3        1.0  0.15020  0.40310  0.94504  1.0000 -0.301510034
N   N4        1.0  0.15020  0.09690  0.55496  1.0000 -0.301510034
N   N5        1.0  0.24860  0.52630  0.49597  1.0000 0.0442263131
N   N6        1.0  0.24860  0.97370  0.00403  1.0000 0.0442263131
N   N7        1.0  0.25140  0.47370  0.99597  1.0000 0.0442263131
N   N8        1.0  0.25140  0.02630  0.50403  1.0000 0.0442263131
N   N9        1.0  0.12550  0.36150  0.63006  1.0000 0.0484005893
N   N10       1.0  0.12550  0.13850  0.86994  1.0000 0.0484005893
N   N11       1.0  0.37450  0.63850  0.13006  1.0000 0.0484005893
N   N12       1.0  0.37450  0.86150  0.36994  1.0000 0.0484005893
N   N13       1.0  0.05080  0.25970  0.59355  1.0000 -0.301510034
N   N14       1.0  0.05080  0.24030  0.90645  1.0000 -0.301510034
N   N15       1.0  0.44920  0.74030  0.09355  1.0000 -0.301510034
N   N16       1.0  0.44920  0.75970  0.40645  1.0000 -0.301510034
N   N17       1.0  0.65020  0.40310  0.55496  1.0000 -0.301510034
N   N18       1.0  0.65020  0.09690  0.94504  1.0000 -0.301510034
N   N19       1.0  0.84980  0.59690  0.05496  1.0000 -0.301510034
N   N20       1.0  0.84980  0.90310  0.44504  1.0000 -0.301510034
N   N21       1.0  0.75140  0.47370  0.50403  1.0000 0.0442263131
N   N22       1.0  0.75140  0.02630  0.99597  1.0000 0.0442263131
N   N23       1.0  0.74860  0.52630  0.00403  1.0000 0.0442263131
N   N24       1.0  0.74860  0.97370  0.49597  1.0000 0.0442263131
N   N25       1.0  0.87450  0.63850  0.36994  1.0000 0.0484005893
N   N26       1.0  0.87450  0.86150  0.13006  1.0000 0.0484005893
N   N27       1.0  0.62550  0.36150  0.86994  1.0000 0.0484005893
N   N28       1.0  0.62550  0.13850  0.63006  1.0000 0.0484005893
N   N29       1.0  0.94920  0.74030  0.40645  1.0000 -0.301510034
N   N30       1.0  0.94920  0.75970  0.09355  1.0000 -0.301510034
N   N31       1.0  0.55080  0.25970  0.90645  1.0000 -0.301510034
N   N32       1.0  0.55080  0.24030  0.59355  1.0000 -0.301510034
O   O1        1.0  0.53440  0.64290  0.50644  1.0000 -0.544302633
O   O2        1.0  0.53440  0.85710  0.99356  1.0000 -0.544302633
O   O3        1.0  0.96560  0.35710  0.00644  1.0000 -0.544302633
O   O4        1.0  0.96560  0.14290  0.49356  1.0000 -0.544302633
O   O5        1.0  0.65110  0.69080  0.45179  1.0000 -0.5770107563
O   O6        1.0  0.65110  0.80920  0.04821  1.0000 -0.5770107563
O   O7        1.0  0.84890  0.30920  0.95179  1.0000 -0.5770107563
O   O8        1.0  0.84890  0.19080  0.54821  1.0000 -0.5770107563
O   O9        1.0  0.95230  0.47200  0.90540  1.0000 -0.5133814122
O   O10       1.0  0.95230  0.02800  0.59460  1.0000 -0.5133814122
O   O11       1.0  0.54770  0.52800  0.40540  1.0000 -0.5133814122
O   O12       1.0  0.54770  0.97200  0.09460  1.0000 -0.5133814122
O   O13       1.0  0.98110  0.38570  0.84190  1.0000 -0.4811168815
O   O14       1.0  0.98110  0.11430  0.65810  1.0000 -0.4811168815
O   O15       1.0  0.51890  0.61430  0.34190  1.0000 -0.4811168815
O   O16       1.0  0.51890  0.88570  0.15810  1.0000 -0.4811168815
O   O17       1.0  0.87620  0.67250  0.68636  1.0000 -0.2295380439
O   O18       1.0  0.87620  0.82750  0.81364  1.0000 -0.2295380439
O   O19       1.0  0.62380  0.32750  0.18636  1.0000 -0.2295380439
O   O20       1.0  0.62380  0.17250  0.31364  1.0000 -0.2295380439
O   O21       1.0  0.46560  0.35710  0.49356  1.0000 -0.544302633
O   O22       1.0  0.46560  0.14290  0.00644  1.0000 -0.544302633
O   O23       1.0  0.03440  0.64290  0.99356  1.0000 -0.544302633
O   O24       1.0  0.03440  0.85710  0.50644  1.0000 -0.544302633
O   O25       1.0  0.34890  0.30920  0.54821  1.0000 -0.5770107563
O   O26       1.0  0.34890  0.19080  0.95179  1.0000 -0.5770107563
O   O27       1.0  0.15110  0.69080  0.04821  1.0000 -0.5770107563
O   O28       1.0  0.15110  0.80920  0.45179  1.0000 -0.5770107563
O   O29       1.0  0.04770  0.52800  0.09460  1.0000 -0.5133814122
O   O30       1.0  0.04770  0.97200  0.40540  1.0000 -0.5133814122
O   O31       1.0  0.45230  0.47200  0.59460  1.0000 -0.5133814122
O   O32       1.0  0.45230  0.02800  0.90540  1.0000 -0.5133814122
O   O33       1.0  0.01890  0.61430  0.15810  1.0000 -0.4811168815
O   O34       1.0  0.01890  0.88570  0.34190  1.0000 -0.4811168815
O   O35       1.0  0.48110  0.38570  0.65810  1.0000 -0.4811168815
O   O36       1.0  0.48110  0.11430  0.84190  1.0000 -0.4811168815
O   O37       1.0  0.12380  0.32750  0.31364  1.0000 -0.2295380439
O   O38       1.0  0.12380  0.17250  0.18636  1.0000 -0.2295380439
O   O39       1.0  0.37620  0.67250  0.81364  1.0000 -0.2295380439
O   O40       1.0  0.37620  0.82750  0.68636  1.0000 -0.2295380439
