# DDEC6 charges by PACMAN v1.1 (https://github.com/mtap-research/PACMAN-charge/)
data_2014[Cu][acs]3[FSR]2
_chemical_formula_sum              "Cu6 H18 C18 O36"
_cell_length_a       7.31795
_cell_length_b       7.31795
_cell_length_c       24.419
_cell_angle_alpha    90
_cell_angle_beta     90
_cell_angle_gamma    120

_symmetry_space_group_name_H-M    "P 1"
_symmetry_Int_Tables_number       1

loop_
  _symmetry_equiv_pos_as_xyz
  'x, y, z'

loop_
  _atom_site_type_symbol
  _atom_site_label
  _atom_site_symmetry_multiplicity
  _atom_site_fract_x
  _atom_site_fract_y
  _atom_site_fract_z
  _atom_site_occupancy
  _atom_site_charge
Cu  Cu1       1.0  0.36480  0.68240  0.08333  1.0000 0.9177030639
Cu  Cu2       1.0  0.31760  0.68240  0.41667  1.0000 0.9177030639
Cu  Cu3       1.0  0.31760  0.63520  0.75000  1.0000 0.9177030639
Cu  Cu4       1.0  0.63520  0.31760  0.58333  1.0000 0.9177030639
Cu  Cu5       1.0  0.68240  0.31760  0.91667  1.0000 0.9177030639
Cu  Cu6       1.0  0.68240  0.36480  0.25000  1.0000 0.9177030639
H   H1        1.0  0.60010  0.60010  0.16667  1.0000 0.1220252754
H   H2        1.0  0.39990  0.00000  0.50000  1.0000 0.1220252754
H   H3        1.0  1.00000  0.39990  0.83333  1.0000 0.1220252754
H   H4        1.0  0.39990  0.39990  0.66667  1.0000 0.1220252754
H   H5        1.0  0.60010  0.00000  0.00000  1.0000 0.1220252754
H   H6        1.0  0.00000  0.60010  0.33333  1.0000 0.1220252754
H   H7        1.0  0.03340  0.55850  0.99710  1.0000 0.1302674709
H   H8        1.0  0.44150  0.47490  0.33043  1.0000 0.1302674709
H   H9        1.0  0.52510  0.96660  0.66377  1.0000 0.1302674709
H   H10       1.0  0.96660  0.44150  0.49710  1.0000 0.1302674709
H   H11       1.0  0.55850  0.52510  0.83043  1.0000 0.1302674709
H   H12       1.0  0.47490  0.03340  0.16377  1.0000 0.1302674709
H   H13       1.0  0.55850  0.03340  0.33623  1.0000 0.1302674709
H   H14       1.0  0.47490  0.44150  0.00290  1.0000 0.1302674709
H   H15       1.0  0.96660  0.52510  0.66957  1.0000 0.1302674709
H   H16       1.0  0.44150  0.96660  0.83623  1.0000 0.1302674709
H   H17       1.0  0.52510  0.55850  0.50290  1.0000 0.1302674709
H   H18       1.0  0.03340  0.47490  0.16957  1.0000 0.1302674709
C   C1        1.0  0.47300  0.47300  0.16667  1.0000 0.4953228748
C   C2        1.0  0.52700  0.00000  0.50000  1.0000 0.4953228748
C   C3        1.0  0.00000  0.52700  0.83333  1.0000 0.4953228748
C   C4        1.0  0.52700  0.52700  0.66667  1.0000 0.4953228748
C   C5        1.0  0.47300  0.00000  0.00000  1.0000 0.4953228748
C   C6        1.0  1.00000  0.47300  0.33333  1.0000 0.4953228748
C   C7        1.0  0.03280  0.43130  0.99890  1.0000 0.490669575
C   C8        1.0  0.56870  0.60150  0.33223  1.0000 0.490669575
C   C9        1.0  0.39850  0.96720  0.66557  1.0000 0.490669575
C   C10       1.0  0.96720  0.56870  0.49890  1.0000 0.490669575
C   C11       1.0  0.43130  0.39850  0.83223  1.0000 0.490669575
C   C12       1.0  0.60150  0.03280  0.16557  1.0000 0.490669575
C   C13       1.0  0.43130  0.03280  0.33443  1.0000 0.490669575
C   C14       1.0  0.60150  0.56870  0.00110  1.0000 0.490669575
C   C15       1.0  0.96720  0.39850  0.66777  1.0000 0.490669575
C   C16       1.0  0.56870  0.96720  0.83443  1.0000 0.490669575
C   C17       1.0  0.39850  0.43130  0.50110  1.0000 0.490669575
C   C18       1.0  0.03280  0.60150  0.16777  1.0000 0.490669575
O   O1        1.0  0.33840  0.45080  0.13215  1.0000 -0.4600867165
O   O2        1.0  0.54920  0.88760  0.46548  1.0000 -0.4600867165
O   O3        1.0  0.11240  0.66160  0.79882  1.0000 -0.4600867165
O   O4        1.0  0.66160  0.54920  0.63215  1.0000 -0.4600867165
O   O5        1.0  0.45080  0.11240  0.96548  1.0000 -0.4600867165
O   O6        1.0  0.88760  0.33840  0.29882  1.0000 -0.4600867165
O   O7        1.0  0.45080  0.33840  0.20118  1.0000 -0.4600867165
O   O8        1.0  0.88760  0.54920  0.86785  1.0000 -0.4600867165
O   O9        1.0  0.66160  0.11240  0.53452  1.0000 -0.4600867165
O   O10       1.0  0.54920  0.66160  0.70118  1.0000 -0.4600867165
O   O11       1.0  0.11240  0.45080  0.36785  1.0000 -0.4600867165
O   O12       1.0  0.33840  0.88760  0.03452  1.0000 -0.4600867165
O   O13       1.0  0.92200  0.29750  0.96500  1.0000 -0.4771840109
O   O14       1.0  0.70250  0.62450  0.29833  1.0000 -0.4771840109
O   O15       1.0  0.37550  0.07800  0.63167  1.0000 -0.4771840109
O   O16       1.0  0.07800  0.70250  0.46500  1.0000 -0.4771840109
O   O17       1.0  0.29750  0.37550  0.79833  1.0000 -0.4771840109
O   O18       1.0  0.62450  0.92200  0.13167  1.0000 -0.4771840109
O   O19       1.0  0.29750  0.92200  0.36833  1.0000 -0.4771840109
O   O20       1.0  0.62450  0.70250  0.03500  1.0000 -0.4771840109
O   O21       1.0  0.07800  0.37550  0.70167  1.0000 -0.4771840109
O   O22       1.0  0.70250  0.07800  0.86833  1.0000 -0.4771840109
O   O23       1.0  0.37550  0.29750  0.53500  1.0000 -0.4771840109
O   O24       1.0  0.92200  0.62450  0.20167  1.0000 -0.4771840109
O   O25       1.0  0.14050  0.41830  0.03400  1.0000 -0.4511919254
O   O26       1.0  0.58170  0.72220  0.36733  1.0000 -0.4511919254
O   O27       1.0  0.27780  0.85950  0.70067  1.0000 -0.4511919254
O   O28       1.0  0.85950  0.58170  0.53400  1.0000 -0.4511919254
O   O29       1.0  0.41830  0.27780  0.86733  1.0000 -0.4511919254
O   O30       1.0  0.72220  0.14050  0.20067  1.0000 -0.4511919254
O   O31       1.0  0.41830  0.14050  0.29933  1.0000 -0.4511919254
O   O32       1.0  0.72220  0.58170  0.96600  1.0000 -0.4511919254
O   O33       1.0  0.85950  0.27780  0.63267  1.0000 -0.4511919254
O   O34       1.0  0.58170  0.85950  0.79933  1.0000 -0.4511919254
O   O35       1.0  0.27780  0.41830  0.46600  1.0000 -0.4511919254
O   O36       1.0  0.14050  0.72220  0.13267  1.0000 -0.4511919254
