# DDEC6 charges by PACMAN v1.1 (https://github.com/mtap-research/PACMAN-charge/)
data_2014[Cu][nan]3[FSR]6
_chemical_formula_sum              "Cu8 H52 C80 N24 O38"
_cell_length_a       10.3314
_cell_length_b       12.3196
_cell_length_c       19.042
_cell_angle_alpha    106.785
_cell_angle_beta     93.694
_cell_angle_gamma    94.284

_symmetry_space_group_name_H-M    "P 1"
_symmetry_Int_Tables_number       1

loop_
  _symmetry_equiv_pos_as_xyz
  'x, y, z'

loop_
  _atom_site_type_symbol
  _atom_site_label
  _atom_site_symmetry_multiplicity
  _atom_site_fract_x
  _atom_site_fract_y
  _atom_site_fract_z
  _atom_site_occupancy
  _atom_site_charge
Cu  Cu1       1.0  0.10869  0.47926  0.22495  1.0000 0.7683935074
Cu  Cu2       1.0  0.89131  0.52074  0.77505  1.0000 0.7683935074
Cu  Cu3       1.0  0.34595  0.54578  0.28994  1.0000 0.7642245201
Cu  Cu4       1.0  0.65405  0.45422  0.71006  1.0000 0.7642245201
Cu  Cu5       1.0  0.58850  0.20678  0.39764  1.0000 0.8811859397
Cu  Cu6       1.0  0.41150  0.79322  0.60236  1.0000 0.8811859397
Cu  Cu7       1.0  0.88105  0.83383  0.03246  1.0000 0.8427265493
Cu  Cu8       1.0  0.11895  0.16617  0.96754  1.0000 0.8427265493
H   H1        1.0  0.03700  0.28140  0.57390  1.0000 0.1311913584
H   H2        1.0  0.96300  0.71860  0.42610  1.0000 0.1311913584
H   H3        1.0  0.50070  0.66310  0.92590  1.0000 0.1311913584
H   H4        1.0  0.49930  0.33690  0.07410  1.0000 0.1311913584
H   H5        1.0  0.23250  0.19360  0.60970  1.0000 0.1475566087
H   H6        1.0  0.76750  0.80640  0.39030  1.0000 0.1475566087
H   H7        1.0  0.19160  0.52950  0.00180  1.0000 0.1475566087
H   H8        1.0  0.80840  0.47050  0.99820  1.0000 0.1475566087
H   H9        1.0  0.14210  0.11760  0.13660  1.0000 0.1311913584
H   H10       1.0  0.85790  0.88240  0.86340  1.0000 0.1311913584
H   H11       1.0  0.31100  0.44220  0.48790  1.0000 0.1311913584
H   H12       1.0  0.68900  0.55780  0.51210  1.0000 0.1311913584
H   H13       1.0  0.06360  0.13060  0.31980  1.0000 0.1311913584
H   H14       1.0  0.93640  0.86940  0.68020  1.0000 0.1311913584
H   H15       1.0  0.52140  0.64900  0.13330  1.0000 0.1311913584
H   H16       1.0  0.47860  0.35100  0.86670  1.0000 0.1311913584
H   H17       1.0  0.41780  0.91040  0.06710  1.0000 0.1311913584
H   H18       1.0  0.58220  0.08960  0.93290  1.0000 0.1311913584
H   H19       1.0  0.43470  0.24300  0.69470  1.0000 0.1406652621
H   H20       1.0  0.56530  0.75700  0.30530  1.0000 0.1406652621
H   H21       1.0  0.94230  0.37590  0.39440  1.0000 0.1311913584
H   H22       1.0  0.05770  0.62410  0.60560  1.0000 0.1311913584
H   H23       1.0  0.39160  0.53580  0.80320  1.0000 0.1406652621
H   H24       1.0  0.60840  0.46420  0.19680  1.0000 0.1406652621
H   H25       1.0  0.55850  0.96320  0.25970  1.0000 0.1406652621
H   H26       1.0  0.44150  0.03680  0.74030  1.0000 0.1406652621
H   H27       1.0  0.19510  0.52120  0.71900  1.0000 0.1311913584
H   H28       1.0  0.80490  0.47880  0.28100  1.0000 0.1311913584
H   H29       1.0  0.74900  0.85690  0.22030  1.0000 0.1475566087
H   H30       1.0  0.25100  0.14310  0.77970  1.0000 0.1475566087
H   H31       1.0  0.94790  0.79950  0.28390  1.0000 0.1311913584
H   H32       1.0  0.05210  0.20050  0.71610  1.0000 0.1311913584
H   H33       1.0  0.32820  0.91250  0.33040  1.0000 0.1311913584
H   H34       1.0  0.67180  0.08750  0.66960  1.0000 0.1311913584
H   H35       1.0  0.60790  0.20410  0.53360  1.0000 0.3895584849
H   H36       1.0  0.39210  0.79590  0.46640  1.0000 0.3895584849
H   H37       1.0  0.51120  0.27680  0.52840  1.0000 0.3512886373
H   H38       1.0  0.48880  0.72320  0.47160  1.0000 0.3512886373
H   H39       1.0  0.51930  0.23590  0.18750  1.0000 0.1311913584
H   H40       1.0  0.48070  0.76410  0.81250  1.0000 0.1311913584
H   H41       1.0  0.73160  0.20460  0.17960  1.0000 0.1406652621
H   H42       1.0  0.26840  0.79540  0.82040  1.0000 0.1406652621
H   H43       1.0  0.90930  0.64140  0.94770  1.0000 0.4133191166
H   H44       1.0  0.09070  0.35860  0.05230  1.0000 0.4133191166
H   H45       1.0  0.03340  0.71550  0.95570  1.0000 0.4013965783
H   H46       1.0  0.96660  0.28450  0.04430  1.0000 0.4013965783
H   H47       1.0  0.42940  0.34590  0.37250  1.0000 0.4013965783
H   H48       1.0  0.57060  0.65410  0.62750  1.0000 0.4013965783
H   H49       1.0  0.55640  0.41290  0.40640  1.0000 0.3895584849
H   H50       1.0  0.44360  0.58710  0.59360  1.0000 0.3895584849
H   H51       1.0  0.91960  0.10080  0.13650  1.0000 0.1406652621
H   H52       1.0  0.08040  0.89920  0.86350  1.0000 0.1406652621
C   C1        1.0  0.06030  0.31600  0.53850  1.0000 -0.1784568148
C   C2        1.0  0.93970  0.68400  0.46150  1.0000 -0.1784568148
C   C3        1.0  0.46330  0.64260  0.96390  1.0000 -0.1721033099
C   C4        1.0  0.53670  0.35740  0.03610  1.0000 -0.1721033099
C   C5        1.0  0.33700  0.59200  0.95360  1.0000 0.1406652621
C   C6        1.0  0.66300  0.40800  0.04640  1.0000 0.1406652621
C   C7        1.0  0.18710  0.36060  0.53880  1.0000 0.1406652621
C   C8        1.0  0.81290  0.63940  0.46120  1.0000 0.1406652621
C   C9        1.0  0.29030  0.25900  0.62010  1.0000 -0.0916210542
C   C10       1.0  0.70970  0.74100  0.37990  1.0000 -0.0916210542
C   C11       1.0  0.17010  0.46360  0.37150  1.0000 0.5697226433
C   C12       1.0  0.82990  0.53640  0.62850  1.0000 0.5697226433
C   C13       1.0  0.53310  0.66250  0.03110  1.0000 -0.0027762638
C   C14       1.0  0.46690  0.33750  0.96890  1.0000 -0.0027762638
C   C15       1.0  0.27710  0.56290  0.00960  1.0000 -0.1529238614
C   C16       1.0  0.72290  0.43710  0.99040  1.0000 -0.1529238614
C   C17       1.0  0.22970  0.10570  0.13380  1.0000 -0.118119254
C   C18       1.0  0.77030  0.89430  0.86620  1.0000 -0.118119254
C   C19       1.0  0.82980  0.27230  0.48100  1.0000 0.5533440617
C   C20       1.0  0.17020  0.72770  0.51900  1.0000 0.5533440617
C   C21       1.0  0.22530  0.41220  0.48650  1.0000 -0.1721033099
C   C22       1.0  0.77470  0.58780  0.51350  1.0000 -0.1721033099
C   C23       1.0  0.96740  0.32400  0.48370  1.0000 0.008639896
C   C24       1.0  0.03260  0.67600  0.51630  1.0000 0.008639896
C   C25       1.0  0.08410  0.05750  0.31730  1.0000 -0.1784568148
C   C26       1.0  0.91590  0.94250  0.68270  1.0000 -0.1784568148
C   C27       1.0  0.98610  0.96800  0.30340  1.0000 0.1311913584
C   C28       1.0  0.01390  0.03200  0.69660  1.0000 0.1311913584
C   C29       1.0  0.47460  0.63430  0.08760  1.0000 -0.118119254
C   C30       1.0  0.52540  0.36570  0.91240  1.0000 -0.118119254
C   C31       1.0  0.39360  0.98170  0.09180  1.0000 -0.1898809055
C   C32       1.0  0.60640  0.01830  0.90820  1.0000 -0.1898809055
C   C33       1.0  0.29340  0.55240  0.14090  1.0000 0.5697226433
C   C34       1.0  0.70660  0.44760  0.85910  1.0000 0.5697226433
C   C35       1.0  0.31880  0.13310  0.34300  1.0000 0.5584462491
C   C36       1.0  0.68120  0.86690  0.65700  1.0000 0.5584462491
C   C37       1.0  0.40180  0.28700  0.66667  1.0000 -0.0411257649
C   C38       1.0  0.59820  0.71300  0.33333  1.0000 -0.0411257649
C   C39       1.0  0.00390  0.37260  0.43140  1.0000 -0.1088505358
C   C40       1.0  0.99610  0.62740  0.56860  1.0000 -0.1088505358
C   C41       1.0  0.13220  0.41760  0.43220  1.0000 0.008639896
C   C42       1.0  0.86780  0.58240  0.56780  1.0000 0.008639896
C   C43       1.0  0.21200  0.03580  0.32740  1.0000 0.008639896
C   C44       1.0  0.78800  0.96420  0.67260  1.0000 0.008639896
C   C45       1.0  0.30680  0.54560  0.81580  1.0000 -0.0950634199
C   C46       1.0  0.69320  0.45440  0.18420  1.0000 -0.0950634199
C   C47       1.0  0.64490  0.98540  0.27840  1.0000 -0.0484721156
C   C48       1.0  0.35510  0.01460  0.72160  1.0000 -0.0484721156
C   C49       1.0  0.19810  0.53750  0.77000  1.0000 -0.0484721156
C   C50       1.0  0.80190  0.46250  0.23000  1.0000 -0.0484721156
C   C51       1.0  0.67110  0.71440  0.04410  1.0000 0.5399438349
C   C52       1.0  0.32890  0.28560  0.95590  1.0000 0.5399438349
C   C53       1.0  0.17400  0.71660  0.29680  1.0000 0.576741269
C   C54       1.0  0.82600  0.28340  0.70320  1.0000 0.576741269
C   C55       1.0  0.48770  0.07350  0.12520  1.0000 0.1311913584
C   C56       1.0  0.51230  0.92650  0.87480  1.0000 0.1311913584
C   C57       1.0  0.74930  0.92640  0.25640  1.0000 -0.118119254
C   C58       1.0  0.25070  0.07360  0.74360  1.0000 -0.118119254
C   C59       1.0  0.14330  0.83680  0.30570  1.0000 0.008639896
C   C60       1.0  0.85670  0.16320  0.69430  1.0000 0.008639896
C   C61       1.0  0.01440  0.85870  0.29570  1.0000 -0.1784568148
C   C62       1.0  0.98560  0.14130  0.70430  1.0000 -0.1784568148
C   C63       1.0  0.24200  0.92630  0.32250  1.0000 -0.1088505358
C   C64       1.0  0.75800  0.07370  0.67750  1.0000 -0.1088505358
C   C65       1.0  0.34760  0.58480  0.07740  1.0000 0.002123907
C   C66       1.0  0.65240  0.41520  0.92260  1.0000 0.002123907
C   C67       1.0  0.32320  0.19490  0.16710  1.0000 0.0200127756
C   C68       1.0  0.67680  0.80510  0.83290  1.0000 0.0200127756
C   C69       1.0  0.15990  0.90430  0.05930  1.0000 0.5697226433
C   C70       1.0  0.84010  0.09570  0.94070  1.0000 0.5697226433
C   C71       1.0  0.28620  0.31130  0.20430  1.0000 0.576741269
C   C72       1.0  0.71380  0.68870  0.79570  1.0000 0.576741269
C   C73       1.0  0.26250  0.00080  0.09690  1.0000 -0.0027762638
C   C74       1.0  0.73750  0.99920  0.90310  1.0000 -0.0027762638
C   C75       1.0  0.45510  0.17740  0.16370  1.0000 -0.1721033099
C   C76       1.0  0.54490  0.82260  0.83630  1.0000 -0.1721033099
C   C77       1.0  0.72970  0.13040  0.14890  1.0000 -0.1088505358
C   C78       1.0  0.27030  0.86960  0.85110  1.0000 -0.1088505358
C   C79       1.0  0.83230  0.07280  0.12510  1.0000 -0.0285986381
C   C80       1.0  0.16770  0.92720  0.87490  1.0000 -0.0285986381
N   N1        1.0  0.38300  0.42720  0.62080  1.0000 -0.1088505358
N   N2        1.0  0.61700  0.57280  0.37920  1.0000 -0.1088505358
N   N3        1.0  0.09580  0.55690  0.81000  1.0000 -0.1529238614
N   N4        1.0  0.90420  0.44310  0.19000  1.0000 -0.1529238614
N   N5        1.0  0.28330  0.34750  0.59270  1.0000 0.1406652621
N   N6        1.0  0.71670  0.65250  0.40730  1.0000 0.1406652621
N   N7        1.0  0.78680  0.96810  0.08220  1.0000 -0.1784568148
N   N8        1.0  0.21320  0.03190  0.91780  1.0000 -0.1784568148
N   N9        1.0  0.26480  0.57080  0.88340  1.0000 0.1475566087
N   N10       1.0  0.73520  0.42920  0.11660  1.0000 0.1475566087
N   N11       1.0  0.68970  0.08160  0.33190  1.0000 -0.1898809055
N   N12       1.0  0.31030  0.91840  0.66810  1.0000 -0.1898809055
N   N13       1.0  0.85310  0.99120  0.29860  1.0000 0.1475566087
N   N14       1.0  0.14690  0.00880  0.70140  1.0000 0.1475566087
N   N15       1.0  0.13540  0.57760  0.87940  1.0000 -0.0916210542
N   N16       1.0  0.86460  0.42240  0.12060  1.0000 -0.0916210542
N   N17       1.0  0.81730  0.08590  0.34540  1.0000 -0.0950634199
N   N18       1.0  0.18270  0.91410  0.65460  1.0000 -0.0950634199
N   N19       1.0  0.45600  0.38890  0.66510  1.0000 -0.1640624272
N   N20       1.0  0.54400  0.61110  0.33490  1.0000 -0.1640624272
N   N21       1.0  0.65880  0.95830  0.07860  1.0000 -0.078228833
N   N22       1.0  0.34120  0.04170  0.92140  1.0000 -0.078228833
N   N23       1.0  0.62350  0.05650  0.11840  1.0000 0.1651236397
N   N24       1.0  0.37650  0.94350  0.88160  1.0000 0.1651236397
O   O1        1.0  0.16940  0.32780  0.19270  1.0000 -0.5105685504
O   O2        1.0  0.83060  0.67220  0.80730  1.0000 -0.5105685504
O   O3        1.0  0.74800  0.29870  0.43700  1.0000 -0.5788191947
O   O4        1.0  0.25200  0.70130  0.56300  1.0000 -0.5788191947
O   O5        1.0  0.71770  0.74410  0.99110  1.0000 -0.5372910293
O   O6        1.0  0.28230  0.25590  0.00890  1.0000 -0.5372910293
O   O7        1.0  0.37340  0.57220  0.19680  1.0000 -0.5105685504
O   O8        1.0  0.62660  0.42780  0.80320  1.0000 -0.5105685504
O   O9        1.0  0.08430  0.63970  0.26330  1.0000 -0.5207608732
O   O10       1.0  0.91570  0.36030  0.73670  1.0000 -0.5207608732
O   O11       1.0  0.08250  0.45770  0.32100  1.0000 -0.5031565669
O   O12       1.0  0.91750  0.54230  0.67900  1.0000 -0.5031565669
O   O13       1.0  0.28560  0.70000  0.31940  1.0000 -0.5031565669
O   O14       1.0  0.71440  0.30000  0.68060  1.0000 -0.5031565669
O   O15       1.0  0.28630  0.50460  0.37380  1.0000 -0.5207608732
O   O16       1.0  0.71370  0.49540  0.62620  1.0000 -0.5207608732
O   O17       1.0  0.04250  0.92760  0.07010  1.0000 -0.5660564395
O   O18       1.0  0.95750  0.07240  0.92990  1.0000 -0.5660564395
O   O19       1.0  0.43220  0.10700  0.35740  1.0000 -0.5532129797
O   O20       1.0  0.56780  0.89300  0.64260  1.0000 -0.5532129797
O   O21       1.0  0.17860  0.50860  0.13480  1.0000 -0.5105685504
O   O22       1.0  0.82140  0.49140  0.86520  1.0000 -0.5105685504
O   O23       1.0  0.73370  0.73040  0.10460  1.0000 -0.5632813367
O   O24       1.0  0.26630  0.26960  0.89540  1.0000 -0.5632813367
O   O25       1.0  0.29130  0.22590  0.34000  1.0000 -0.5105685504
O   O26       1.0  0.70870  0.77410  0.66000  1.0000 -0.5105685504
O   O27       1.0  0.37440  0.38520  0.24120  1.0000 -0.5105685504
O   O28       1.0  0.62560  0.61480  0.75880  1.0000 -0.5105685504
O   O29       1.0  0.80550  0.20990  0.51950  1.0000 -0.5207608732
O   O30       1.0  0.19450  0.79010  0.48050  1.0000 -0.5207608732
O   O31       1.0  0.19140  0.81420  0.02070  1.0000 -0.5340350362
O   O32       1.0  0.80860  0.18580  0.97930  1.0000 -0.5340350362
O   O33       1.0  0.53970  0.21200  0.50710  1.0000 -0.6929563376
O   O34       1.0  0.46030  0.78800  0.49290  1.0000 -0.6929563376
O   O35       1.0  0.96330  0.70240  0.98350  1.0000 -0.6839337739
O   O36       1.0  0.03670  0.29760  0.01650  1.0000 -0.6839337739
O   O37       1.0  0.52310  0.33990  0.37360  1.0000 -0.7146244439
O   O38       1.0  0.47690  0.66010  0.62640  1.0000 -0.7146244439
