# DDEC6 charges by PACMAN v1.1 (https://github.com/mtap-research/PACMAN-charge/)
data_2014[Zn][dia]3[FSR]9
_chemical_formula_sum              "Zn2 H28 C36 N4 O8"
_cell_length_a       11.4477
_cell_length_b       11.4477
_cell_length_c       18.4719
_cell_angle_alpha    64.8594
_cell_angle_beta     115.141
_cell_angle_gamma    152.075

_symmetry_space_group_name_H-M    "P 1"
_symmetry_Int_Tables_number       1

loop_
  _symmetry_equiv_pos_as_xyz
  'x, y, z'

loop_
  _atom_site_type_symbol
  _atom_site_label
  _atom_site_symmetry_multiplicity
  _atom_site_fract_x
  _atom_site_fract_y
  _atom_site_fract_z
  _atom_site_occupancy
  _atom_site_charge
Zn  Zn1       1.0  0.46319  0.46319  0.75000  1.0000 0.7415525161
Zn  Zn2       1.0  0.53681  0.53681  0.25000  1.0000 0.7415525161
H   H1        1.0  0.60820  0.91740  0.69480  1.0000 0.1425299191
H   H2        1.0  0.91740  0.60820  0.80520  1.0000 0.1425299191
H   H3        1.0  0.39180  0.08260  0.30520  1.0000 0.1425299191
H   H4        1.0  0.08260  0.39180  0.19480  1.0000 0.1425299191
H   H5        1.0  0.30880  0.51560  0.57790  1.0000 0.1113862538
H   H6        1.0  0.51560  0.30880  0.92210  1.0000 0.1113862538
H   H7        1.0  0.69120  0.48440  0.42210  1.0000 0.1113862538
H   H8        1.0  0.48440  0.69120  0.07790  1.0000 0.1113862538
H   H9        1.0  0.96810  0.34190  0.49780  1.0000 0.1292079979
H   H10       1.0  0.34190  0.96810  0.00220  1.0000 0.1292079979
H   H11       1.0  0.03190  0.65810  0.50220  1.0000 0.1292079979
H   H12       1.0  0.65810  0.03190  0.99780  1.0000 0.1292079979
H   H13       1.0  0.95930  0.10290  0.76970  1.0000 0.119051466
H   H14       1.0  0.10290  0.95930  0.73030  1.0000 0.119051466
H   H15       1.0  0.04070  0.89710  0.23030  1.0000 0.119051466
H   H16       1.0  0.89710  0.04070  0.26970  1.0000 0.119051466
H   H17       1.0  0.61240  0.74360  0.95600  1.0000 0.1292079979
H   H18       1.0  0.74360  0.61240  0.54400  1.0000 0.1292079979
H   H19       1.0  0.38760  0.25640  0.04400  1.0000 0.1292079979
H   H20       1.0  0.25640  0.38760  0.45600  1.0000 0.1292079979
H   H21       1.0  0.38460  0.86540  0.56920  1.0000 0.1292079979
H   H22       1.0  0.86540  0.38460  0.93080  1.0000 0.1292079979
H   H23       1.0  0.61540  0.13460  0.43080  1.0000 0.1292079979
H   H24       1.0  0.13460  0.61540  0.06920  1.0000 0.1292079979
H   H25       1.0  0.01770  0.95830  0.94460  1.0000 0.1113862538
H   H26       1.0  0.95830  0.01770  0.55540  1.0000 0.1113862538
H   H27       1.0  0.98230  0.04170  0.05540  1.0000 0.1113862538
H   H28       1.0  0.04170  0.98230  0.44460  1.0000 0.1113862538
C   C1        1.0  0.74780  0.03760  0.66962  1.0000 -0.200096289
C   C2        1.0  0.03760  0.74780  0.83038  1.0000 -0.200096289
C   C3        1.0  0.25220  0.96240  0.33038  1.0000 -0.200096289
C   C4        1.0  0.96240  0.25220  0.16962  1.0000 -0.200096289
C   C5        1.0  0.16570  0.39330  0.60131  1.0000 0.0768400051
C   C6        1.0  0.39330  0.16570  0.89869  1.0000 0.0768400051
C   C7        1.0  0.83430  0.60670  0.39869  1.0000 0.0768400051
C   C8        1.0  0.60670  0.83430  0.10131  1.0000 0.0768400051
C   C9        1.0  0.56294  0.63006  0.86828  1.0000 0.5894965374
C   C10       1.0  0.63006  0.56294  0.63172  1.0000 0.5894965374
C   C11       1.0  0.43706  0.36994  0.13172  1.0000 0.5894965374
C   C12       1.0  0.36994  0.43706  0.36828  1.0000 0.5894965374
C   C13       1.0  0.74382  0.10498  0.58661  1.0000 0.1633352035
C   C14       1.0  0.10498  0.74382  0.91339  1.0000 0.1633352035
C   C15       1.0  0.25618  0.89502  0.41339  1.0000 0.1633352035
C   C16       1.0  0.89502  0.25618  0.08661  1.0000 0.1633352035
C   C17       1.0  0.96147  0.28953  0.55277  1.0000 -0.205622927
C   C18       1.0  0.28953  0.96147  0.94723  1.0000 -0.205622927
C   C19       1.0  0.03853  0.71047  0.44723  1.0000 -0.205622927
C   C20       1.0  0.71047  0.03853  0.05277  1.0000 -0.200096289
C   C21       1.0  0.96006  0.15014  0.71446  1.0000 0.119051466
C   C22       1.0  0.15014  0.96006  0.78554  1.0000 0.119051466
C   C23       1.0  0.03994  0.84986  0.28554  1.0000 0.119051466
C   C24       1.0  0.84986  0.03994  0.21446  1.0000 0.119051466
C   C25       1.0  0.93335  0.93265  0.96642  1.0000 -0.0434346951
C   C26       1.0  0.93265  0.93335  0.53358  1.0000 -0.0434346951
C   C27       1.0  0.06665  0.06735  0.03358  1.0000 -0.0434346951
C   C28       1.0  0.06735  0.06665  0.46642  1.0000 -0.0434346951
C   C29       1.0  0.70053  0.77407  0.93491  1.0000 -0.2398120693
C   C30       1.0  0.77407  0.70053  0.56509  1.0000 -0.2398120693
C   C31       1.0  0.29947  0.22593  0.06509  1.0000 -0.2398120693
C   C32       1.0  0.22593  0.29947  0.43491  1.0000 -0.2398120693
C   C33       1.0  0.51576  0.98064  0.54005  1.0000 -0.153915704
C   C34       1.0  0.98064  0.51576  0.95995  1.0000 -0.153915704
C   C35       1.0  0.48424  0.01936  0.45995  1.0000 -0.153915704
C   C36       1.0  0.01936  0.48424  0.04005  1.0000 -0.153915704
N   N1        1.0  0.16684  0.32472  0.68149  1.0000 -0.232627169
N   N2        1.0  0.32472  0.16684  0.81851  1.0000 -0.232627169
N   N3        1.0  0.83316  0.67528  0.31851  1.0000 -0.232627169
N   N4        1.0  0.67528  0.83316  0.18149  1.0000 -0.232627169
O   O1        1.0  0.68367  0.68029  0.83506  1.0000 -0.5586750812
O   O2        1.0  0.68029  0.68367  0.66494  1.0000 -0.5586750812
O   O3        1.0  0.31633  0.31971  0.16494  1.0000 -0.5586750812
O   O4        1.0  0.31971  0.31633  0.33506  1.0000 -0.5586750812
O   O5        1.0  0.33731  0.46409  0.84813  1.0000 -0.5586750812
O   O6        1.0  0.46409  0.33731  0.65187  1.0000 -0.5586750812
O   O7        1.0  0.66269  0.53591  0.15187  1.0000 -0.5586750812
O   O8        1.0  0.53591  0.66269  0.34813  1.0000 -0.5586750812
