# DDEC6 charges by PACMAN v1.1 (https://github.com/mtap-research/PACMAN-charge/)
data_2014[Zn][nan]3[FSR]34
_chemical_formula_sum              "Zn18 H144 C252 N84 O54"
_cell_length_a       19.801
_cell_length_b       20.162
_cell_length_c       27.225
_cell_angle_alpha    97.544
_cell_angle_beta     100.609
_cell_angle_gamma    111.627

_symmetry_space_group_name_H-M    "P 1"
_symmetry_Int_Tables_number       1

loop_
  _symmetry_equiv_pos_as_xyz
  'x, y, z'

loop_
  _atom_site_type_symbol
  _atom_site_label
  _atom_site_symmetry_multiplicity
  _atom_site_fract_x
  _atom_site_fract_y
  _atom_site_fract_z
  _atom_site_occupancy
  _atom_site_charge
Zn  Zn1       1.0  0.44511  0.73512  0.11963  1.0000 0.7631006688
Zn  Zn2       1.0  0.93735  0.33118  0.80636  1.0000 0.7507651299
Zn  Zn3       1.0  0.52669  0.03612  0.32470  1.0000 0.7799988538
Zn  Zn4       1.0  0.83834  0.23757  0.42875  1.0000 0.7507651299
Zn  Zn5       1.0  0.95968  0.10982  0.65014  1.0000 0.7877168507
Zn  Zn6       1.0  0.29646  0.63209  0.90369  1.0000 0.8065901846
Zn  Zn7       1.0  0.54641  0.88872  0.33172  1.0000 0.7799988538
Zn  Zn8       1.0  0.13860  0.64117  0.89989  1.0000 0.8019488305
Zn  Zn9       1.0  0.06715  0.21778  0.59333  1.0000 0.8019488305
Zn  Zn10      1.0  0.55489  0.26488  0.88037  1.0000 0.7631006688
Zn  Zn11      1.0  0.06265  0.66882  0.19364  1.0000 0.7507651299
Zn  Zn12      1.0  0.47331  0.96388  0.67530  1.0000 0.7799988538
Zn  Zn13      1.0  0.16166  0.76243  0.57125  1.0000 0.7507651299
Zn  Zn14      1.0  0.04032  0.89018  0.34986  1.0000 0.7877168507
Zn  Zn15      1.0  0.70354  0.36791  0.09631  1.0000 0.8019488305
Zn  Zn16      1.0  0.45359  0.11128  0.66828  1.0000 0.7799988538
Zn  Zn17      1.0  0.86140  0.35883  0.10011  1.0000 0.8065901846
Zn  Zn18      1.0  0.93285  0.78222  0.40667  1.0000 0.8019488305
H   H1        1.0  0.65930  0.07060  0.48090  1.0000 0.3288969025
H   H2        1.0  0.71140  0.13130  0.46050  1.0000 0.3203445037
H   H3        1.0  0.07910  0.50490  0.73910  1.0000 0.3394276172
H   H4        1.0  0.01940  0.45290  0.76020  1.0000 0.3203445037
H   H5        1.0  0.13290  0.27520  0.82350  1.0000 0.3394276172
H   H6        1.0  0.06000  0.28350  0.82560  1.0000 0.3203445037
H   H7        1.0  0.23460  0.75710  0.15090  1.0000 0.3288969025
H   H8        1.0  0.30470  0.74230  0.15060  1.0000 0.3288969025
H   H9        1.0  0.38730  0.91840  0.07470  1.0000 0.3288969025
H   H10       1.0  0.41440  0.85760  0.08100  1.0000 0.3203445037
H   H11       1.0  0.91420  0.06390  0.40280  1.0000 0.3394276172
H   H12       1.0  0.89900  0.13230  0.40020  1.0000 0.3203445037
H   H13       1.0  0.45490  0.55450  0.19990  1.0000 0.1290608794
H   H14       1.0  0.42790  0.46750  0.24950  1.0000 0.1212371845
H   H15       1.0  0.29730  0.55430  0.30850  1.0000 0.1212371845
H   H16       1.0  0.32750  0.64220  0.25940  1.0000 0.1290608794
H   H17       1.0  0.45300  0.33780  0.29400  1.0000 0.1212371845
H   H18       1.0  0.37330  0.14160  0.37090  1.0000 0.1290608794
H   H19       1.0  0.31470  0.22300  0.37230  1.0000 0.1212371845
H   H20       1.0  0.15820  0.25220  0.36940  1.0000 0.1212371845
H   H21       1.0  0.04480  0.22820  0.39250  1.0000 0.1290608794
H   H22       1.0  0.06770  0.43370  0.39090  1.0000 0.1290608794
H   H23       1.0  0.17850  0.45770  0.36670  1.0000 0.1212371845
H   H24       1.0  0.93720  0.90950  0.70800  1.0000 0.1290608794
H   H25       1.0  0.88950  0.80600  0.74070  1.0000 0.1290608794
H   H26       1.0  0.72770  0.86480  0.77320  1.0000 0.1212371845
H   H27       1.0  0.77470  0.96860  0.74130  1.0000 0.1290608794
H   H28       1.0  0.87320  0.63450  0.75390  1.0000 0.1212371845
H   H29       1.0  0.90830  0.53720  0.74420  1.0000 0.1290608794
H   H30       1.0  0.80190  0.45890  0.84990  1.0000 0.1361577213
H   H31       1.0  0.75720  0.55200  0.85530  1.0000 0.1212371845
H   H32       1.0  0.62970  0.60220  0.87790  1.0000 0.1290608794
H   H33       1.0  0.52550  0.58420  0.90920  1.0000 0.1290608794
H   H34       1.0  0.49880  0.74890  0.85180  1.0000 0.1290608794
H   H35       1.0  0.60640  0.77110  0.82300  1.0000 0.1212371845
H   H36       1.0  0.62150  0.72400  0.03840  1.0000 0.1290608794
H   H37       1.0  0.70950  0.75110  0.98990  1.0000 0.1212371845
H   H38       1.0  0.65860  0.91610  0.95580  1.0000 0.1212371845
H   H39       1.0  0.57090  0.88960  0.00350  1.0000 0.1290608794
H   H40       1.0  0.84130  0.72240  0.94840  1.0000 0.1212371845
H   H41       1.0  0.91340  0.65640  0.94180  1.0000 0.1290608794
H   H42       1.0  0.02720  0.78980  0.85880  1.0000 0.1290608794
H   H43       1.0  0.95650  0.85760  0.86730  1.0000 0.1212371845
H   H44       1.0  0.94090  0.01970  0.87680  1.0000 0.1212371845
H   H45       1.0  0.96930  0.13080  0.85160  1.0000 0.1290608794
H   H46       1.0  0.75890  0.11200  0.84200  1.0000 0.1290608794
H   H47       1.0  0.73310  0.00560  0.87200  1.0000 0.1290608794
H   H48       1.0  0.27240  0.25390  0.54100  1.0000 0.1290608794
H   H49       1.0  0.37450  0.29830  0.50490  1.0000 0.1212371845
H   H50       1.0  0.30430  0.45490  0.46940  1.0000 0.1212371845
H   H51       1.0  0.20470  0.40800  0.50700  1.0000 0.1290608794
H   H52       1.0  0.57070  0.55840  0.36660  1.0000 0.1212371845
H   H53       1.0  0.59100  0.66210  0.33480  1.0000 0.1290608794
H   H54       1.0  0.43780  0.70060  0.39790  1.0000 0.1290608794
H   H55       1.0  0.41380  0.59120  0.42890  1.0000 0.1212371845
H   H56       1.0  0.52320  0.29250  0.47020  1.0000 0.1290608794
H   H57       1.0  0.61190  0.24560  0.47190  1.0000 0.1290608794
H   H58       1.0  0.72850  0.39790  0.40710  1.0000 0.1361577213
H   H59       1.0  0.64120  0.45190  0.40560  1.0000 0.1212371845
H   H60       1.0  0.98040  0.26060  0.50310  1.0000 0.1104451541
H   H61       1.0  0.79400  0.02340  0.60110  1.0000 0.1104451541
H   H62       1.0  0.91020  0.18950  0.73370  1.0000 0.1104451541
H   H63       1.0  0.15800  0.37600  0.64460  1.0000 0.1104451541
H   H64       1.0  0.99990  0.49120  0.86580  1.0000 0.1104451541
H   H65       1.0  0.31060  0.49100  0.86720  1.0000 0.1104451541
H   H66       1.0  0.40000  0.66170  0.01250  1.0000 0.1104451541
H   H67       1.0  0.10880  0.71110  0.99540  1.0000 0.1000665277
H   H68       1.0  0.52800  0.79230  0.22780  1.0000 0.1104451541
H   H69       1.0  0.44330  0.05340  0.22630  1.0000 0.1000665277
H   H70       1.0  0.67530  0.17620  0.35650  1.0000 0.1104451541
H   H71       1.0  0.69370  0.88230  0.36970  1.0000 0.1104451541
H   H72       1.0  0.51110  0.25670  0.29490  1.0000 0.1290608794
H   H73       1.0  0.34070  0.92940  0.51910  1.0000 0.3288969025
H   H74       1.0  0.28860  0.86870  0.53950  1.0000 0.3203445037
H   H75       1.0  0.92090  0.49510  0.26090  1.0000 0.3394276172
H   H76       1.0  0.98060  0.54710  0.23980  1.0000 0.3203445037
H   H77       1.0  0.86710  0.72480  0.17650  1.0000 0.3288969025
H   H78       1.0  0.94000  0.71650  0.17440  1.0000 0.3203445037
H   H79       1.0  0.76540  0.24290  0.84910  1.0000 0.3288969025
H   H80       1.0  0.69530  0.25770  0.84940  1.0000 0.3203445037
H   H81       1.0  0.61270  0.08160  0.92530  1.0000 0.3288969025
H   H82       1.0  0.58560  0.14240  0.91900  1.0000 0.3203445037
H   H83       1.0  0.08580  0.93610  0.59720  1.0000 0.3394276172
H   H84       1.0  0.10100  0.86770  0.59980  1.0000 0.3203445037
H   H85       1.0  0.54510  0.44550  0.80010  1.0000 0.1290608794
H   H86       1.0  0.57210  0.53250  0.75050  1.0000 0.1212371845
H   H87       1.0  0.70270  0.44570  0.69150  1.0000 0.1212371845
H   H88       1.0  0.67250  0.35780  0.74060  1.0000 0.1290608794
H   H89       1.0  0.54700  0.66220  0.70600  1.0000 0.1212371845
H   H90       1.0  0.62670  0.85840  0.62910  1.0000 0.1290608794
H   H91       1.0  0.68530  0.77700  0.62770  1.0000 0.1212371845
H   H92       1.0  0.84180  0.74780  0.63060  1.0000 0.1212371845
H   H93       1.0  0.95520  0.77180  0.60750  1.0000 0.1290608794
H   H94       1.0  0.93230  0.56630  0.60910  1.0000 0.1290608794
H   H95       1.0  0.82150  0.54230  0.63330  1.0000 0.1212371845
H   H96       1.0  0.06280  0.09050  0.29200  1.0000 0.1290608794
H   H97       1.0  0.11050  0.19400  0.25930  1.0000 0.1290608794
H   H98       1.0  0.27230  0.13520  0.22680  1.0000 0.1212371845
H   H99       1.0  0.22530  0.03140  0.25870  1.0000 0.1290608794
H   H100      1.0  0.12680  0.36550  0.24610  1.0000 0.1212371845
H   H101      1.0  0.09170  0.46280  0.25580  1.0000 0.1290608794
H   H102      1.0  0.19810  0.54110  0.15010  1.0000 0.1361577213
H   H103      1.0  0.24280  0.44800  0.14470  1.0000 0.1212371845
H   H104      1.0  0.37030  0.39780  0.12210  1.0000 0.1290608794
H   H105      1.0  0.47450  0.41580  0.09080  1.0000 0.1290608794
H   H106      1.0  0.50120  0.25110  0.14820  1.0000 0.1290608794
H   H107      1.0  0.39360  0.22890  0.17700  1.0000 0.1212371845
H   H108      1.0  0.37850  0.27600  0.96160  1.0000 0.1290608794
H   H109      1.0  0.29050  0.24890  0.01010  1.0000 0.1212371845
H   H110      1.0  0.34140  0.08390  0.04420  1.0000 0.1212371845
H   H111      1.0  0.42910  0.11040  0.99650  1.0000 0.1290608794
H   H112      1.0  0.15870  0.27760  0.05160  1.0000 0.1212371845
H   H113      1.0  0.08660  0.34360  0.05820  1.0000 0.1290608794
H   H114      1.0  0.97280  0.21020  0.14120  1.0000 0.1290608794
H   H115      1.0  0.04350  0.14240  0.13270  1.0000 0.1212371845
H   H116      1.0  0.05910  0.98030  0.12320  1.0000 0.1212371845
H   H117      1.0  0.03070  0.86920  0.14840  1.0000 0.1290608794
H   H118      1.0  0.24110  0.88800  0.15800  1.0000 0.1290608794
H   H119      1.0  0.26690  0.99440  0.12800  1.0000 0.1290608794
H   H120      1.0  0.72760  0.74610  0.45900  1.0000 0.1290608794
H   H121      1.0  0.62550  0.70170  0.49510  1.0000 0.1212371845
H   H122      1.0  0.69570  0.54510  0.53060  1.0000 0.1212371845
H   H123      1.0  0.79530  0.59200  0.49300  1.0000 0.1290608794
H   H124      1.0  0.42930  0.44160  0.63340  1.0000 0.1212371845
H   H125      1.0  0.40900  0.33790  0.66520  1.0000 0.1290608794
H   H126      1.0  0.56220  0.29940  0.60210  1.0000 0.1290608794
H   H127      1.0  0.58620  0.40880  0.57110  1.0000 0.1212371845
H   H128      1.0  0.47680  0.70750  0.52980  1.0000 0.1290608794
H   H129      1.0  0.38810  0.75440  0.52810  1.0000 0.1290608794
H   H130      1.0  0.27150  0.60210  0.59290  1.0000 0.1361577213
H   H131      1.0  0.35880  0.54810  0.59440  1.0000 0.1212371845
H   H132      1.0  0.01960  0.73940  0.49690  1.0000 0.1104451541
H   H133      1.0  0.20600  0.97660  0.39890  1.0000 0.1104451541
H   H134      1.0  0.08980  0.81050  0.26630  1.0000 0.1104451541
H   H135      1.0  0.84200  0.62400  0.35540  1.0000 0.1104451541
H   H136      1.0  0.00010  0.50880  0.13420  1.0000 0.1104451541
H   H137      1.0  0.68940  0.50900  0.13280  1.0000 0.1104451541
H   H138      1.0  0.60000  0.33830  0.98750  1.0000 0.1104451541
H   H139      1.0  0.89120  0.28890  0.00460  1.0000 0.1000665277
H   H140      1.0  0.47200  0.20770  0.77220  1.0000 0.1104451541
H   H141      1.0  0.55670  0.94660  0.77370  1.0000 0.1000665277
H   H142      1.0  0.32470  0.82380  0.64350  1.0000 0.1104451541
H   H143      1.0  0.30630  0.11770  0.63030  1.0000 0.1104451541
H   H144      1.0  0.48890  0.74330  0.70510  1.0000 0.1290608794
C   C1        1.0  0.40060  0.65720  0.18750  1.0000 0.549827531
C   C2        1.0  0.39100  0.60440  0.22320  1.0000 -0.0027787043
C   C3        1.0  0.42210  0.55380  0.22150  1.0000 -0.1086292428
C   C4        1.0  0.40600  0.50220  0.25080  1.0000 -0.1086292428
C   C5        1.0  0.35740  0.50030  0.28250  1.0000 0.0207907448
C   C6        1.0  0.32870  0.55350  0.28610  1.0000 -0.1086292428
C   C7        1.0  0.34640  0.60520  0.25660  1.0000 -0.101203682
C   C8        1.0  0.33240  0.43970  0.30860  1.0000 0.3580581919
C   C9        1.0  0.33910  0.33840  0.33040  1.0000 0.3704800457
C   C10       1.0  0.24840  0.37280  0.34720  1.0000 0.3704800457
C   C11       1.0  0.37710  0.28720  0.33230  1.0000 0.0207907448
C   C12       1.0  0.43610  0.29750  0.30980  1.0000 -0.1086292428
C   C13       1.0  0.44790  0.19100  0.33240  1.0000 -0.0093930801
C   C14       1.0  0.38980  0.18200  0.35510  1.0000 -0.1086292428
C   C15       1.0  0.35430  0.23000  0.35570  1.0000 -0.101203682
C   C16       1.0  0.48340  0.13750  0.33120  1.0000 0.531910941
C   C17       1.0  0.17970  0.35810  0.36480  1.0000 0.0120250357
C   C18       1.0  0.13980  0.28940  0.37330  1.0000 -0.1086292428
C   C19       1.0  0.07230  0.27560  0.38760  1.0000 -0.1196297651
C   C20       1.0  0.04490  0.32790  0.39460  1.0000 -0.0027787043
C   C21       1.0  0.08570  0.39620  0.38640  1.0000 -0.101203682
C   C22       1.0  0.15160  0.41040  0.37190  1.0000 -0.1086292428
C   C23       1.0  0.97290  0.31200  0.41120  1.0000 0.549827531
C   C24       1.0  0.88630  0.01550  0.69910  1.0000 0.5391067316
C   C25       1.0  0.85950  0.94890  0.72120  1.0000 -0.0027787043
C   C26       1.0  0.89440  0.90060  0.72140  1.0000 -0.101203682
C   C27       1.0  0.86640  0.83970  0.74120  1.0000 -0.1196297651
C   C28       1.0  0.80590  0.82670  0.76160  1.0000 0.0277763643
C   C29       1.0  0.77110  0.87430  0.76040  1.0000 -0.1086292428
C   C30       1.0  0.79840  0.93540  0.74100  1.0000 -0.101203682
C   C31       1.0  0.77610  0.76190  0.78430  1.0000 0.3795102934
C   C32       1.0  0.78000  0.65770  0.80420  1.0000 0.3704800457
C   C33       1.0  0.69410  0.69940  0.82550  1.0000 0.3795102934
C   C34       1.0  0.80940  0.60210  0.80370  1.0000 0.0120250357
C   C35       1.0  0.85620  0.59730  0.77240  1.0000 -0.101203682
C   C36       1.0  0.87850  0.54050  0.76730  1.0000 -0.1086292428
C   C37       1.0  0.85770  0.48850  0.79560  1.0000 0.0023458485
C   C38       1.0  0.81430  0.49380  0.82920  1.0000 -0.0903297439
C   C39       1.0  0.78840  0.54970  0.83300  1.0000 -0.101203682
C   C40       1.0  0.88200  0.42360  0.78780  1.0000 0.5391067316
C   C41       1.0  0.62850  0.68840  0.84710  1.0000 0.0120250357
C   C42       1.0  0.60330  0.63270  0.87280  1.0000 -0.1196297651
C   C43       1.0  0.54130  0.62140  0.89060  1.0000 -0.101203682
C   C44       1.0  0.50080  0.66400  0.88180  1.0000 0.0023458485
C   C45       1.0  0.52570  0.71900  0.85720  1.0000 -0.101203682
C   C46       1.0  0.58940  0.73200  0.83990  1.0000 -0.1196297651
C   C47       1.0  0.42820  0.64740  0.89810  1.0000 0.5391067316
C   C48       1.0  0.53070  0.78940  0.05730  1.0000 0.5574490279
C   C49       1.0  0.58730  0.80420  0.02650  1.0000 -0.0093930801
C   C50       1.0  0.62870  0.76370  0.02170  1.0000 -0.101203682
C   C51       1.0  0.68130  0.78000  0.99280  1.0000 -0.1086292428
C   C52       1.0  0.69310  0.83690  0.96830  1.0000 0.0277763643
C   C53       1.0  0.65160  0.87670  0.97270  1.0000 -0.1086292428
C   C54       1.0  0.59930  0.86080  0.00120  1.0000 -0.101203682
C   C55       1.0  0.75310  0.85900  0.94060  1.0000 0.3704800457
C   C56       1.0  0.84820  0.84240  0.91420  1.0000 0.3513546139
C   C57       1.0  0.81910  0.93500  0.89760  1.0000 0.3580581919
C   C58       1.0  0.89300  0.79900  0.90960  1.0000 0.0207907448
C   C59       1.0  0.87970  0.73680  0.93080  1.0000 -0.1086292428
C   C60       1.0  0.92170  0.69720  0.92620  1.0000 -0.101203682
C   C61       1.0  0.97600  0.71490  0.89920  1.0000 -0.0093930801
C   C62       1.0  0.98960  0.77640  0.87710  1.0000 -0.1086292428
C   C63       1.0  0.94780  0.81640  0.88260  1.0000 -0.1086292428
C   C64       1.0  0.02350  0.67200  0.89620  1.0000 0.5391067316
C   C65       1.0  0.83400  0.00240  0.87760  1.0000 0.0277763643
C   C66       1.0  0.90390  0.03920  0.87100  1.0000 -0.101203682
C   C67       1.0  0.92040  0.10520  0.85570  1.0000 -0.101203682
C   C68       1.0  0.86880  0.13390  0.84640  1.0000 -0.0093930801
C   C69       1.0  0.79720  0.09480  0.85070  1.0000 -0.1086292428
C   C70       1.0  0.78180  0.03080  0.86740  1.0000 -0.1086292428
C   C71       1.0  0.88960  0.20650  0.83150  1.0000 0.549827531
C   C72       1.0  0.16140  0.29330  0.54710  1.0000 0.549827531
C   C73       1.0  0.22890  0.32560  0.52510  1.0000 0.0023458485
C   C74       1.0  0.27910  0.29480  0.52570  1.0000 -0.101203682
C   C75       1.0  0.34020  0.32120  0.50470  1.0000 -0.101203682
C   C76       1.0  0.34940  0.38180  0.48350  1.0000 0.0207907448
C   C77       1.0  0.29850  0.41350  0.48400  1.0000 -0.1086292428
C   C78       1.0  0.23870  0.38510  0.50580  1.0000 -0.101203682
C   C79       1.0  0.41380  0.41240  0.46060  1.0000 0.3704800457
C   C80       1.0  0.51800  0.41090  0.43970  1.0000 0.3704800457
C   C81       1.0  0.47960  0.49830  0.42220  1.0000 0.3704800457
C   C82       1.0  0.49110  0.56550  0.40120  1.0000 0.0207907448
C   C83       1.0  0.54310  0.58690  0.37310  1.0000 -0.1086292428
C   C84       1.0  0.55540  0.64830  0.35470  1.0000 -0.0903297439
C   C85       1.0  0.51720  0.69060  0.36430  1.0000 0.0023458485
C   C86       1.0  0.46470  0.67120  0.39150  1.0000 -0.1086292428
C   C87       1.0  0.45080  0.60630  0.41020  1.0000 -0.1086292428
C   C88       1.0  0.57480  0.37830  0.43980  1.0000 0.0277763643
C   C89       1.0  0.56620  0.31600  0.45810  1.0000 -0.1196297651
C   C90       1.0  0.61870  0.28850  0.45890  1.0000 -0.101203682
C   C91       1.0  0.68020  0.31920  0.44220  1.0000 0.0120250357
C   C92       1.0  0.68700  0.37780  0.42130  1.0000 -0.1196297651
C   C93       1.0  0.63510  0.41000  0.41980  1.0000 -0.101203682
C   C94       1.0  0.74180  0.28890  0.44250  1.0000 0.5391067316
C   C95       1.0  0.94320  0.22390  0.51350  1.0000 0.1897291459
C   C96       1.0  0.83800  0.14930  0.51740  1.0000 -0.0433160861
C   C97       1.0  0.89330  0.14320  0.55310  1.0000 0.281062007
C   C98       1.0  0.80610  0.05680  0.57930  1.0000 0.2213440364
C   C99       1.0  0.76340  0.10280  0.51500  1.0000 0.3920595348
C   C100      1.0  0.94740  0.22680  0.72360  1.0000 0.1897291459
C   C101      1.0  0.02980  0.27740  0.68700  1.0000 0.281062007
C   C102      1.0  0.02040  0.33010  0.71780  1.0000 -0.0481360505
C   C103      1.0  0.06340  0.40440  0.71880  1.0000 0.4014369399
C   C104      1.0  0.12010  0.36310  0.66280  1.0000 0.2382266
C   C105      1.0  0.04280  0.48090  0.86460  1.0000 0.1897291459
C   C106      1.0  0.15620  0.49690  0.86910  1.0000 0.2928869874
C   C107      1.0  0.11090  0.42360  0.85260  1.0000 -0.0481360505
C   C108      1.0  0.14600  0.37500  0.84330  1.0000 0.4014369399
C   C109      1.0  0.25810  0.47340  0.86410  1.0000 0.2213440364
C   C110      1.0  0.35800  0.67180  0.01700  1.0000 0.1897291459
C   C111      1.0  0.28410  0.70420  0.05250  1.0000 -0.0481360505
C   C112      1.0  0.25330  0.68240  0.00050  1.0000 0.2964624316
C   C113      1.0  0.15440  0.70750  0.01010  1.0000 0.233460635
C   C114      1.0  0.24240  0.72540  0.08320  1.0000 0.3795102934
C   C115      1.0  0.51110  0.82910  0.22010  1.0000 0.1968954355
C   C116      1.0  0.48870  0.92250  0.22900  1.0000 0.281062007
C   C117      1.0  0.46560  0.89020  0.17860  1.0000 -0.0433160861
C   C118      1.0  0.43220  0.92290  0.14490  1.0000 0.3920595348
C   C119      1.0  0.44940  0.01010  0.21400  1.0000 0.2213440364
C   C120      1.0  0.68930  0.13650  0.36020  1.0000 0.1897291459
C   C121      1.0  0.68000  0.02720  0.36000  1.0000 0.2928869874
C   C122      1.0  0.70950  0.93290  0.36970  1.0000 0.233460635
C   C123      1.0  0.80840  0.04420  0.38660  1.0000 0.4014369399
C   C124      1.0  0.75450  0.07570  0.37610  1.0000 -0.0481360505
C   C125      1.0  0.47040  0.24900  0.31040  1.0000 -0.1086292428
C   C126      1.0  0.53040  0.76100  0.34640  1.0000 0.5391067316
C   C127      1.0  0.59940  0.34280  0.81250  1.0000 0.549827531
C   C128      1.0  0.60900  0.39560  0.77680  1.0000 -0.0027787043
C   C129      1.0  0.57790  0.44620  0.77850  1.0000 -0.1086292428
C   C130      1.0  0.59400  0.49780  0.74920  1.0000 -0.1086292428
C   C131      1.0  0.64260  0.49970  0.71750  1.0000 0.0207907448
C   C132      1.0  0.67130  0.44650  0.71390  1.0000 -0.101203682
C   C133      1.0  0.65360  0.39480  0.74340  1.0000 -0.101203682
C   C134      1.0  0.66760  0.56030  0.69140  1.0000 0.3580581919
C   C135      1.0  0.66090  0.66160  0.66960  1.0000 0.3704800457
C   C136      1.0  0.75160  0.62720  0.65280  1.0000 0.3704800457
C   C137      1.0  0.62290  0.71280  0.66770  1.0000 0.0207907448
C   C138      1.0  0.56390  0.70250  0.69020  1.0000 -0.1086292428
C   C139      1.0  0.55210  0.80900  0.66760  1.0000 -0.0093930801
C   C140      1.0  0.61020  0.81800  0.64490  1.0000 -0.1086292428
C   C141      1.0  0.64570  0.77000  0.64430  1.0000 -0.101203682
C   C142      1.0  0.51660  0.86250  0.66880  1.0000 0.531910941
C   C143      1.0  0.82030  0.64190  0.63520  1.0000 0.0120250357
C   C144      1.0  0.86020  0.71060  0.62670  1.0000 -0.1086292428
C   C145      1.0  0.92770  0.72440  0.61240  1.0000 -0.1196297651
C   C146      1.0  0.95510  0.67210  0.60540  1.0000 -0.0027787043
C   C147      1.0  0.91430  0.60380  0.61360  1.0000 -0.101203682
C   C148      1.0  0.84840  0.58960  0.62810  1.0000 -0.1086292428
C   C149      1.0  0.02710  0.68800  0.58880  1.0000 0.549827531
C   C150      1.0  0.11370  0.98450  0.30090  1.0000 0.5391067316
C   C151      1.0  0.14050  0.05110  0.27880  1.0000 -0.0027787043
C   C152      1.0  0.10560  0.09940  0.27860  1.0000 -0.101203682
C   C153      1.0  0.13360  0.16030  0.25880  1.0000 -0.1196297651
C   C154      1.0  0.19410  0.17330  0.23840  1.0000 0.0277763643
C   C155      1.0  0.22890  0.12570  0.23960  1.0000 -0.1086292428
C   C156      1.0  0.20160  0.06460  0.25900  1.0000 -0.101203682
C   C157      1.0  0.22390  0.23810  0.21570  1.0000 0.3795102934
C   C158      1.0  0.22000  0.34230  0.19580  1.0000 0.3704800457
C   C159      1.0  0.30590  0.30060  0.17450  1.0000 0.3795102934
C   C160      1.0  0.19060  0.39790  0.19630  1.0000 0.0120250357
C   C161      1.0  0.14380  0.40270  0.22760  1.0000 -0.101203682
C   C162      1.0  0.12150  0.45950  0.23270  1.0000 -0.1086292428
C   C163      1.0  0.14230  0.51150  0.20440  1.0000 0.0023458485
C   C164      1.0  0.18570  0.50620  0.17080  1.0000 -0.0903297439
C   C165      1.0  0.21160  0.45030  0.16700  1.0000 -0.101203682
C   C166      1.0  0.11800  0.57640  0.21220  1.0000 0.5391067316
C   C167      1.0  0.37150  0.31160  0.15290  1.0000 0.0120250357
C   C168      1.0  0.39670  0.36730  0.12720  1.0000 -0.1196297651
C   C169      1.0  0.45870  0.37860  0.10940  1.0000 -0.101203682
C   C170      1.0  0.49920  0.33600  0.11820  1.0000 0.0023458485
C   C171      1.0  0.47430  0.28100  0.14280  1.0000 -0.101203682
C   C172      1.0  0.41060  0.26800  0.16010  1.0000 -0.1196297651
C   C173      1.0  0.57180  0.35260  0.10190  1.0000 0.5391067316
C   C174      1.0  0.46930  0.21060  0.94270  1.0000 0.5574490279
C   C175      1.0  0.41270  0.19580  0.97350  1.0000 -0.0093930801
C   C176      1.0  0.37130  0.23630  0.97830  1.0000 -0.101203682
C   C177      1.0  0.31870  0.22000  0.00720  1.0000 -0.1086292428
C   C178      1.0  0.30690  0.16310  0.03170  1.0000 0.0277763643
C   C179      1.0  0.34840  0.12330  0.02730  1.0000 -0.1086292428
C   C180      1.0  0.40070  0.13920  0.99880  1.0000 -0.101203682
C   C181      1.0  0.24690  0.14100  0.05940  1.0000 0.3704800457
C   C182      1.0  0.15180  0.15760  0.08580  1.0000 0.3513546139
C   C183      1.0  0.18090  0.06500  0.10240  1.0000 0.3580581919
C   C184      1.0  0.10700  0.20100  0.09040  1.0000 0.0207907448
C   C185      1.0  0.12030  0.26320  0.06920  1.0000 -0.1086292428
C   C186      1.0  0.07830  0.30280  0.07380  1.0000 -0.101203682
C   C187      1.0  0.02400  0.28510  0.10080  1.0000 -0.0093930801
C   C188      1.0  0.01040  0.22360  0.12290  1.0000 -0.1086292428
C   C189      1.0  0.05220  0.18360  0.11740  1.0000 -0.1086292428
C   C190      1.0  0.97650  0.32800  0.10380  1.0000 0.5391067316
C   C191      1.0  0.16600  0.99760  0.12240  1.0000 0.0277763643
C   C192      1.0  0.09610  0.96080  0.12900  1.0000 -0.1086292428
C   C193      1.0  0.07960  0.89480  0.14430  1.0000 -0.101203682
C   C194      1.0  0.13120  0.86610  0.15360  1.0000 -0.0093930801
C   C195      1.0  0.20280  0.90520  0.14930  1.0000 -0.1086292428
C   C196      1.0  0.21820  0.96920  0.13260  1.0000 -0.1086292428
C   C197      1.0  0.11040  0.79350  0.16850  1.0000 0.549827531
C   C198      1.0  0.83860  0.70670  0.45290  1.0000 0.549827531
C   C199      1.0  0.77110  0.67440  0.47490  1.0000 0.0023458485
C   C200      1.0  0.72090  0.70520  0.47430  1.0000 -0.101203682
C   C201      1.0  0.65980  0.67880  0.49530  1.0000 -0.101203682
C   C202      1.0  0.65060  0.61820  0.51650  1.0000 0.0207907448
C   C203      1.0  0.70150  0.58650  0.51600  1.0000 -0.1086292428
C   C204      1.0  0.76130  0.61490  0.49420  1.0000 -0.101203682
C   C205      1.0  0.58620  0.58760  0.53940  1.0000 0.3704800457
C   C206      1.0  0.48200  0.58910  0.56030  1.0000 0.3704800457
C   C207      1.0  0.52040  0.50170  0.57780  1.0000 0.3704800457
C   C208      1.0  0.50890  0.43450  0.59880  1.0000 0.0207907448
C   C209      1.0  0.45690  0.41310  0.62690  1.0000 -0.1086292428
C   C210      1.0  0.44460  0.35170  0.64530  1.0000 -0.0903297439
C   C211      1.0  0.48280  0.30940  0.63570  1.0000 0.0023458485
C   C212      1.0  0.53530  0.32880  0.60850  1.0000 -0.1086292428
C   C213      1.0  0.54920  0.39370  0.58980  1.0000 -0.1086292428
C   C214      1.0  0.42520  0.62170  0.56020  1.0000 0.0277763643
C   C215      1.0  0.43380  0.68400  0.54190  1.0000 -0.1086292428
C   C216      1.0  0.38130  0.71150  0.54110  1.0000 -0.101203682
C   C217      1.0  0.31980  0.68080  0.55780  1.0000 0.0023458485
C   C218      1.0  0.31300  0.62220  0.57870  1.0000 -0.1196297651
C   C219      1.0  0.36490  0.59000  0.58020  1.0000 -0.101203682
C   C220      1.0  0.25820  0.71110  0.55750  1.0000 0.5391067316
C   C221      1.0  0.05680  0.77610  0.48650  1.0000 0.1897291459
C   C222      1.0  0.16200  0.85070  0.48260  1.0000 -0.0433160861
C   C223      1.0  0.10670  0.85680  0.44690  1.0000 0.281062007
C   C224      1.0  0.19390  0.94320  0.42070  1.0000 0.2213440364
C   C225      1.0  0.23660  0.89720  0.48500  1.0000 0.3920595348
C   C226      1.0  0.05260  0.77320  0.27640  1.0000 0.1897291459
C   C227      1.0  0.97020  0.72260  0.31300  1.0000 0.281062007
C   C228      1.0  0.97960  0.66990  0.28220  1.0000 -0.0481360505
C   C229      1.0  0.93660  0.59560  0.28120  1.0000 0.4014369399
C   C230      1.0  0.87990  0.63690  0.33720  1.0000 0.2382266
C   C231      1.0  0.95720  0.51910  0.13540  1.0000 0.1897291459
C   C232      1.0  0.84380  0.50310  0.13090  1.0000 0.2964624316
C   C233      1.0  0.88910  0.57640  0.14740  1.0000 -0.0481360505
C   C234      1.0  0.85400  0.62500  0.15670  1.0000 0.4014369399
C   C235      1.0  0.74190  0.52660  0.13590  1.0000 0.2213440364
C   C236      1.0  0.64200  0.32820  0.98300  1.0000 0.1968954355
C   C237      1.0  0.71590  0.29580  0.94750  1.0000 -0.0481360505
C   C238      1.0  0.74670  0.31760  0.99950  1.0000 0.2964624316
C   C239      1.0  0.84560  0.29250  0.98990  1.0000 0.233460635
C   C240      1.0  0.75760  0.27460  0.91680  1.0000 0.3795102934
C   C241      1.0  0.48890  0.17090  0.77990  1.0000 0.1968954355
C   C242      1.0  0.51130  0.07750  0.77100  1.0000 0.281062007
C   C243      1.0  0.53440  0.10980  0.82140  1.0000 -0.0481360505
C   C244      1.0  0.56780  0.07710  0.85510  1.0000 0.3920595348
C   C245      1.0  0.55060  0.98990  0.78600  1.0000 0.2213440364
C   C246      1.0  0.31070  0.86350  0.63980  1.0000 0.1897291459
C   C247      1.0  0.32000  0.97280  0.64000  1.0000 0.2928869874
C   C248      1.0  0.29050  0.06710  0.63030  1.0000 0.233460635
C   C249      1.0  0.19160  0.95580  0.61340  1.0000 0.4014369399
C   C250      1.0  0.24550  0.92430  0.62390  1.0000 -0.0481360505
C   C251      1.0  0.52960  0.75100  0.68960  1.0000 -0.1086292428
C   C252      1.0  0.46960  0.23900  0.65360  1.0000 0.5391067316
N   N1        1.0  0.76080  0.14630  0.37710  1.0000 -0.3203487793
N   N2        1.0  0.27510  0.43320  0.32927  1.0000 -0.4007453703
N   N3        1.0  0.36770  0.39560  0.30938  1.0000 -0.4007453703
N   N4        1.0  0.27960  0.32450  0.34992  1.0000 -0.4007453703
N   N5        1.0  0.80720  0.71270  0.78137  1.0000 -0.4007453703
N   N6        1.0  0.71950  0.75770  0.80534  1.0000 -0.4074488232
N   N7        1.0  0.72490  0.65010  0.82836  1.0000 -0.4007453703
N   N8        1.0  0.79410  0.81850  0.93904  1.0000 -0.4074488232
N   N9        1.0  0.86450  0.90110  0.89474  1.0000 -0.3906088968
N   N10       1.0  0.76120  0.91570  0.91926  1.0000 -0.3906088968
N   N11       1.0  0.46030  0.37930  0.46039  1.0000 -0.4074488232
N   N12       1.0  0.52840  0.46940  0.41894  1.0000 -0.4007453703
N   N13       1.0  0.41980  0.47280  0.44272  1.0000 -0.4193357974
N   N14       1.0  0.87120  0.20180  0.49120  1.0000 -0.3203487793
N   N15       1.0  0.96220  0.19270  0.55145  1.0000 -0.3596416339
N   N16       1.0  0.87960  0.09810  0.58730  1.0000 -0.3661706249
N   N17       1.0  0.74910  0.05560  0.54630  1.0000 -0.3906088968
N   N18       1.0  0.70490  0.10140  0.48180  1.0000 -0.5194691005
N   N19       1.0  0.98210  0.21040  0.69002  1.0000 -0.3503930867
N   N20       1.0  0.96600  0.29650  0.74264  1.0000 -0.3132394105
N   N21       1.0  0.07920  0.29140  0.65599  1.0000 -0.3596416339
N   N22       1.0  0.11500  0.41760  0.69100  1.0000 -0.4007453703
N   N23       1.0  0.05280  0.46030  0.74190  1.0000 -0.5194691005
N   N24       1.0  0.03680  0.41380  0.84948  1.0000 -0.3203487793
N   N25       1.0  0.11210  0.53410  0.87822  1.0000 -0.3596416339
N   N26       1.0  0.23200  0.52500  0.87650  1.0000 -0.3596416339
N   N27       1.0  0.22080  0.40260  0.84830  1.0000 -0.4007453703
N   N28       1.0  0.10880  0.30320  0.82920  1.0000 -0.5085183928
N   N29       1.0  0.30060  0.66160  0.97765  1.0000 -0.3596416339
N   N30       1.0  0.35170  0.69700  0.06286  1.0000 -0.3132394105
N   N31       1.0  0.18610  0.68150  0.97669  1.0000 -0.3661706249
N   N32       1.0  0.17810  0.72850  0.05980  1.0000 -0.4007453703
N   N33       1.0  0.26290  0.74360  0.13390  1.0000 -0.529228126
N   N34       1.0  0.47970  0.82820  0.17261  1.0000 -0.3017365038
N   N35       1.0  0.51820  0.88360  0.25647  1.0000 -0.3503930867
N   N36       1.0  0.48390  0.98570  0.24939  1.0000 -0.3436094969
N   N37       1.0  0.42220  0.98270  0.16380  1.0000 -0.4193357974
N   N38       1.0  0.40860  0.89670  0.09450  1.0000 -0.5194691005
N   N39       1.0  0.88230  0.08470  0.39780  1.0000 -0.5085183928
N   N40       1.0  0.78200  0.97100  0.38280  1.0000 -0.3757204264
N   N41       1.0  0.65530  0.95500  0.35648  1.0000 -0.3503930867
N   N42       1.0  0.63860  0.06710  0.34864  1.0000 -0.3596416339
N   N43       1.0  0.23920  0.85370  0.62290  1.0000 -0.3203487793
N   N44       1.0  0.72490  0.56680  0.67073  1.0000 -0.4007453703
N   N45       1.0  0.63230  0.60440  0.69062  1.0000 -0.4007453703
N   N46       1.0  0.72040  0.67550  0.65008  1.0000 -0.4007453703
N   N47       1.0  0.19280  0.28730  0.21863  1.0000 -0.4007453703
N   N48       1.0  0.28050  0.24230  0.19466  1.0000 -0.4074488232
N   N49       1.0  0.27510  0.34990  0.17164  1.0000 -0.4007453703
N   N50       1.0  0.20590  0.18150  0.06096  1.0000 -0.4074488232
N   N51       1.0  0.13550  0.09890  0.10526  1.0000 -0.3906088968
N   N52       1.0  0.23880  0.08430  0.08074  1.0000 -0.3906088968
N   N53       1.0  0.53970  0.62070  0.53961  1.0000 -0.4074488232
N   N54       1.0  0.47160  0.53060  0.58106  1.0000 -0.4007453703
N   N55       1.0  0.58020  0.52720  0.55728  1.0000 -0.4193357974
N   N56       1.0  0.12880  0.79820  0.50880  1.0000 -0.3203487793
N   N57       1.0  0.03780  0.80730  0.44855  1.0000 -0.3596416339
N   N58       1.0  0.12040  0.90190  0.41270  1.0000 -0.3661706249
N   N59       1.0  0.25090  0.94440  0.45370  1.0000 -0.3906088968
N   N60       1.0  0.29510  0.89860  0.51820  1.0000 -0.5194691005
N   N61       1.0  0.01790  0.78960  0.30998  1.0000 -0.3503930867
N   N62       1.0  0.03400  0.70350  0.25736  1.0000 -0.3132394105
N   N63       1.0  0.92080  0.70860  0.34401  1.0000 -0.3596416339
N   N64       1.0  0.88500  0.58240  0.30900  1.0000 -0.4007453703
N   N65       1.0  0.94720  0.53970  0.25810  1.0000 -0.5194691005
N   N66       1.0  0.96320  0.58620  0.15052  1.0000 -0.3203487793
N   N67       1.0  0.88790  0.46590  0.12178  1.0000 -0.3596416339
N   N68       1.0  0.76800  0.47500  0.12350  1.0000 -0.3596416339
N   N69       1.0  0.77920  0.59740  0.15170  1.0000 -0.4007453703
N   N70       1.0  0.89120  0.69680  0.17080  1.0000 -0.5085183928
N   N71       1.0  0.69940  0.33840  0.02235  1.0000 -0.3596416339
N   N72       1.0  0.64830  0.30300  0.93714  1.0000 -0.3132394105
N   N73       1.0  0.81390  0.31850  0.02331  1.0000 -0.3661706249
N   N74       1.0  0.82190  0.27150  0.94020  1.0000 -0.4007453703
N   N75       1.0  0.73710  0.25640  0.86610  1.0000 -0.529228126
N   N76       1.0  0.52030  0.17180  0.82739  1.0000 -0.3017365038
N   N77       1.0  0.48180  0.11640  0.74353  1.0000 -0.3503930867
N   N78       1.0  0.51610  0.01430  0.75061  1.0000 -0.3436094969
N   N79       1.0  0.57780  0.01730  0.83620  1.0000 -0.4193357974
N   N80       1.0  0.59140  0.10330  0.90550  1.0000 -0.5194691005
N   N81       1.0  0.11770  0.91530  0.60220  1.0000 -0.5194691005
N   N82       1.0  0.21800  0.02900  0.61720  1.0000 -0.3757204264
N   N83       1.0  0.34470  0.04500  0.64352  1.0000 -0.3503930867
N   N84       1.0  0.36140  0.93290  0.65136  1.0000 -0.3596416339
O   O1        1.0  0.44870  0.66180  0.16138  1.0000 -0.5194691005
O   O2        1.0  0.36120  0.69210  0.18534  1.0000 -0.529228126
O   O3        1.0  0.53900  0.15010  0.31350  1.0000 -0.529228126
O   O4        1.0  0.45640  0.08080  0.34680  1.0000 -0.4582092613
O   O5        1.0  0.92730  0.24980  0.40240  1.0000 -0.5194691005
O   O6        1.0  0.96480  0.36410  0.43650  1.0000 -0.5194691005
O   O7        1.0  0.85450  0.05710  0.69826  1.0000 -0.529228126
O   O8        1.0  0.94220  0.02500  0.67986  1.0000 -0.5085183928
O   O9        1.0  0.91170  0.41770  0.75320  1.0000 -0.529228126
O   O10       1.0  0.87320  0.38520  0.82120  1.0000 -0.5085183928
O   O11       1.0  0.41280  0.60390  0.92770  1.0000 -0.5561583638
O   O12       1.0  0.38620  0.67600  0.87987  1.0000 -0.4758652001
O   O13       1.0  0.52410  0.73950  0.08255  1.0000 -0.5194691005
O   O14       1.0  0.49240  0.82590  0.05711  1.0000 -0.5398556937
O   O15       1.0  0.00980  0.61600  0.91481  1.0000 -0.5508619249
O   O16       1.0  0.07910  0.69540  0.87708  1.0000 -0.4951775223
O   O17       1.0  0.15610  0.23860  0.56730  1.0000 -0.5085183928
O   O18       1.0  0.11510  0.32130  0.54550  1.0000 -0.5398556937
O   O19       1.0  0.73360  0.24140  0.47140  1.0000 -0.5561583638
O   O20       1.0  0.78790  0.30620  0.42240  1.0000 -0.3661706249
O   O21       1.0  0.05110  0.12850  0.62254  1.0000 -0.6099777519
O   O22       1.0  0.84060  0.22350  0.80712  1.0000 -0.5194691005
O   O23       1.0  0.95760  0.25000  0.84420  1.0000 -0.5398556937
O   O24       1.0  0.22890  0.67660  0.87179  1.0000 -0.6860149651
O   O25       1.0  0.49380  0.94795  0.35524  1.0000 -0.6099777519
O   O26       1.0  0.50050  0.80010  0.35850  1.0000 -0.4308474958
O   O27       1.0  0.57580  0.77560  0.31780  1.0000 -0.5508619249
O   O28       1.0  0.55130  0.33820  0.83862  1.0000 -0.5194691005
O   O29       1.0  0.63880  0.30790  0.81466  1.0000 -0.529228126
O   O30       1.0  0.46100  0.84990  0.68650  1.0000 -0.529228126
O   O31       1.0  0.54360  0.91920  0.65320  1.0000 -0.4582092613
O   O32       1.0  0.07270  0.75020  0.59760  1.0000 -0.5194691005
O   O33       1.0  0.03520  0.63590  0.56350  1.0000 -0.5194691005
O   O34       1.0  0.14550  0.94290  0.30174  1.0000 -0.529228126
O   O35       1.0  0.05780  0.97500  0.32014  1.0000 -0.5085183928
O   O36       1.0  0.08830  0.58230  0.24680  1.0000 -0.5194691005
O   O37       1.0  0.12680  0.61480  0.17880  1.0000 -0.5085183928
O   O38       1.0  0.58720  0.39610  0.07230  1.0000 -0.5561583638
O   O39       1.0  0.61380  0.32400  0.12013  1.0000 -0.4758652001
O   O40       1.0  0.47590  0.26050  0.91745  1.0000 -0.5194691005
O   O41       1.0  0.50760  0.17410  0.94289  1.0000 -0.5398556937
O   O42       1.0  0.99020  0.38400  0.08519  1.0000 -0.5508619249
O   O43       1.0  0.92090  0.30460  0.12292  1.0000 -0.4946334511
O   O44       1.0  0.84390  0.76140  0.43270  1.0000 -0.5085183928
O   O45       1.0  0.88490  0.67870  0.45450  1.0000 -0.5398556937
O   O46       1.0  0.26640  0.75860  0.52860  1.0000 -0.5561583638
O   O47       1.0  0.21210  0.69380  0.57760  1.0000 -0.3661706249
O   O48       1.0  0.94890  0.87150  0.37746  1.0000 -0.6099777519
O   O49       1.0  0.15940  0.77650  0.19288  1.0000 -0.5194691005
O   O50       1.0  0.04240  0.75000  0.15580  1.0000 -0.5398556937
O   O51       1.0  0.77110  0.32340  0.12821  1.0000 -0.6974997669
O   O52       1.0  0.50620  0.05205  0.64476  1.0000 -0.6099777519
O   O53       1.0  0.49950  0.19990  0.64150  1.0000 -0.4308474958
O   O54       1.0  0.42420  0.22440  0.68220  1.0000 -0.5508619249
