# DDEC6 charges by PACMAN v1.1 (https://github.com/mtap-research/PACMAN-charge/)
data_2014[Co][nan]3[FSR]27
_chemical_formula_sum              "Co3 H38 C58 N10 O8"
_cell_length_a       11.5618
_cell_length_b       11.8493
_cell_length_c       15.7206
_cell_angle_alpha    76.325
_cell_angle_beta     71.246
_cell_angle_gamma    65.33

_symmetry_space_group_name_H-M    "P 1"
_symmetry_Int_Tables_number       1

loop_
  _symmetry_equiv_pos_as_xyz
  'x, y, z'

loop_
  _atom_site_type_symbol
  _atom_site_label
  _atom_site_symmetry_multiplicity
  _atom_site_fract_x
  _atom_site_fract_y
  _atom_site_fract_z
  _atom_site_occupancy
  _atom_site_charge
Co  Co1       1.0  0.50000  0.50000  0.00000  1.0000 0.7179083656
Co  Co2       1.0  0.00000  0.00000  0.00000  1.0000 0.7082311939
Co  Co3       1.0  0.00000  0.50000  0.00000  1.0000 0.8926977347
H   H1        1.0  0.70050  0.19410  0.94300  1.0000 0.11084288
H   H2        1.0  0.29950  0.80590  0.05700  1.0000 0.11084288
H   H3        1.0  0.01240  0.97870  0.19510  1.0000 0.11084288
H   H4        1.0  0.98760  0.02130  0.80490  1.0000 0.11084288
H   H5        1.0  0.90480  0.93950  0.34370  1.0000 0.1279531549
H   H6        1.0  0.09520  0.06050  0.65630  1.0000 0.1279531549
H   H7        1.0  0.62090  0.92290  0.25810  1.0000 0.1279531549
H   H8        1.0  0.37910  0.07710  0.74190  1.0000 0.1279531549
H   H9        1.0  0.73180  0.96590  0.11120  1.0000 0.11084288
H   H10       1.0  0.26820  0.03410  0.88880  1.0000 0.11084288
H   H11       1.0  0.74250  0.98430  0.47400  1.0000 0.11084288
H   H12       1.0  0.25750  0.01570  0.52600  1.0000 0.11084288
H   H13       1.0  0.67740  0.90010  0.62250  1.0000 0.11084288
H   H14       1.0  0.32260  0.09990  0.37750  1.0000 0.11084288
H   H15       1.0  0.54160  0.69560  0.53530  1.0000 0.1173773947
H   H16       1.0  0.45840  0.30440  0.46470  1.0000 0.1173773947
H   H17       1.0  0.61130  0.77830  0.38670  1.0000 0.1173773947
H   H18       1.0  0.38870  0.22170  0.61330  1.0000 0.1173773947
H   H19       1.0  0.54320  0.86080  0.75780  1.0000 0.1173773947
H   H20       1.0  0.45680  0.13920  0.24220  1.0000 0.1173773947
H   H21       1.0  0.51260  0.75260  0.89890  1.0000 0.11084288
H   H22       1.0  0.48740  0.24740  0.10110  1.0000 0.11084288
H   H23       1.0  0.58790  0.44810  0.79740  1.0000 0.11084288
H   H24       1.0  0.41210  0.55190  0.20260  1.0000 0.11084288
H   H25       1.0  0.61800  0.54910  0.65410  1.0000 0.1279531549
H   H26       1.0  0.38200  0.45090  0.34590  1.0000 0.1279531549
H   H27       1.0  0.87600  0.66960  0.15110  1.0000 0.11084288
H   H28       1.0  0.12400  0.33040  0.84890  1.0000 0.11084288
H   H29       1.0  0.86920  0.67370  0.29790  1.0000 0.11084288
H   H30       1.0  0.13080  0.32630  0.70210  1.0000 0.11084288
H   H31       1.0  0.15820  0.33120  0.29110  1.0000 0.1173773947
H   H32       1.0  0.84180  0.66880  0.70890  1.0000 0.1173773947
H   H33       1.0  0.15820  0.33790  0.14360  1.0000 0.1173773947
H   H34       1.0  0.84180  0.66210  0.85640  1.0000 0.1173773947
H   H35       1.0  0.97330  0.68630  0.40100  1.0000 0.11084288
H   H36       1.0  0.02670  0.31370  0.59900  1.0000 0.11084288
H   H37       1.0  0.04590  0.31350  0.44670  1.0000 0.11084288
H   H38       1.0  0.95410  0.68650  0.55330  1.0000 0.11084288
C   C1        1.0  0.88170  0.26670  0.00650  1.0000 -0.0221614391
C   C2        1.0  0.11830  0.73330  0.99350  1.0000 -0.0221614391
C   C3        1.0  0.77080  0.37610  0.00650  1.0000 -0.0062644662
C   C4        1.0  0.22920  0.62390  0.99350  1.0000 -0.0062644662
C   C5        1.0  0.74020  0.23470  0.96370  1.0000 0.1444869692
C   C6        1.0  0.25980  0.76530  0.03630  1.0000 0.1444869692
C   C7        1.0  0.01030  0.22840  0.02790  1.0000 0.5579359512
C   C8        1.0  0.98970  0.77160  0.97210  1.0000 0.5579359512
C   C9        1.0  0.72900  0.50300  0.03500  1.0000 0.5579359512
C   C10       1.0  0.27100  0.49700  0.96500  1.0000 0.5579359512
C   C11       1.0  0.93160  0.96740  0.20780  1.0000 0.0901263672
C   C12       1.0  0.06840  0.03260  0.79220  1.0000 0.0901263672
C   C13       1.0  0.86780  0.94310  0.29680  1.0000 -0.2010596823
C   C14       1.0  0.13220  0.05690  0.70320  1.0000 -0.2010596823
C   C15       1.0  0.75160  0.92380  0.31880  1.0000 0.11084288
C   C16       1.0  0.24840  0.07620  0.68120  1.0000 0.11084288
C   C17       1.0  0.70160  0.93380  0.24680  1.0000 -0.2095252593
C   C18       1.0  0.29840  0.06620  0.75320  1.0000 -0.2095252593
C   C19       1.0  0.76830  0.95940  0.15920  1.0000 0.0805789902
C   C20       1.0  0.23170  0.04060  0.84080  1.0000 0.0805789902
C   C21       1.0  0.68860  0.88540  0.41540  1.0000 0.0597686748
C   C22       1.0  0.31140  0.11460  0.58460  1.0000 0.0597686748
C   C23       1.0  0.70450  0.92300  0.48610  1.0000 -0.149552006
C   C24       1.0  0.29550  0.07700  0.51390  1.0000 -0.149552006
C   C25       1.0  0.66600  0.87270  0.57470  1.0000 -0.149552006
C   C26       1.0  0.33400  0.12730  0.42530  1.0000 -0.149552006
C   C27       1.0  0.61110  0.78290  0.59430  1.0000 0.0597686748
C   C28       1.0  0.38890  0.21710  0.40570  1.0000 0.0597686748
C   C29       1.0  0.58620  0.75150  0.52300  1.0000 -0.1439404656
C   C30       1.0  0.41380  0.24850  0.47700  1.0000 -0.1439404656
C   C31       1.0  0.62660  0.80180  0.43460  1.0000 -0.149552006
C   C32       1.0  0.37340  0.19820  0.56540  1.0000 -0.149552006
C   C33       1.0  0.58450  0.71910  0.68710  1.0000 0.11084288
C   C34       1.0  0.41550  0.28090  0.31290  1.0000 0.11084288
C   C35       1.0  0.55260  0.77590  0.76390  1.0000 -0.2095252593
C   C36       1.0  0.44740  0.22410  0.23610  1.0000 -0.2095252593
C   C37       1.0  0.53470  0.71050  0.84810  1.0000 0.072574688
C   C38       1.0  0.46530  0.28950  0.15190  1.0000 0.072574688
C   C39       1.0  0.57810  0.53330  0.78940  1.0000 0.0805789902
C   C40       1.0  0.42190  0.46670  0.21060  1.0000 0.0805789902
C   C41       1.0  0.59650  0.59320  0.70370  1.0000 -0.2010596823
C   C42       1.0  0.40350  0.40680  0.29630  1.0000 -0.2010596823
C   C43       1.0  0.93450  0.59940  0.17990  1.0000 0.0901263672
C   C44       1.0  0.06550  0.40060  0.82010  1.0000 0.0901263672
C   C45       1.0  0.92950  0.60270  0.26800  1.0000 -0.2010596823
C   C46       1.0  0.07050  0.39730  0.73200  1.0000 -0.2010596823
C   C47       1.0  0.01310  0.50170  0.31310  1.0000 0.1173773947
C   C48       1.0  0.98690  0.49830  0.68690  1.0000 0.1173773947
C   C49       1.0  0.09880  0.40250  0.26380  1.0000 -0.2010596823
C   C50       1.0  0.90120  0.59750  0.73620  1.0000 -0.2010596823
C   C51       1.0  0.09790  0.40700  0.17570  1.0000 0.0901263672
C   C52       1.0  0.90210  0.59300  0.82430  1.0000 0.0901263672
C   C53       1.0  0.00760  0.50020  0.40890  1.0000 0.0597686748
C   C54       1.0  0.99240  0.49980  0.59110  1.0000 0.0597686748
C   C55       1.0  0.98320  0.61090  0.44120  1.0000 -0.149552006
C   C56       1.0  0.01680  0.38910  0.55880  1.0000 -0.149552006
C   C57       1.0  0.02640  0.38940  0.46840  1.0000 -0.149552006
C   C58       1.0  0.97360  0.61060  0.53160  1.0000 -0.149552006
N   N1        1.0  0.68220  0.35450  0.97920  1.0000 -0.3295996358
N   N2        1.0  0.31780  0.64550  0.02080  1.0000 -0.3295996358
N   N3        1.0  0.86010  0.17690  0.98010  1.0000 -0.3295996358
N   N4        1.0  0.13990  0.82310  0.01990  1.0000 -0.3295996358
N   N5        1.0  0.54670  0.58900  0.86340  1.0000 -0.2267392446
N   N6        1.0  0.45330  0.41100  0.13660  1.0000 -0.2267392446
N   N7        1.0  0.01600  0.50410  0.13240  1.0000 -0.243603142
N   N8        1.0  0.98400  0.49590  0.86760  1.0000 -0.243603142
N   N9        1.0  0.88300  0.97570  0.13890  1.0000 -0.2173836251
N   N10       1.0  0.11700  0.02430  0.86110  1.0000 -0.2173836251
O   O1        1.0  0.80540  0.53190  0.05780  1.0000 -0.5201423336
O   O2        1.0  0.19460  0.46810  0.94220  1.0000 -0.5201423336
O   O3        1.0  0.61050  0.57460  0.03710  1.0000 -0.53824641
O   O4        1.0  0.38950  0.42540  0.96290  1.0000 -0.53824641
O   O5        1.0  0.05500  0.30610  0.03210  1.0000 -0.53824641
O   O6        1.0  0.94500  0.69390  0.96790  1.0000 -0.53824641
O   O7        1.0  0.07420  0.10980  0.03890  1.0000 -0.5453005005
O   O8        1.0  0.92580  0.89020  0.96110  1.0000 -0.5453005005
