# DDEC6 charges by PACMAN v1.1 (https://github.com/mtap-research/PACMAN-charge/)
data_2014[Zn][srs]3[FSR]1
_chemical_formula_sum              "Zn4 H48 C44 N8 O20"
_cell_length_a       10.8285
_cell_length_b       11.1933
_cell_length_c       14.799
_cell_angle_alpha    90
_cell_angle_beta     90
_cell_angle_gamma    90

_symmetry_space_group_name_H-M    "P 1"
_symmetry_Int_Tables_number       1

loop_
  _symmetry_equiv_pos_as_xyz
  'x, y, z'

loop_
  _atom_site_type_symbol
  _atom_site_label
  _atom_site_symmetry_multiplicity
  _atom_site_fract_x
  _atom_site_fract_y
  _atom_site_fract_z
  _atom_site_occupancy
  _atom_site_charge
Zn  Zn1       1.0  0.34279  0.81577  0.15840  1.0000 0.8487802981
Zn  Zn2       1.0  0.84279  0.68423  0.84160  1.0000 0.8487802981
Zn  Zn3       1.0  0.65721  0.31577  0.34160  1.0000 0.8487802981
Zn  Zn4       1.0  0.15721  0.18423  0.65840  1.0000 0.8487802981
H   H1        1.0  0.52200  0.53630  0.29880  1.0000 0.1292338248
H   H2        1.0  0.02200  0.96370  0.70120  1.0000 0.1292338248
H   H3        1.0  0.47800  0.03630  0.20120  1.0000 0.1292338248
H   H4        1.0  0.97800  0.46370  0.79880  1.0000 0.1292338248
H   H5        1.0  0.43860  0.27390  0.46670  1.0000 0.1292338248
H   H6        1.0  0.93860  0.22610  0.53330  1.0000 0.1292338248
H   H7        1.0  0.56140  0.77390  0.03330  1.0000 0.1292338248
H   H8        1.0  0.06140  0.72610  0.96670  1.0000 0.1292338248
H   H9        1.0  0.18850  0.53450  0.42010  1.0000 0.1386391221
H   H10       1.0  0.68850  0.96550  0.57990  1.0000 0.1386391221
H   H11       1.0  0.81150  0.03450  0.07990  1.0000 0.1386391221
H   H12       1.0  0.31150  0.46550  0.92010  1.0000 0.1386391221
H   H13       1.0  0.07860  0.84930  0.15310  1.0000 0.1762917428
H   H14       1.0  0.57860  0.65070  0.84690  1.0000 0.1762917428
H   H15       1.0  0.92140  0.34930  0.34690  1.0000 0.1762917428
H   H16       1.0  0.42140  0.15070  0.65310  1.0000 0.1762917428
H   H17       1.0  0.98560  0.95490  0.17920  1.0000 0.1588674127
H   H18       1.0  0.48560  0.54510  0.82080  1.0000 0.1588674127
H   H19       1.0  0.01440  0.45490  0.32080  1.0000 0.1588674127
H   H20       1.0  0.51440  0.04510  0.67920  1.0000 0.1588674127
H   H21       1.0  0.01330  0.85030  0.25010  1.0000 0.1664233147
H   H22       1.0  0.51330  0.64970  0.74990  1.0000 0.1664233147
H   H23       1.0  0.98670  0.35030  0.24990  1.0000 0.1664233147
H   H24       1.0  0.48670  0.14970  0.75010  1.0000 0.1664233147
H   H25       1.0  0.95690  0.10860  0.28690  1.0000 0.1386391221
H   H26       1.0  0.45690  0.39140  0.71310  1.0000 0.1386391221
H   H27       1.0  0.04310  0.60860  0.21310  1.0000 0.1386391221
H   H28       1.0  0.54310  0.89140  0.78690  1.0000 0.1386391221
H   H29       1.0  0.00930  0.13040  0.38660  1.0000 0.1292338248
H   H30       1.0  0.50930  0.36960  0.61340  1.0000 0.1292338248
H   H31       1.0  0.99070  0.63040  0.11340  1.0000 0.1292338248
H   H32       1.0  0.49070  0.86960  0.88660  1.0000 0.1292338248
H   H33       1.0  0.96780  0.99920  0.35610  1.0000 0.1386391221
H   H34       1.0  0.46780  0.50080  0.64390  1.0000 0.1386391221
H   H35       1.0  0.03220  0.49920  0.14390  1.0000 0.1386391221
H   H36       1.0  0.53220  0.00080  0.85610  1.0000 0.1386391221
H   H37       1.0  0.23010  0.12700  0.40190  1.0000 0.1386391221
H   H38       1.0  0.73010  0.37300  0.59810  1.0000 0.1386391221
H   H39       1.0  0.76990  0.62700  0.09810  1.0000 0.1386391221
H   H40       1.0  0.26990  0.87300  0.90190  1.0000 0.1386391221
H   H41       1.0  0.21000  0.21090  0.31560  1.0000 0.1386391221
H   H42       1.0  0.71000  0.28910  0.68440  1.0000 0.1386391221
H   H43       1.0  0.79000  0.71090  0.18440  1.0000 0.1386391221
H   H44       1.0  0.29000  0.78910  0.81560  1.0000 0.1386391221
H   H45       1.0  0.30750  0.10360  0.31150  1.0000 0.1547060548
H   H46       1.0  0.80750  0.39640  0.68850  1.0000 0.1547060548
H   H47       1.0  0.69250  0.60360  0.18850  1.0000 0.1547060548
H   H48       1.0  0.19250  0.89640  0.81150  1.0000 0.1547060548
C   C1        1.0  0.46436  0.49909  0.33816  1.0000 0.06290283
C   C2        1.0  0.96436  0.00091  0.66184  1.0000 0.06290283
C   C3        1.0  0.53564  0.99909  0.16184  1.0000 0.06290283
C   C4        1.0  0.03564  0.50091  0.83816  1.0000 0.06290283
C   C5        1.0  0.41604  0.34601  0.43704  1.0000 0.06290283
C   C6        1.0  0.91604  0.15399  0.56296  1.0000 0.06290283
C   C7        1.0  0.58396  0.84601  0.06296  1.0000 0.06290283
C   C8        1.0  0.08396  0.65399  0.93704  1.0000 0.06290283
C   C9        1.0  0.30105  0.39490  0.45414  1.0000 -0.0507289419
C   C10       1.0  0.80105  0.10510  0.54586  1.0000 -0.0507289419
C   C11       1.0  0.69895  0.89490  0.04586  1.0000 -0.0507289419
C   C12       1.0  0.19895  0.60510  0.95414  1.0000 -0.0507289419
C   C13       1.0  0.26720  0.49950  0.40980  1.0000 -0.0626134599
C   C14       1.0  0.76720  0.00050  0.59020  1.0000 -0.0626134599
C   C15       1.0  0.73280  0.99950  0.09020  1.0000 -0.0626134599
C   C16       1.0  0.23280  0.50050  0.90980  1.0000 -0.0626134599
C   C17       1.0  0.35020  0.55179  0.35045  1.0000 -0.0430569272
C   C18       1.0  0.85020  0.94821  0.64955  1.0000 -0.0430569272
C   C19       1.0  0.64980  0.05179  0.14955  1.0000 -0.0430569272
C   C20       1.0  0.14980  0.44821  0.85045  1.0000 -0.0430569272
C   C21       1.0  0.21200  0.33560  0.51874  1.0000 0.5442572175
C   C22       1.0  0.71200  0.16440  0.48126  1.0000 0.5442572175
C   C23       1.0  0.78800  0.83560  0.98126  1.0000 0.5442572175
C   C24       1.0  0.28800  0.66440  0.01874  1.0000 0.5442572175
C   C25       1.0  0.31580  0.66090  0.29602  1.0000 0.5591395734
C   C26       1.0  0.81580  0.83910  0.70398  1.0000 0.5591395734
C   C27       1.0  0.68420  0.16090  0.20398  1.0000 0.5591395734
C   C28       1.0  0.18420  0.33910  0.79602  1.0000 0.5591395734
C   C29       1.0  0.15370  0.97056  0.23973  1.0000 0.5331220864
C   C30       1.0  0.65370  0.52944  0.76027  1.0000 0.5331220864
C   C31       1.0  0.84630  0.47056  0.26027  1.0000 0.5331220864
C   C32       1.0  0.34630  0.02944  0.73973  1.0000 0.5331220864
C   C33       1.0  0.04890  0.90030  0.20232  1.0000 -0.5894846083
C   C34       1.0  0.54890  0.59970  0.79768  1.0000 -0.5894846083
C   C35       1.0  0.95110  0.40030  0.29768  1.0000 -0.5894846083
C   C36       1.0  0.45110  0.09970  0.70232  1.0000 -0.5894846083
C   C37       1.0  0.00600  0.07400  0.33600  1.0000 -0.3513322236
C   C38       1.0  0.50600  0.42600  0.66400  1.0000 -0.3513322236
C   C39       1.0  0.99400  0.57400  0.16400  1.0000 -0.3513322236
C   C40       1.0  0.49400  0.92600  0.83600  1.0000 -0.3513322236
C   C41       1.0  0.22760  0.12920  0.33570  1.0000 -0.3365155967
C   C42       1.0  0.72760  0.37080  0.66430  1.0000 -0.3365155967
C   C43       1.0  0.77240  0.62920  0.16430  1.0000 -0.3365155967
C   C44       1.0  0.27240  0.87080  0.83570  1.0000 -0.3365155967
N   N1        1.0  0.49701  0.39689  0.37997  1.0000 -0.2266079845
N   N2        1.0  0.99701  0.10311  0.62003  1.0000 -0.2266079845
N   N3        1.0  0.50299  0.89689  0.12003  1.0000 -0.2266079845
N   N4        1.0  0.00299  0.60311  0.87997  1.0000 -0.2266079845
N   N5        1.0  0.13187  0.04988  0.30360  1.0000 0.009414179
N   N6        1.0  0.63187  0.45012  0.69640  1.0000 0.009414179
N   N7        1.0  0.86813  0.54988  0.19640  1.0000 0.009414179
N   N8        1.0  0.36813  0.95012  0.80360  1.0000 0.009414179
O   O1        1.0  0.26005  0.24718  0.56238  1.0000 -0.5585896732
O   O2        1.0  0.76005  0.25282  0.43762  1.0000 -0.5585896732
O   O3        1.0  0.73995  0.74718  0.93762  1.0000 -0.5585896732
O   O4        1.0  0.23995  0.75282  0.06238  1.0000 -0.5585896732
O   O5        1.0  0.10602  0.37047  0.52490  1.0000 -0.5096181842
O   O6        1.0  0.60602  0.12953  0.47510  1.0000 -0.5096181842
O   O7        1.0  0.89398  0.87047  0.97510  1.0000 -0.5096181842
O   O8        1.0  0.39398  0.62953  0.02490  1.0000 -0.5096181842
O   O9        1.0  0.40304  0.70387  0.24790  1.0000 -0.5585896732
O   O10       1.0  0.90304  0.79613  0.75210  1.0000 -0.5585896732
O   O11       1.0  0.59696  0.20387  0.25210  1.0000 -0.5585896732
O   O12       1.0  0.09696  0.29613  0.74790  1.0000 -0.5585896732
O   O13       1.0  0.21025  0.69836  0.29872  1.0000 -0.518484539
O   O14       1.0  0.71025  0.80164  0.70128  1.0000 -0.518484539
O   O15       1.0  0.78975  0.19836  0.20128  1.0000 -0.518484539
O   O16       1.0  0.28975  0.30164  0.79872  1.0000 -0.518484539
O   O17       1.0  0.26266  0.95797  0.21071  1.0000 -0.5520828129
O   O18       1.0  0.76266  0.54203  0.78929  1.0000 -0.5520828129
O   O19       1.0  0.73734  0.45797  0.28929  1.0000 -0.5520828129
O   O20       1.0  0.23734  0.04203  0.71071  1.0000 -0.5520828129
