# DDEC6 charges by PACMAN v1.1 (https://github.com/mtap-research/PACMAN-charge/)
data_2014[Sc][nan]3[FSR]8
_chemical_formula_sum              "Sc4 H24 C48 O24"
_cell_length_a       19.7793
_cell_length_b       17.4841
_cell_length_c       11.1342
_cell_angle_alpha    84.3338
_cell_angle_beta     61.5987
_cell_angle_gamma    34.0675

_symmetry_space_group_name_H-M    "P 1"
_symmetry_Int_Tables_number       1

loop_
  _symmetry_equiv_pos_as_xyz
  'x, y, z'

loop_
  _atom_site_type_symbol
  _atom_site_label
  _atom_site_symmetry_multiplicity
  _atom_site_fract_x
  _atom_site_fract_y
  _atom_site_fract_z
  _atom_site_occupancy
  _atom_site_charge
Sc  Sc1       1.0  0.25995  0.25995  0.74005  1.0000 1.7984476137
Sc  Sc2       1.0  0.74005  0.74005  0.25995  1.0000 1.7984476137
Sc  Sc3       1.0  0.99005  0.99005  0.50995  1.0000 1.7984476137
Sc  Sc4       1.0  0.50995  0.50995  0.99005  1.0000 1.7984476137
H   H1        1.0  0.38860  0.34860  0.41280  1.0000 0.1267662767
H   H2        1.0  0.85000  0.41280  0.34860  1.0000 0.1267662767
H   H3        1.0  0.41280  0.85000  0.38860  1.0000 0.1267662767
H   H4        1.0  0.34860  0.38860  0.85000  1.0000 0.1267662767
H   H5        1.0  0.86140  0.90140  0.83720  1.0000 0.1267662767
H   H6        1.0  0.40000  0.83720  0.90140  1.0000 0.1267662767
H   H7        1.0  0.83720  0.40000  0.86140  1.0000 0.1267662767
H   H8        1.0  0.90140  0.86140  0.40000  1.0000 0.1267662767
H   H9        1.0  0.46390  0.38010  0.21490  1.0000 0.1229874837
H   H10       1.0  0.94110  0.21490  0.38010  1.0000 0.1229874837
H   H11       1.0  0.21490  0.94110  0.46390  1.0000 0.1229874837
H   H12       1.0  0.38010  0.46390  0.94110  1.0000 0.1229874837
H   H13       1.0  0.78610  0.86990  0.03510  1.0000 0.1229874837
H   H14       1.0  0.30890  0.03510  0.86990  1.0000 0.1229874837
H   H15       1.0  0.03510  0.30890  0.78610  1.0000 0.1229874837
H   H16       1.0  0.86990  0.78610  0.30890  1.0000 0.1229874837
H   H17       1.0  0.46710  0.03490  0.92030  1.0000 0.1267662767
H   H18       1.0  0.57770  0.92030  0.03490  1.0000 0.1267662767
H   H19       1.0  0.92030  0.57770  0.46710  1.0000 0.1267662767
H   H20       1.0  0.03490  0.46710  0.57770  1.0000 0.1267662767
H   H21       1.0  0.78290  0.21510  0.32970  1.0000 0.1267662767
H   H22       1.0  0.67230  0.32970  0.21510  1.0000 0.1267662767
H   H23       1.0  0.32970  0.67230  0.78290  1.0000 0.1267662767
H   H24       1.0  0.21510  0.78290  0.67230  1.0000 0.1267662767
C   C1        1.0  0.52010  0.09330  0.36930  1.0000 0.6406961032
C   C2        1.0  0.01730  0.36930  0.09330  1.0000 0.6406961032
C   C3        1.0  0.36930  0.01730  0.52010  1.0000 0.6406961032
C   C4        1.0  0.09330  0.52010  0.01730  1.0000 0.6406961032
C   C5        1.0  0.72990  0.15670  0.88070  1.0000 0.6406961032
C   C6        1.0  0.23270  0.88070  0.15670  1.0000 0.6406961032
C   C7        1.0  0.88070  0.23270  0.72990  1.0000 0.6406961032
C   C8        1.0  0.15670  0.72990  0.23270  1.0000 0.6406961032
C   C9        1.0  0.57580  0.10940  0.24340  1.0000 -0.0327636561
C   C10       1.0  0.07140  0.24340  0.10940  1.0000 -0.0327636561
C   C11       1.0  0.24340  0.07140  0.57580  1.0000 -0.0327636561
C   C12       1.0  0.10940  0.57580  0.07140  1.0000 -0.0327636561
C   C13       1.0  0.67420  0.14060  0.00660  1.0000 -0.0327636561
C   C14       1.0  0.17860  0.00660  0.14060  1.0000 -0.0327636561
C   C15       1.0  0.00660  0.17860  0.67420  1.0000 -0.0327636561
C   C16       1.0  0.14060  0.67420  0.17860  1.0000 -0.0327636561
C   C17       1.0  0.48410  0.25830  0.29570  1.0000 -0.1005435985
C   C18       1.0  0.96190  0.29570  0.25830  1.0000 -0.1005435985
C   C19       1.0  0.29570  0.96190  0.48410  1.0000 -0.1005435985
C   C20       1.0  0.25830  0.48410  0.96190  1.0000 -0.1005435985
C   C21       1.0  0.76590  0.99170  0.95430  1.0000 -0.1005435985
C   C22       1.0  0.28810  0.95430  0.99170  1.0000 -0.1005435985
C   C23       1.0  0.95430  0.28810  0.76590  1.0000 -0.1005435985
C   C24       1.0  0.99170  0.76590  0.28810  1.0000 -0.1005435985
C   C25       1.0  0.53050  0.27570  0.17710  1.0000 -0.1083070141
C   C26       1.0  0.01670  0.17710  0.27570  1.0000 -0.1083070141
C   C27       1.0  0.17710  0.01670  0.53050  1.0000 -0.1083070141
C   C28       1.0  0.27570  0.53050  0.01670  1.0000 -0.1083070141
C   C29       1.0  0.71950  0.97430  0.07290  1.0000 -0.1083070141
C   C30       1.0  0.23330  0.07290  0.97430  1.0000 -0.1083070141
C   C31       1.0  0.07290  0.23330  0.71950  1.0000 -0.1083070141
C   C32       1.0  0.97430  0.71950  0.23330  1.0000 -0.1083070141
C   C33       1.0  0.61050  0.88950  0.61050  1.0000 0.6406961032
C   C34       1.0  0.88950  0.61050  0.88950  1.0000 0.6406961032
C   C35       1.0  0.63950  0.36050  0.63950  1.0000 0.6406961032
C   C36       1.0  0.36050  0.63950  0.36050  1.0000 0.6406961032
C   C37       1.0  0.68320  0.81680  0.68320  1.0000 -0.0366422021
C   C38       1.0  0.81680  0.68320  0.81680  1.0000 -0.0366422021
C   C39       1.0  0.56680  0.43320  0.56680  1.0000 -0.0366422021
C   C40       1.0  0.43320  0.56680  0.43320  1.0000 -0.0366422021
C   C41       1.0  0.58150  0.91790  0.85150  1.0000 -0.1005435985
C   C42       1.0  0.64910  0.85150  0.91790  1.0000 -0.1005435985
C   C43       1.0  0.85150  0.64910  0.58150  1.0000 -0.1005435985
C   C44       1.0  0.91790  0.58150  0.64910  1.0000 -0.1005435985
C   C45       1.0  0.66850  0.33210  0.39850  1.0000 -0.1005435985
C   C46       1.0  0.60090  0.39850  0.33210  1.0000 -0.1005435985
C   C47       1.0  0.39850  0.60090  0.66850  1.0000 -0.1005435985
C   C48       1.0  0.33210  0.66850  0.60090  1.0000 -0.1005435985
O   O1        1.0  0.39010  0.21790  0.52330  1.0000 -0.6060282018
O   O2        1.0  0.86870  0.52330  0.21790  1.0000 -0.6060282018
O   O3        1.0  0.52330  0.86870  0.39010  1.0000 -0.6060282018
O   O4        1.0  0.21790  0.39010  0.86870  1.0000 -0.6060282018
O   O5        1.0  0.85990  0.03210  0.72670  1.0000 -0.6060282018
O   O6        1.0  0.38130  0.72670  0.03210  1.0000 -0.6060282018
O   O7        1.0  0.72670  0.38130  0.85990  1.0000 -0.6060282018
O   O8        1.0  0.03210  0.85990  0.38130  1.0000 -0.6060282018
O   O9        1.0  0.60950  0.95450  0.31430  1.0000 -0.64111727
O   O10       1.0  0.12170  0.31430  0.95450  1.0000 -0.64111727
O   O11       1.0  0.31430  0.12170  0.60950  1.0000 -0.64111727
O   O12       1.0  0.95450  0.60950  0.12170  1.0000 -0.64111727
O   O13       1.0  0.64050  0.29550  0.93570  1.0000 -0.64111727
O   O14       1.0  0.12830  0.93570  0.29550  1.0000 -0.64111727
O   O15       1.0  0.93570  0.12830  0.64050  1.0000 -0.64111727
O   O16       1.0  0.29550  0.64050  0.12830  1.0000 -0.64111727
O   O17       1.0  0.46800  0.04880  0.69580  1.0000 -0.6291635585
O   O18       1.0  0.78740  0.69580  0.04880  1.0000 -0.6291635585
O   O19       1.0  0.69580  0.78740  0.46800  1.0000 -0.6291635585
O   O20       1.0  0.04880  0.46800  0.78740  1.0000 -0.6291635585
O   O21       1.0  0.78200  0.20120  0.55420  1.0000 -0.6291635585
O   O22       1.0  0.46260  0.55420  0.20120  1.0000 -0.6291635585
O   O23       1.0  0.55420  0.46260  0.78200  1.0000 -0.6291635585
O   O24       1.0  0.20120  0.78200  0.46260  1.0000 -0.6291635585
