# DDEC6 charges by PACMAN v1.1 (https://github.com/mtap-research/PACMAN-charge/)
data_2014[Co][nan]3[FSR]26
_chemical_formula_sum              "Co3 H24 C38 N12 O8"
_cell_length_a       11.4527
_cell_length_b       11.6239
_cell_length_c       11.7754
_cell_angle_alpha    64.825
_cell_angle_beta     81.406
_cell_angle_gamma    72.316

_symmetry_space_group_name_H-M    "P 1"
_symmetry_Int_Tables_number       1

loop_
  _symmetry_equiv_pos_as_xyz
  'x, y, z'

loop_
  _atom_site_type_symbol
  _atom_site_label
  _atom_site_symmetry_multiplicity
  _atom_site_fract_x
  _atom_site_fract_y
  _atom_site_fract_z
  _atom_site_occupancy
  _atom_site_charge
Co  Co1       1.0  0.00000  0.50000  0.50000  1.0000 0.700085777
Co  Co2       1.0  0.00000  0.00000  0.00000  1.0000 0.700085777
Co  Co3       1.0  0.00000  0.00000  0.50000  1.0000 0.8948936938
H   H1        1.0  0.79580  0.62660  0.29530  1.0000 0.1110681637
H   H2        1.0  0.20420  0.37340  0.70470  1.0000 0.1110681637
H   H3        1.0  0.15890  0.18060  0.98670  1.0000 0.119589138
H   H4        1.0  0.84110  0.81940  0.01330  1.0000 0.119589138
H   H5        1.0  0.22120  0.00080  0.30880  1.0000 0.1110681637
H   H6        1.0  0.77880  0.99920  0.69120  1.0000 0.1110681637
H   H7        1.0  0.59060  0.72230  0.28080  1.0000 0.1296937226
H   H8        1.0  0.40940  0.27770  0.71920  1.0000 0.1296937226
H   H9        1.0  0.56160  0.56490  0.65410  1.0000 0.1296937226
H   H10       1.0  0.43840  0.43510  0.34590  1.0000 0.1296937226
H   H11       1.0  0.26260  0.81260  0.03880  1.0000 0.1110681637
H   H12       1.0  0.73740  0.18740  0.96120  1.0000 0.1110681637
H   H13       1.0  0.41760  0.87940  0.29650  1.0000 0.1296937226
H   H14       1.0  0.58240  0.12060  0.70350  1.0000 0.1296937226
H   H15       1.0  0.46140  0.80860  0.03020  1.0000 0.1296937226
H   H16       1.0  0.53860  0.19140  0.96980  1.0000 0.1296937226
H   H17       1.0  0.36160  0.59810  0.62550  1.0000 0.119589138
H   H18       1.0  0.63840  0.40190  0.37450  1.0000 0.119589138
H   H19       1.0  0.16840  0.72470  0.62900  1.0000 0.119589138
H   H20       1.0  0.83160  0.27530  0.37100  1.0000 0.119589138
H   H21       1.0  0.76690  0.47290  0.65980  1.0000 0.1110681637
H   H22       1.0  0.23310  0.52710  0.34020  1.0000 0.1110681637
H   H23       1.0  0.35090  0.18730  0.98200  1.0000 0.1296937226
H   H24       1.0  0.64910  0.81270  0.01800  1.0000 0.1296937226
C   C1        1.0  0.96140  0.03260  0.23230  1.0000 0.5674295305
C   C2        1.0  0.03860  0.96740  0.76770  1.0000 0.5674295305
C   C3        1.0  0.98080  0.88930  0.26980  1.0000 -0.0309912533
C   C4        1.0  0.01920  0.11070  0.73020  1.0000 -0.0309912533
C   C5        1.0  0.95110  0.75210  0.51420  1.0000 0.5674295305
C   C6        1.0  0.04890  0.24790  0.48580  1.0000 0.5674295305
C   C7        1.0  0.97910  0.77980  0.37970  1.0000 -0.0376381994
C   C8        1.0  0.02090  0.22020  0.62030  1.0000 -0.0376381994
C   C9        1.0  0.43580  0.99890  0.00240  1.0000 0.0885764352
C   C10       1.0  0.56420  0.00110  0.99760  1.0000 0.0885764352
C   C11       1.0  0.74840  0.61550  0.36870  1.0000 0.0802533506
C   C12       1.0  0.25160  0.38450  0.63130  1.0000 0.0802533506
C   C13       1.0  0.22120  0.10460  0.99500  1.0000 0.0718777507
C   C14       1.0  0.77880  0.89540  0.00500  1.0000 0.0718777507
C   C15       1.0  0.24990  0.91920  0.37420  1.0000 0.0885764352
C   C16       1.0  0.75010  0.08080  0.62580  1.0000 0.0885764352
C   C17       1.0  0.62490  0.67250  0.35970  1.0000 -0.2090689548
C   C18       1.0  0.37510  0.32750  0.64030  1.0000 -0.2090689548
C   C19       1.0  0.54890  0.65710  0.46760  1.0000 0.1110681637
C   C20       1.0  0.45110  0.34290  0.53240  1.0000 0.1110681637
C   C21       1.0  0.60700  0.58030  0.57920  1.0000 -0.1918111266
C   C22       1.0  0.39300  0.41970  0.42080  1.0000 -0.1918111266
C   C23       1.0  0.28150  0.89010  0.02460  1.0000 0.0885764352
C   C24       1.0  0.71850  0.10990  0.97540  1.0000 0.0885764352
C   C25       1.0  0.36900  0.84720  0.36710  1.0000 -0.1918111266
C   C26       1.0  0.63100  0.15280  0.63290  1.0000 -0.1918111266
C   C27       1.0  0.40140  0.88660  0.02070  1.0000 -0.2090689548
C   C28       1.0  0.59860  0.11340  0.97930  1.0000 -0.2090689548
C   C29       1.0  0.41630  0.72870  0.46310  1.0000 0.1002334329
C   C30       1.0  0.58370  0.27130  0.53690  1.0000 0.1002334329
C   C31       1.0  0.33610  0.68120  0.56100  1.0000 -0.1918111266
C   C32       1.0  0.66390  0.31880  0.43900  1.0000 -0.1918111266
C   C33       1.0  0.21970  0.75770  0.56130  1.0000 0.1002334329
C   C34       1.0  0.78030  0.24230  0.43870  1.0000 0.1002334329
C   C35       1.0  0.73090  0.52590  0.58210  1.0000 0.0885764352
C   C36       1.0  0.26910  0.47410  0.41790  1.0000 0.0885764352
C   C37       1.0  0.33600  0.10930  0.99170  1.0000 -0.2016753525
C   C38       1.0  0.66400  0.89070  0.00830  1.0000 -0.2016753525
N   N1        1.0  0.00440  0.67510  0.34770  1.0000 -0.2016753525
N   N2        1.0  0.99560  0.32490  0.65230  1.0000 -0.2016753525
N   N3        1.0  0.02410  0.71580  0.22510  1.0000 -0.0865889311
N   N4        1.0  0.97590  0.28420  0.77490  1.0000 -0.0865889311
N   N5        1.0  0.01000  0.84610  0.17560  1.0000 -0.2090689548
N   N6        1.0  0.99000  0.15390  0.82440  1.0000 -0.2090689548
N   N7        1.0  0.80350  0.54470  0.47880  1.0000 -0.2090689548
N   N8        1.0  0.19650  0.45530  0.52120  1.0000 -0.2090689548
N   N9        1.0  0.18910  0.99710  0.00950  1.0000 -0.2181006641
N   N10       1.0  0.81090  0.00290  0.99050  1.0000 -0.2181006641
N   N11       1.0  0.17330  0.87650  0.47180  1.0000 -0.243261312
N   N12       1.0  0.82670  0.12350  0.52820  1.0000 -0.243261312
O   O1        1.0  0.95100  0.10390  0.11660  1.0000 -0.5222072522
O   O2        1.0  0.04900  0.89610  0.88340  1.0000 -0.5316370051
O   O3        1.0  0.95540  0.63440  0.58600  1.0000 -0.5222072522
O   O4        1.0  0.04460  0.36560  0.41400  1.0000 -0.5222072522
O   O5        1.0  0.92060  0.84510  0.55090  1.0000 -0.5394655884
O   O6        1.0  0.07940  0.15490  0.44910  1.0000 -0.5394655884
O   O7        1.0  0.95380  0.07790  0.31290  1.0000 -0.5316370051
O   O8        1.0  0.04620  0.92210  0.68710  1.0000 -0.5316370051
