# DDEC6 charges by PACMAN v1.1 (https://github.com/mtap-research/PACMAN-charge/)
data_2014[Co][nan]3[FSR]28
_chemical_formula_sum              "Co3 H50 C76 N10 O8"
_cell_length_a       11.4712
_cell_length_b       11.6147
_cell_length_c       19.8781
_cell_angle_alpha    81.156
_cell_angle_beta     74.921
_cell_angle_gamma    65.987

_symmetry_space_group_name_H-M    "P 1"
_symmetry_Int_Tables_number       1

loop_
  _symmetry_equiv_pos_as_xyz
  'x, y, z'

loop_
  _atom_site_type_symbol
  _atom_site_label
  _atom_site_symmetry_multiplicity
  _atom_site_fract_x
  _atom_site_fract_y
  _atom_site_fract_z
  _atom_site_occupancy
  _atom_site_charge
Co  Co1       1.0  0.50000  0.50000  0.00000  1.0000 0.7026496317
Co  Co2       1.0  0.00000  0.50000  0.00000  1.0000 0.8823607948
Co  Co3       1.0  0.00000  0.00000  0.00000  1.0000 0.7026496317
H   H1        1.0  0.30680  0.81460  0.04070  1.0000 0.1101259843
H   H2        1.0  0.69320  0.18540  0.95930  1.0000 0.1101259843
H   H3        1.0  0.41090  0.58050  0.15020  1.0000 0.1101259843
H   H4        1.0  0.58910  0.41950  0.84980  1.0000 0.1101259843
H   H5        1.0  0.38810  0.50280  0.26410  1.0000 0.1315055824
H   H6        1.0  0.61190  0.49720  0.73590  1.0000 0.1315055824
H   H7        1.0  0.47560  0.16350  0.19410  1.0000 0.1187117717
H   H8        1.0  0.52440  0.83650  0.80590  1.0000 0.1187117717
H   H9        1.0  0.49370  0.25350  0.08230  1.0000 0.1101259843
H   H10       1.0  0.50630  0.74650  0.91770  1.0000 0.1101259843
H   H11       1.0  0.44870  0.39850  0.35650  1.0000 0.1101259843
H   H12       1.0  0.55130  0.60150  0.64350  1.0000 0.1101259843
H   H13       1.0  0.41940  0.31870  0.47300  1.0000 0.1101259843
H   H14       1.0  0.58060  0.68130  0.52700  1.0000 0.1101259843
H   H15       1.0  0.34610  0.04480  0.41510  1.0000 0.1101259843
H   H16       1.0  0.65390  0.95520  0.58490  1.0000 0.1101259843
H   H17       1.0  0.37390  0.12550  0.30060  1.0000 0.1101259843
H   H18       1.0  0.62610  0.87450  0.69940  1.0000 0.1101259843
H   H19       1.0  0.42750  0.22590  0.57030  1.0000 0.1101259843
H   H20       1.0  0.57250  0.77410  0.42970  1.0000 0.1101259843
H   H21       1.0  0.36550  0.17470  0.68720  1.0000 0.1187117717
H   H22       1.0  0.63450  0.82530  0.31280  1.0000 0.1187117717
H   H23       1.0  0.19250  0.97150  0.63710  1.0000 0.1187117717
H   H24       1.0  0.80750  0.02850  0.36290  1.0000 0.1187117717
H   H25       1.0  0.25310  0.02300  0.51980  1.0000 0.1101259843
H   H26       1.0  0.74690  0.97700  0.48020  1.0000 0.1101259843
H   H27       1.0  0.35510  0.05420  0.79130  1.0000 0.1315055824
H   H28       1.0  0.64490  0.94580  0.20870  1.0000 0.1315055824
H   H29       1.0  0.26210  0.02120  0.90680  1.0000 0.1101259843
H   H30       1.0  0.73790  0.97880  0.09320  1.0000 0.1101259843
H   H31       1.0  0.04150  0.04510  0.73890  1.0000 0.1315055824
H   H32       1.0  0.95850  0.95490  0.26110  1.0000 0.1315055824
H   H33       1.0  0.95560  0.02080  0.85590  1.0000 0.1101259843
H   H34       1.0  0.04440  0.97920  0.14410  1.0000 0.1101259843
H   H35       1.0  0.18080  0.36690  0.10100  1.0000 0.1101259843
H   H36       1.0  0.81920  0.63310  0.89900  1.0000 0.1101259843
H   H37       1.0  0.18570  0.35690  0.21600  1.0000 0.1187117717
H   H38       1.0  0.81430  0.64310  0.78400  1.0000 0.1187117717
H   H39       1.0  0.87570  0.68930  0.23460  1.0000 0.1187117717
H   H40       1.0  0.12430  0.31070  0.76540  1.0000 0.1187117717
H   H41       1.0  0.87670  0.68450  0.11990  1.0000 0.1101259843
H   H42       1.0  0.12330  0.31550  0.88010  1.0000 0.1101259843
H   H43       1.0  0.09670  0.32500  0.33080  1.0000 0.1101259843
H   H44       1.0  0.90330  0.67500  0.66920  1.0000 0.1101259843
H   H45       1.0  0.07760  0.31480  0.45000  1.0000 0.1101259843
H   H46       1.0  0.92240  0.68520  0.55000  1.0000 0.1101259843
H   H47       1.0  0.95860  0.68660  0.44540  1.0000 0.1101259843
H   H48       1.0  0.04140  0.31340  0.55460  1.0000 0.1101259843
H   H49       1.0  0.97980  0.69640  0.32680  1.0000 0.1101259843
H   H50       1.0  0.02020  0.30360  0.67320  1.0000 0.1101259843
C   C1        1.0  0.27240  0.49000  0.97140  1.0000 0.5537889089
C   C2        1.0  0.72760  0.51000  0.02860  1.0000 0.5537889089
C   C3        1.0  0.23180  0.62150  0.99210  1.0000 -0.0195889034
C   C4        1.0  0.76820  0.37850  0.00790  1.0000 -0.0195889034
C   C5        1.0  0.12160  0.73160  0.99260  1.0000 -0.0195889034
C   C6        1.0  0.87840  0.26840  0.00740  1.0000 -0.0195889034
C   C7        1.0  0.26560  0.77090  0.02490  1.0000 0.1484243061
C   C8        1.0  0.73440  0.22910  0.97510  1.0000 0.1484243061
C   C9        1.0  0.99070  0.76820  0.97590  1.0000 0.5558648493
C   C10       1.0  0.00930  0.23180  0.02410  1.0000 0.5558648493
C   C11       1.0  0.42460  0.49380  0.15940  1.0000 0.0958714198
C   C12       1.0  0.57540  0.50620  0.84060  1.0000 0.0958714198
C   C13       1.0  0.41120  0.44780  0.22790  1.0000 -0.2088728078
C   C14       1.0  0.58880  0.55220  0.77210  1.0000 -0.2088728078
C   C15       1.0  0.43120  0.32220  0.24400  1.0000 0.1187117717
C   C16       1.0  0.56880  0.67780  0.75600  1.0000 0.1187117717
C   C17       1.0  0.46200  0.25030  0.18680  1.0000 -0.2088728078
C   C18       1.0  0.53800  0.74970  0.81320  1.0000 -0.2088728078
C   C19       1.0  0.47270  0.30440  0.12020  1.0000 0.0607178893
C   C20       1.0  0.52730  0.69560  0.87980  1.0000 0.0607178893
C   C21       1.0  0.41510  0.26880  0.31680  1.0000 0.0607178893
C   C22       1.0  0.58490  0.73120  0.68320  1.0000 0.0607178893
C   C23       1.0  0.42730  0.32590  0.36810  1.0000 -0.1509787752
C   C24       1.0  0.57270  0.67410  0.63190  1.0000 -0.1509787752
C   C25       1.0  0.40850  0.27870  0.43810  1.0000 -0.1509787752
C   C26       1.0  0.59150  0.72130  0.56190  1.0000 -0.1509787752
C   C27       1.0  0.37450  0.17440  0.45680  1.0000 0.0716874312
C   C28       1.0  0.62550  0.82560  0.54320  1.0000 0.0716874312
C   C29       1.0  0.36540  0.11850  0.40450  1.0000 -0.1429134298
C   C30       1.0  0.63460  0.88150  0.59550  1.0000 -0.1429134298
C   C31       1.0  0.38370  0.16620  0.33550  1.0000 -0.1565000627
C   C32       1.0  0.61630  0.83380  0.66450  1.0000 -0.1565000627
C   C33       1.0  0.34330  0.13360  0.53200  1.0000 0.0716874312
C   C34       1.0  0.65670  0.86640  0.46800  1.0000 0.0716874312
C   C35       1.0  0.37730  0.17500  0.58380  1.0000 -0.1509787752
C   C36       1.0  0.62270  0.82500  0.41620  1.0000 -0.1509787752
C   C37       1.0  0.34070  0.14470  0.65350  1.0000 -0.1509787752
C   C38       1.0  0.65930  0.85530  0.34650  1.0000 -0.1509787752
C   C39       1.0  0.26700  0.06990  0.67480  1.0000 0.0512211446
C   C40       1.0  0.73300  0.93010  0.32520  1.0000 0.0512211446
C   C41       1.0  0.23910  0.02580  0.62370  1.0000 -0.1509787752
C   C42       1.0  0.76090  0.97420  0.37630  1.0000 -0.1509787752
C   C43       1.0  0.27530  0.05600  0.55330  1.0000 -0.1509787752
C   C44       1.0  0.72470  0.94400  0.44670  1.0000 -0.1509787752
C   C45       1.0  0.21350  0.04720  0.74920  1.0000 0.1101259843
C   C46       1.0  0.78650  0.95280  0.25080  1.0000 0.1101259843
C   C47       1.0  0.27400  0.04420  0.80270  1.0000 -0.2088728078
C   C48       1.0  0.72600  0.95580  0.19730  1.0000 -0.2088728078
C   C49       1.0  0.21680  0.02680  0.87190  1.0000 0.0716874312
C   C50       1.0  0.78320  0.97320  0.12810  1.0000 0.0716874312
C   C51       1.0  0.09030  0.04000  0.77210  1.0000 -0.2088728078
C   C52       1.0  0.90970  0.96000  0.22790  1.0000 -0.2088728078
C   C53       1.0  0.03940  0.02550  0.84220  1.0000 0.0895848534
C   C54       1.0  0.96060  0.97450  0.15780  1.0000 0.0895848534
C   C55       1.0  0.11560  0.43200  0.12940  1.0000 0.0895848534
C   C56       1.0  0.88440  0.56800  0.87060  1.0000 0.0895848534
C   C57       1.0  0.12030  0.42630  0.19790  1.0000 -0.1993346427
C   C58       1.0  0.87970  0.57370  0.80210  1.0000 -0.1993346427
C   C59       1.0  0.03050  0.52100  0.24100  1.0000 0.1187117717
C   C60       1.0  0.96950  0.47900  0.75900  1.0000 0.1187117717
C   C61       1.0  0.93890  0.61980  0.20860  1.0000 -0.2088728078
C   C62       1.0  0.06110  0.38020  0.79140  1.0000 -0.2088728078
C   C63       1.0  0.94020  0.61640  0.14010  1.0000 0.0895848534
C   C64       1.0  0.05980  0.38360  0.85990  1.0000 0.0895848534
C   C65       1.0  0.02720  0.51730  0.31610  1.0000 0.0607178893
C   C66       1.0  0.97280  0.48270  0.68390  1.0000 0.0607178893
C   C67       1.0  0.06390  0.40090  0.35430  1.0000 -0.1509787752
C   C68       1.0  0.93610  0.59910  0.64570  1.0000 -0.1509787752
C   C69       1.0  0.05310  0.39480  0.42530  1.0000 -0.1509787752
C   C70       1.0  0.94690  0.60520  0.57470  1.0000 -0.1509787752
C   C71       1.0  0.00720  0.50360  0.46130  1.0000 0.0789829727
C   C72       1.0  0.99280  0.49640  0.53870  1.0000 0.0789829727
C   C73       1.0  0.98410  0.61070  0.42310  1.0000 -0.1429134298
C   C74       1.0  0.01590  0.38930  0.57690  1.0000 -0.1429134298
C   C75       1.0  0.99560  0.61660  0.35150  1.0000 -0.1509787752
C   C76       1.0  0.00440  0.38340  0.64850  1.0000 -0.1509787752
N   N1        1.0  0.32210  0.64870  0.01290  1.0000 -0.3274370495
N   N2        1.0  0.67790  0.35130  0.98710  1.0000 -0.3274370495
N   N3        1.0  0.14570  0.82610  0.01260  1.0000 -0.3274370495
N   N4        1.0  0.85430  0.17390  0.98740  1.0000 -0.3274370495
N   N5        1.0  0.45470  0.42600  0.10690  1.0000 -0.2088728078
N   N6        1.0  0.54530  0.57400  0.89310  1.0000 -0.2088728078
N   N7        1.0  0.10050  0.01770  0.89110  1.0000 -0.2088728078
N   N8        1.0  0.89950  0.98230  0.10890  1.0000 -0.2088728078
N   N9        1.0  0.02510  0.52340  0.10050  1.0000 -0.2323984716
N   N10       1.0  0.97490  0.47660  0.89950  1.0000 -0.2323984716
O   O1        1.0  0.39210  0.41950  0.96890  1.0000 -0.5299039795
O   O2        1.0  0.60790  0.58050  0.03110  1.0000 -0.5299039795
O   O3        1.0  0.19500  0.45480  0.95500  1.0000 -0.5229785059
O   O4        1.0  0.80500  0.54520  0.04500  1.0000 -0.5229785059
O   O5        1.0  0.95200  0.68700  0.96740  1.0000 -0.5299039795
O   O6        1.0  0.04800  0.31300  0.03260  1.0000 -0.5299039795
O   O7        1.0  0.92360  0.88550  0.97190  1.0000 -0.5299039795
O   O8        1.0  0.07640  0.11450  0.02810  1.0000 -0.5299039795
