# DDEC6 charges by PACMAN v1.1 (https://github.com/mtap-research/PACMAN-charge/)
data_2014[YbU][nan]3[FSR]1
_chemical_formula_sum              "Yb2 U3 H26 C30 O40"
_cell_length_a       10.509
_cell_length_b       11.48
_cell_length_c       13.426
_cell_angle_alpha    69.137
_cell_angle_beta     78.671
_cell_angle_gamma    63.564

_symmetry_space_group_name_H-M    "P 1"
_symmetry_Int_Tables_number       1

loop_
  _symmetry_equiv_pos_as_xyz
  'x, y, z'

loop_
  _atom_site_type_symbol
  _atom_site_label
  _atom_site_symmetry_multiplicity
  _atom_site_fract_x
  _atom_site_fract_y
  _atom_site_fract_z
  _atom_site_occupancy
  _atom_site_charge
Yb  Yb1       1.0  0.59779  0.23117  0.75074  1.0000 2.1590539479
Yb  Yb2       1.0  0.40221  0.76883  0.24926  1.0000 2.1590539479
U   U1        1.0  0.62233  0.71400  0.83603  1.0000 2.3996044659
U   U2        1.0  0.37767  0.28600  0.16397  1.0000 2.3996044659
U   U3        1.0  0.00000  0.50000  0.50000  1.0000 2.3731532359
H   H1        1.0  0.09440  0.35910  0.95880  1.0000 0.1402654984
H   H2        1.0  0.90560  0.64090  0.04120  1.0000 0.1402654984
H   H3        1.0  0.15740  0.11210  0.73080  1.0000 0.1402654984
H   H4        1.0  0.84260  0.88790  0.26920  1.0000 0.1402654984
H   H5        1.0  0.71450  0.00170  0.41330  1.0000 0.1333455705
H   H6        1.0  0.28550  0.99830  0.58670  1.0000 0.1333455705
H   H7        1.0  0.72270  0.21240  0.54830  1.0000 0.4175632858
H   H8        1.0  0.27730  0.78760  0.45170  1.0000 0.4175632858
H   H9        1.0  0.74090  0.06480  0.61750  1.0000 0.4433891141
H   H10       1.0  0.25910  0.93520  0.38250  1.0000 0.4433891141
H   H11       1.0  0.58150  0.50090  0.61790  1.0000 0.4111835384
H   H12       1.0  0.41850  0.49910  0.38210  1.0000 0.4111835384
H   H13       1.0  0.63310  0.41270  0.54070  1.0000 0.4111835384
H   H14       1.0  0.36690  0.58730  0.45930  1.0000 0.4111835384
H   H15       1.0  0.35670  0.45030  0.63130  1.0000 0.4293444816
H   H16       1.0  0.64330  0.54970  0.36870  1.0000 0.4293444816
H   H17       1.0  0.29710  0.35110  0.71680  1.0000 0.4111835384
H   H18       1.0  0.70290  0.64890  0.28320  1.0000 0.4111835384
H   H19       1.0  0.52180  0.49040  0.78350  1.0000 0.4111835384
H   H20       1.0  0.47820  0.50960  0.21650  1.0000 0.4111835384
H   H21       1.0  0.50280  0.39320  0.89540  1.0000 0.4293444816
H   H22       1.0  0.49720  0.60680  0.10460  1.0000 0.4293444816
H   H23       1.0  0.85340  0.98820  0.81690  1.0000 0.4293444816
H   H24       1.0  0.14660  0.01180  0.18310  1.0000 0.4293444816
H   H25       1.0  0.73110  0.95870  0.89270  1.0000 0.4111835384
H   H26       1.0  0.26890  0.04130  0.10730  1.0000 0.4111835384
C   C1        1.0  0.99700  0.34260  0.85230  1.0000 -0.0424101985
C   C2        1.0  0.00300  0.65740  0.14770  1.0000 -0.0424101985
C   C3        1.0  0.10960  0.31300  0.91000  1.0000 -0.0841690226
C   C4        1.0  0.89040  0.68700  0.09000  1.0000 -0.0841690226
C   C5        1.0  0.24570  0.21490  0.89580  1.0000 -0.131059084
C   C6        1.0  0.75430  0.78510  0.10420  1.0000 -0.131059084
C   C7        1.0  0.26560  0.14270  0.82330  1.0000 -0.0304647683
C   C8        1.0  0.73440  0.85730  0.17670  1.0000 -0.0304647683
C   C9        1.0  0.14670  0.16500  0.77320  1.0000 -0.1619377992
C   C10       1.0  0.85330  0.83500  0.22680  1.0000 -0.1619377992
C   C11       1.0  0.01230  0.26680  0.78720  1.0000 -0.0106539027
C   C12       1.0  0.98770  0.73320  0.21280  1.0000 -0.0106539027
C   C13       1.0  0.62870  0.00190  0.44800  1.0000 -0.131059084
C   C14       1.0  0.37130  0.99810  0.55200  1.0000 -0.1350341476
C   C15       1.0  0.61650  0.87620  0.50490  1.0000 -0.0219658258
C   C16       1.0  0.38350  0.12380  0.49510  1.0000 -0.0219658258
C   C17       1.0  0.48620  0.87680  0.55560  1.0000 -0.0534363686
C   C18       1.0  0.51380  0.12320  0.44440  1.0000 -0.0534363686
C   C19       1.0  0.86240  0.46250  0.85740  1.0000 0.5698708558
C   C20       1.0  0.13760  0.53750  0.14260  1.0000 0.5698708558
C   C21       1.0  0.36000  0.19460  0.95660  1.0000 0.6403614694
C   C22       1.0  0.64000  0.80540  0.04340  1.0000 0.6403614694
C   C23       1.0  0.40750  0.04200  0.79500  1.0000 0.6403614694
C   C24       1.0  0.59250  0.95800  0.20500  1.0000 0.6403614694
C   C25       1.0  0.89220  0.29290  0.72460  1.0000 0.6639051699
C   C26       1.0  0.10780  0.70710  0.27540  1.0000 0.6639051699
C   C27       1.0  0.46550  0.74920  0.62010  1.0000 0.6301816964
C   C28       1.0  0.53450  0.25080  0.37990  1.0000 0.6301816964
C   C29       1.0  0.74380  0.74750  0.50610  1.0000 0.5549867415
C   C30       1.0  0.25620  0.25250  0.49390  1.0000 0.5549867415
O   O1        1.0  0.52950  0.63690  0.94320  1.0000 -0.6703900314
O   O2        1.0  0.47050  0.36310  0.05680  1.0000 -0.6703900314
O   O3        1.0  0.72040  0.78670  0.73210  1.0000 -0.6703900314
O   O4        1.0  0.27960  0.21330  0.26790  1.0000 -0.6609939273
O   O5        1.0  0.06780  0.49670  0.61210  1.0000 -0.6703900314
O   O6        1.0  0.93220  0.50330  0.38790  1.0000 -0.6703900314
O   O7        1.0  0.85230  0.53440  0.91400  1.0000 -0.5702663994
O   O8        1.0  0.14770  0.46560  0.08600  1.0000 -0.5702663994
O   O9        1.0  0.76140  0.49710  0.79940  1.0000 -0.5702663994
O   O10       1.0  0.23860  0.50290  0.20060  1.0000 -0.5702663994
O   O11       1.0  0.81210  0.23420  0.77260  1.0000 -0.6495098359
O   O12       1.0  0.18790  0.76580  0.22740  1.0000 -0.6495098359
O   O13       1.0  0.88540  0.36250  0.62620  1.0000 -0.6017535067
O   O14       1.0  0.11460  0.63750  0.37380  1.0000 -0.6017535067
O   O15       1.0  0.41530  0.92190  0.81700  1.0000 -0.6091057993
O   O16       1.0  0.58470  0.07810  0.18300  1.0000 -0.6091057993
O   O17       1.0  0.50460  0.07920  0.75530  1.0000 -0.640044365
O   O18       1.0  0.49540  0.92080  0.24470  1.0000 -0.640044365
O   O19       1.0  0.48270  0.17990  0.91540  1.0000 -0.6609939273
O   O20       1.0  0.51730  0.82010  0.08460  1.0000 -0.6609939273
O   O21       1.0  0.32840  0.19510  0.05120  1.0000 -0.6017535067
O   O22       1.0  0.67160  0.80490  0.94880  1.0000 -0.6017535067
O   O23       1.0  0.49840  0.69440  0.71900  1.0000 -0.6495098359
O   O24       1.0  0.50160  0.30560  0.28100  1.0000 -0.6495098359
O   O25       1.0  0.40950  0.70260  0.57920  1.0000 -0.5354350544
O   O26       1.0  0.59050  0.29740  0.42080  1.0000 -0.5354350544
O   O27       1.0  0.73470  0.63410  0.53340  1.0000 -0.5702663994
O   O28       1.0  0.26530  0.36590  0.46660  1.0000 -0.5702663994
O   O29       1.0  0.86340  0.74830  0.48140  1.0000 -0.5354350544
O   O30       1.0  0.13660  0.25170  0.51860  1.0000 -0.5354350544
O   O31       1.0  0.70950  0.15390  0.61090  1.0000 -0.8499152697
O   O32       1.0  0.29050  0.84610  0.38910  1.0000 -0.8499152697
O   O33       1.0  0.60570  0.42070  0.60670  1.0000 -0.8312987622
O   O34       1.0  0.39430  0.57930  0.39330  1.0000 -0.8312987622
O   O35       1.0  0.37070  0.37350  0.68650  1.0000 -0.8312987622
O   O36       1.0  0.62930  0.62650  0.31350  1.0000 -0.8312987622
O   O37       1.0  0.52620  0.40770  0.82520  1.0000 -0.8499152697
O   O38       1.0  0.47380  0.59230  0.17480  1.0000 -0.8499152697
O   O39       1.0  0.76070  0.01530  0.83790  1.0000 -0.8312987622
O   O40       1.0  0.23930  0.98470  0.16210  1.0000 -0.8312987622
