# DDEC6 charges by PACMAN v1.1 (https://github.com/mtap-research/PACMAN-charge/)
data_2014[CuMn][pcu]3[FSR]1
_chemical_formula_sum              "Mn4 Cu6 H40 C36 S6 N6 O24"
_cell_length_a       12.3484
_cell_length_b       12.466
_cell_length_c       14.098
_cell_angle_alpha    97.148
_cell_angle_beta     108.384
_cell_angle_gamma    119.315

_symmetry_space_group_name_H-M    "P 1"
_symmetry_Int_Tables_number       1

loop_
  _symmetry_equiv_pos_as_xyz
  'x, y, z'

loop_
  _atom_site_type_symbol
  _atom_site_label
  _atom_site_symmetry_multiplicity
  _atom_site_fract_x
  _atom_site_fract_y
  _atom_site_fract_z
  _atom_site_occupancy
  _atom_site_charge
Mn  Mn1       1.0  0.11058  0.01112  0.10698  1.0000 1.0326939427
Mn  Mn2       1.0  0.88942  0.98888  0.89302  1.0000 1.0326939427
Mn  Mn3       1.0  0.25358  0.31832  0.05971  1.0000 1.0751498544
Mn  Mn4       1.0  0.74642  0.68168  0.94029  1.0000 1.0751498544
Cu  Cu1       1.0  0.09316  0.42791  0.58510  1.0000 0.1492945904
Cu  Cu2       1.0  0.90684  0.57209  0.41490  1.0000 0.1492945904
Cu  Cu3       1.0  0.83913  0.31478  0.41109  1.0000 0.1677401865
Cu  Cu4       1.0  0.16087  0.68522  0.58891  1.0000 0.1677401865
Cu  Cu5       1.0  0.10148  0.50696  0.40835  1.0000 0.1595049256
Cu  Cu6       1.0  0.89852  0.49304  0.59165  1.0000 0.1595049256
H   H1        1.0  0.10270  0.00190  0.39200  1.0000 0.1182091532
H   H2        1.0  0.89730  0.99810  0.60800  1.0000 0.1182091532
H   H3        1.0  0.20400  0.09460  0.57670  1.0000 0.1182091532
H   H4        1.0  0.79600  0.90540  0.42330  1.0000 0.1182091532
H   H5        1.0  0.19690  0.26510  0.64990  1.0000 0.0959934795
H   H6        1.0  0.80310  0.73490  0.35010  1.0000 0.0959934795
H   H7        1.0  0.61550  0.03540  0.33940  1.0000 0.1122112924
H   H8        1.0  0.38450  0.96460  0.66060  1.0000 0.1122112924
H   H9        1.0  0.51630  0.87110  0.40510  1.0000 0.1182091532
H   H10       1.0  0.48370  0.12890  0.59490  1.0000 0.1182091532
H   H11       1.0  0.60470  0.91660  0.58780  1.0000 0.1182091532
H   H12       1.0  0.39530  0.08340  0.41220  1.0000 0.1182091532
H   H13       1.0  0.67630  0.70720  0.58080  1.0000 0.1182091532
H   H14       1.0  0.32370  0.29280  0.41920  1.0000 0.1182091532
H   H15       1.0  0.54270  0.62140  0.39760  1.0000 0.1182091532
H   H16       1.0  0.45730  0.37860  0.60240  1.0000 0.1182091532
H   H17       1.0  0.31260  0.54220  0.33360  1.0000 0.0915844345
H   H18       1.0  0.68740  0.45780  0.66640  1.0000 0.0915844345
H   H19       1.0  0.13300  0.09800  0.95600  1.0000 0.3522687161
H   H20       1.0  0.86700  0.90200  0.04400  1.0000 0.3522687161
H   H21       1.0  0.19500  0.38300  0.89200  1.0000 0.2909429499
H   H22       1.0  0.80500  0.61700  0.10800  1.0000 0.2909429499
H   H23       1.0  0.07800  0.26400  0.87000  1.0000 0.3372879529
H   H24       1.0  0.92200  0.73600  0.13000  1.0000 0.3372879529
H   H25       1.0  0.17300  0.84400  0.08100  1.0000 0.3034486675
H   H26       1.0  0.82700  0.15600  0.91900  1.0000 0.3034486675
H   H27       1.0  0.09200  0.83600  0.99200  1.0000 0.2909429499
H   H28       1.0  0.90800  0.16400  0.00800  1.0000 0.2909429499
H   H29       1.0  0.11600  0.29300  0.17900  1.0000 0.4097314233
H   H30       1.0  0.88400  0.70700  0.82100  1.0000 0.4097314233
H   H31       1.0  0.10600  0.40200  0.14000  1.0000 0.4097314233
H   H32       1.0  0.89400  0.59800  0.86000  1.0000 0.4097314233
H   H33       1.0  0.34800  0.57500  0.11700  1.0000 0.389608463
H   H34       1.0  0.65200  0.42500  0.88300  1.0000 0.389608463
H   H35       1.0  0.48500  0.58500  0.16100  1.0000 0.3742158616
H   H36       1.0  0.51500  0.41500  0.83900  1.0000 0.3742158616
H   H37       1.0  0.37300  0.28700  0.93200  1.0000 0.389608463
H   H38       1.0  0.62700  0.71300  0.06800  1.0000 0.389608463
H   H39       1.0  0.48300  0.38600  0.04600  1.0000 0.3774997795
H   H40       1.0  0.51700  0.61400  0.95400  1.0000 0.3774997795
C   C1        1.0  0.03870  0.22440  0.41020  1.0000 0.2044036293
C   C2        1.0  0.96130  0.77560  0.58980  1.0000 0.2044036293
C   C3        1.0  0.04060  0.12150  0.36090  1.0000 -0.0933723061
C   C4        1.0  0.95940  0.87850  0.63910  1.0000 -0.0933723061
C   C5        1.0  0.10170  0.07140  0.42320  1.0000 -0.0717291257
C   C6        1.0  0.89830  0.92860  0.57680  1.0000 -0.0717291257
C   C7        1.0  0.16160  0.12620  0.53320  1.0000 -0.1594976729
C   C8        1.0  0.83840  0.87380  0.46680  1.0000 -0.1594976729
C   C9        1.0  0.15670  0.22840  0.57640  1.0000 0.0621192956
C   C10       1.0  0.84330  0.77160  0.42360  1.0000 0.0621192956
C   C11       1.0  0.98650  0.07280  0.24220  1.0000 0.5803038085
C   C12       1.0  0.01350  0.92720  0.75780  1.0000 0.5803038085
C   C13       1.0  0.65010  0.05360  0.41250  1.0000 0.0677089745
C   C14       1.0  0.34990  0.94640  0.58750  1.0000 0.0677089745
C   C15       1.0  0.59040  0.95450  0.45100  1.0000 -0.1594976729
C   C16       1.0  0.40960  0.04550  0.54900  1.0000 -0.1594976729
C   C17       1.0  0.64300  0.98200  0.55980  1.0000 -0.0717291257
C   C18       1.0  0.35700  0.01800  0.44020  1.0000 -0.0717291257
C   C19       1.0  0.75240  0.10650  0.62660  1.0000 -0.0959912038
C   C20       1.0  0.24760  0.89350  0.37340  1.0000 -0.0959912038
C   C21       1.0  0.80770  0.20310  0.58150  1.0000 0.2133161144
C   C22       1.0  0.19230  0.79690  0.41850  1.0000 0.2133161144
C   C23       1.0  0.81380  0.13670  0.74530  1.0000 0.5803038085
C   C24       1.0  0.18620  0.86330  0.25470  1.0000 0.5803038085
C   C25       1.0  0.38200  0.62450  0.57650  1.0000 0.2133161144
C   C26       1.0  0.61800  0.37550  0.42350  1.0000 0.2133161144
C   C27       1.0  0.52280  0.67580  0.62070  1.0000 -0.0933723061
C   C28       1.0  0.47720  0.32420  0.37930  1.0000 -0.0933723061
C   C29       1.0  0.58280  0.67420  0.55310  1.0000 -0.0787892139
C   C30       1.0  0.41720  0.32580  0.44690  1.0000 -0.0787892139
C   C31       1.0  0.50370  0.62340  0.44400  1.0000 -0.1594976729
C   C32       1.0  0.49630  0.37660  0.55600  1.0000 -0.1594976729
C   C33       1.0  0.36610  0.57600  0.40660  1.0000 0.0516118349
C   C34       1.0  0.63390  0.42400  0.59340  1.0000 0.0516118349
C   C35       1.0  0.61060  0.73340  0.73970  1.0000 0.6090339029
C   C36       1.0  0.38940  0.26660  0.26030  1.0000 0.6090339029
S   S1        1.0  0.96085  0.28992  0.33229  1.0000 -0.3231150702
S   S2        1.0  0.03915  0.71008  0.66771  1.0000 -0.3231150702
S   S3        1.0  0.94951  0.36372  0.66347  1.0000 -0.3231150702
S   S4        1.0  0.05049  0.63628  0.33653  1.0000 -0.3254459894
S   S5        1.0  0.29938  0.62158  0.65959  1.0000 -0.2944834328
S   S6        1.0  0.70062  0.37842  0.34041  1.0000 -0.2944834328
N   N1        1.0  0.09670  0.27690  0.51690  1.0000 -0.2144728696
N   N2        1.0  0.90330  0.72310  0.48310  1.0000 -0.2144728696
N   N3        1.0  0.75620  0.17520  0.47610  1.0000 -0.2183546668
N   N4        1.0  0.24380  0.82480  0.52390  1.0000 -0.2183546668
N   N5        1.0  0.30480  0.57600  0.47070  1.0000 -0.2183546668
N   N6        1.0  0.69520  0.42400  0.52930  1.0000 -0.2183546668
O   O1        1.0  0.07580  0.12690  0.20693  1.0000 -0.5922048784
O   O2        1.0  0.92420  0.87310  0.79307  1.0000 -0.5922048784
O   O3        1.0  0.86250  0.98420  0.18659  1.0000 -0.539652074
O   O4        1.0  0.13750  0.01580  0.81341  1.0000 -0.539652074
O   O5        1.0  0.89700  0.10410  0.78120  1.0000 -0.5922048784
O   O6        1.0  0.10300  0.89590  0.21880  1.0000 -0.5922048784
O   O7        1.0  0.78010  0.18950  0.79990  1.0000 -0.5344372487
O   O8        1.0  0.21990  0.81050  0.20010  1.0000 -0.5344372487
O   O9        1.0  0.61980  0.65620  0.78420  1.0000 -0.5844490921
O   O10       1.0  0.38020  0.34380  0.21580  1.0000 -0.5844490921
O   O11       1.0  0.66830  0.85350  0.78334  1.0000 -0.539652074
O   O12       1.0  0.33170  0.14650  0.21666  1.0000 -0.539652074
O   O13       1.0  0.15470  0.88260  0.02810  1.0000 -0.5532431996
O   O14       1.0  0.84530  0.11740  0.97190  1.0000 -0.5532431996
O   O15       1.0  0.11310  0.11260  0.99459  1.0000 -0.7688147223
O   O16       1.0  0.88690  0.88740  0.00541  1.0000 -0.7688147223
O   O17       1.0  0.11600  0.33170  0.12600  1.0000 -0.7433965599
O   O18       1.0  0.88400  0.66830  0.87400  1.0000 -0.7433965599
O   O19       1.0  0.39080  0.53130  0.11030  1.0000 -0.7688147223
O   O20       1.0  0.60920  0.46870  0.88970  1.0000 -0.7688147223
O   O21       1.0  0.15190  0.33690  0.91180  1.0000 -0.5922048784
O   O22       1.0  0.84810  0.66310  0.08820  1.0000 -0.5922048784
O   O23       1.0  0.40070  0.30210  0.00570  1.0000 -0.7152198946
O   O24       1.0  0.59930  0.69790  0.99430  1.0000 -0.7152198946
