# DDEC6 charges by PACMAN v1.1 (https://github.com/mtap-research/PACMAN-charge/)
data_2014[Mn][tfz]3[FSR]1
_chemical_formula_sum              "Mn6 H132 C150 N24 O24"
_cell_length_a       12.5272
_cell_length_b       12.5272
_cell_length_c       28.346
_cell_angle_alpha    82.8405
_cell_angle_beta     97.1595
_cell_angle_gamma    85.0176

_symmetry_space_group_name_H-M    "P 1"
_symmetry_Int_Tables_number       1

loop_
  _symmetry_equiv_pos_as_xyz
  'x, y, z'

loop_
  _atom_site_type_symbol
  _atom_site_label
  _atom_site_symmetry_multiplicity
  _atom_site_fract_x
  _atom_site_fract_y
  _atom_site_fract_z
  _atom_site_occupancy
  _atom_site_charge
Mn  Mn1       1.0  0.40250  0.83742  0.91171  1.0000 0.8891528919
Mn  Mn2       1.0  0.83742  0.40250  0.58829  1.0000 0.8891528919
Mn  Mn3       1.0  0.59750  0.16258  0.08829  1.0000 0.8891528919
Mn  Mn4       1.0  0.16258  0.59750  0.41171  1.0000 0.8891528919
Mn  Mn5       1.0  0.50000  0.00000  0.00000  1.0000 1.0891458764
Mn  Mn6       1.0  0.00000  0.50000  0.50000  1.0000 1.0891458764
H   H1        1.0  0.12080  0.02560  0.94060  1.0000 0.1501265876
H   H2        1.0  0.02560  0.12080  0.55940  1.0000 0.1501265876
H   H3        1.0  0.87920  0.97440  0.05940  1.0000 0.1501265876
H   H4        1.0  0.97440  0.87920  0.44060  1.0000 0.1501265876
H   H5        1.0  0.12130  0.90850  0.97050  1.0000 0.1501265876
H   H6        1.0  0.90850  0.12130  0.52950  1.0000 0.1501265876
H   H7        1.0  0.87870  0.09150  0.02950  1.0000 0.1501265876
H   H8        1.0  0.09150  0.87870  0.47050  1.0000 0.1501265876
H   H9        1.0  0.23280  0.95180  0.95850  1.0000 0.1591054704
H   H10       1.0  0.95180  0.23280  0.54150  1.0000 0.1591054704
H   H11       1.0  0.76720  0.04820  0.04150  1.0000 0.1591054704
H   H12       1.0  0.04820  0.76720  0.45850  1.0000 0.1591054704
H   H13       1.0  0.42520  0.54720  0.96410  1.0000 0.1591054704
H   H14       1.0  0.54720  0.42520  0.53590  1.0000 0.1591054704
H   H15       1.0  0.57480  0.45280  0.03590  1.0000 0.1591054704
H   H16       1.0  0.45280  0.57480  0.46410  1.0000 0.1591054704
H   H17       1.0  0.50940  0.47880  0.93840  1.0000 0.144697465
H   H18       1.0  0.47880  0.50940  0.56160  1.0000 0.144697465
H   H19       1.0  0.49060  0.52120  0.06160  1.0000 0.144697465
H   H20       1.0  0.52120  0.49060  0.43840  1.0000 0.144697465
H   H21       1.0  0.52330  0.60290  0.94350  1.0000 0.1591054704
H   H22       1.0  0.60290  0.52330  0.55650  1.0000 0.1591054704
H   H23       1.0  0.47670  0.39710  0.05650  1.0000 0.1591054704
H   H24       1.0  0.39710  0.47670  0.44350  1.0000 0.1591054704
H   H25       1.0  0.24640  0.19780  0.22830  1.0000 0.1300066498
H   H26       1.0  0.19780  0.24640  0.27170  1.0000 0.1300066498
H   H27       1.0  0.75360  0.80220  0.77170  1.0000 0.1300066498
H   H28       1.0  0.80220  0.75360  0.72830  1.0000 0.1300066498
H   H29       1.0  0.76960  0.99740  0.94820  1.0000 0.1300066498
H   H30       1.0  0.99740  0.76960  0.55180  1.0000 0.1300066498
H   H31       1.0  0.23040  0.00260  0.05180  1.0000 0.1300066498
H   H32       1.0  0.00260  0.23040  0.44820  1.0000 0.1300066498
H   H33       1.0  0.75100  0.70840  0.89920  1.0000 0.1184756971
H   H34       1.0  0.70840  0.75100  0.60080  1.0000 0.1184756971
H   H35       1.0  0.24900  0.29160  0.10080  1.0000 0.1184756971
H   H36       1.0  0.29160  0.24900  0.39920  1.0000 0.1184756971
H   H37       1.0  0.34500  0.19320  0.94220  1.0000 0.1300066498
H   H38       1.0  0.19320  0.34500  0.55780  1.0000 0.1300066498
H   H39       1.0  0.65500  0.80680  0.05780  1.0000 0.1300066498
H   H40       1.0  0.80680  0.65500  0.44220  1.0000 0.1300066498
H   H41       1.0  0.22690  0.79250  0.77610  1.0000 0.1300066498
H   H42       1.0  0.79250  0.22690  0.72390  1.0000 0.1300066498
H   H43       1.0  0.77310  0.20750  0.22390  1.0000 0.1300066498
H   H44       1.0  0.20750  0.77310  0.27610  1.0000 0.1300066498
H   H45       1.0  0.32160  0.84780  0.80410  1.0000 0.1591054704
H   H46       1.0  0.84780  0.32160  0.69590  1.0000 0.1591054704
H   H47       1.0  0.67840  0.15220  0.19590  1.0000 0.1591054704
H   H48       1.0  0.15220  0.67840  0.30410  1.0000 0.1591054704
H   H49       1.0  0.41110  0.38230  0.79770  1.0000 0.1184756971
H   H50       1.0  0.38230  0.41110  0.70230  1.0000 0.1184756971
H   H51       1.0  0.58890  0.61770  0.20230  1.0000 0.1184756971
H   H52       1.0  0.61770  0.58890  0.29770  1.0000 0.1184756971
H   H53       1.0  0.93370  0.01290  0.91700  1.0000 0.1184756971
H   H54       1.0  0.01290  0.93370  0.58300  1.0000 0.1184756971
H   H55       1.0  0.06630  0.98710  0.08300  1.0000 0.1184756971
H   H56       1.0  0.98710  0.06630  0.41700  1.0000 0.1184756971
H   H57       1.0  0.36650  0.80810  0.10900  1.0000 0.1184756971
H   H58       1.0  0.80810  0.36650  0.39100  1.0000 0.1184756971
H   H59       1.0  0.63350  0.19190  0.89100  1.0000 0.1184756971
H   H60       1.0  0.19190  0.63350  0.60900  1.0000 0.1184756971
H   H61       1.0  0.32440  0.38000  0.93030  1.0000 0.1184756971
H   H62       1.0  0.38000  0.32440  0.56970  1.0000 0.1184756971
H   H63       1.0  0.67560  0.62000  0.06970  1.0000 0.1184756971
H   H64       1.0  0.62000  0.67560  0.43030  1.0000 0.1184756971
H   H65       1.0  0.43090  0.19370  0.80870  1.0000 0.1184756971
H   H66       1.0  0.19370  0.43090  0.69130  1.0000 0.1184756971
H   H67       1.0  0.56910  0.80630  0.19130  1.0000 0.1184756971
H   H68       1.0  0.80630  0.56910  0.30870  1.0000 0.1184756971
H   H69       1.0  0.27330  0.61270  0.01340  1.0000 0.1300066498
H   H70       1.0  0.61270  0.27330  0.48660  1.0000 0.1300066498
H   H71       1.0  0.72670  0.38730  0.98660  1.0000 0.1184756971
H   H72       1.0  0.38730  0.72670  0.51340  1.0000 0.1300066498
H   H73       1.0  0.30920  0.69340  0.17000  1.0000 0.1184756971
H   H74       1.0  0.69340  0.30920  0.33000  1.0000 0.1184756971
H   H75       1.0  0.69080  0.30660  0.83000  1.0000 0.1184756971
H   H76       1.0  0.30660  0.69080  0.67000  1.0000 0.1184756971
H   H77       1.0  0.38780  0.27240  0.17540  1.0000 0.1501265876
H   H78       1.0  0.27240  0.38780  0.32460  1.0000 0.1501265876
H   H79       1.0  0.61220  0.72760  0.82460  1.0000 0.1501265876
H   H80       1.0  0.72760  0.61220  0.67540  1.0000 0.1501265876
H   H81       1.0  0.41140  0.38360  0.14610  1.0000 0.1591054704
H   H82       1.0  0.38360  0.41140  0.35390  1.0000 0.1591054704
H   H83       1.0  0.58860  0.61640  0.85390  1.0000 0.1591054704
H   H84       1.0  0.61640  0.58860  0.64610  1.0000 0.1591054704
H   H85       1.0  0.45200  0.35720  0.20250  1.0000 0.1501265876
H   H86       1.0  0.35720  0.45200  0.29750  1.0000 0.1501265876
H   H87       1.0  0.54800  0.64280  0.79750  1.0000 0.1501265876
H   H88       1.0  0.64280  0.54800  0.70250  1.0000 0.1501265876
H   H89       1.0  0.91870  0.71750  0.87430  1.0000 0.1135029005
H   H90       1.0  0.71750  0.91870  0.62570  1.0000 0.1184756971
H   H91       1.0  0.08130  0.28250  0.12570  1.0000 0.1135029005
H   H92       1.0  0.28250  0.08130  0.37430  1.0000 0.1135029005
H   H93       1.0  0.21790  0.49530  0.07450  1.0000 0.1184756971
H   H94       1.0  0.49530  0.21790  0.42550  1.0000 0.1184756971
H   H95       1.0  0.78210  0.50470  0.92550  1.0000 0.1184756971
H   H96       1.0  0.50470  0.78210  0.57450  1.0000 0.1184756971
H   H97       1.0  0.00880  0.59160  0.21170  1.0000 0.1501265876
H   H98       1.0  0.59160  0.00880  0.28830  1.0000 0.1501265876
H   H99       1.0  0.99120  0.40840  0.78830  1.0000 0.1501265876
H   H100      1.0  0.40840  0.99120  0.71170  1.0000 0.1501265876
H   H101      1.0  0.09200  0.67220  0.19340  1.0000 0.1300066498
H   H102      1.0  0.67220  0.09200  0.30660  1.0000 0.1300066498
H   H103      1.0  0.90800  0.32780  0.80660  1.0000 0.1300066498
H   H104      1.0  0.32780  0.90800  0.69340  1.0000 0.1300066498
H   H105      1.0  0.01850  0.61530  0.15570  1.0000 0.1501265876
H   H106      1.0  0.61530  0.01850  0.34430  1.0000 0.1501265876
H   H107      1.0  0.98150  0.38470  0.84430  1.0000 0.1501265876
H   H108      1.0  0.38470  0.98150  0.65570  1.0000 0.1501265876
H   H109      1.0  0.94080  0.82160  0.79240  1.0000 0.1501265876
H   H110      1.0  0.82160  0.94080  0.70760  1.0000 0.1501265876
H   H111      1.0  0.05920  0.17840  0.20760  1.0000 0.1501265876
H   H112      1.0  0.17840  0.05920  0.29240  1.0000 0.1501265876
H   H113      1.0  0.04610  0.80930  0.76610  1.0000 0.1501265876
H   H114      1.0  0.80930  0.04610  0.73390  1.0000 0.1501265876
H   H115      1.0  0.95390  0.19070  0.23390  1.0000 0.1501265876
H   H116      1.0  0.19070  0.95390  0.26610  1.0000 0.1501265876
H   H117      1.0  0.01850  0.71050  0.80240  1.0000 0.1591054704
H   H118      1.0  0.71050  0.01850  0.69760  1.0000 0.1591054704
H   H119      1.0  0.98150  0.28950  0.19760  1.0000 0.1591054704
H   H120      1.0  0.28950  0.98150  0.30240  1.0000 0.1591054704
H   H121      1.0  0.27290  0.59970  0.74690  1.0000 0.1501265876
H   H122      1.0  0.59970  0.27290  0.75310  1.0000 0.1501265876
H   H123      1.0  0.72710  0.40030  0.25310  1.0000 0.1501265876
H   H124      1.0  0.40030  0.72710  0.24690  1.0000 0.1501265876
H   H125      1.0  0.23250  0.49470  0.77470  1.0000 0.1591054704
H   H126      1.0  0.49470  0.23250  0.72530  1.0000 0.1591054704
H   H127      1.0  0.76750  0.50530  0.22530  1.0000 0.1591054704
H   H128      1.0  0.50530  0.76750  0.27470  1.0000 0.1591054704
H   H129      1.0  0.16430  0.61030  0.77100  1.0000 0.1591054704
H   H130      1.0  0.61030  0.16430  0.72900  1.0000 0.1591054704
H   H131      1.0  0.83570  0.38970  0.22900  1.0000 0.1591054704
H   H132      1.0  0.38970  0.83570  0.27100  1.0000 0.1591054704
C   C1        1.0  0.14540  0.90320  0.90120  1.0000 0.2496526017
C   C2        1.0  0.90320  0.14540  0.59880  1.0000 0.2496526017
C   C3        1.0  0.85460  0.09680  0.09880  1.0000 0.2496526017
C   C4        1.0  0.09680  0.85460  0.40120  1.0000 0.2496526017
C   C5        1.0  0.15600  0.95140  0.94650  1.0000 -0.4916039333
C   C6        1.0  0.95140  0.15600  0.55350  1.0000 -0.4916039333
C   C7        1.0  0.84400  0.04860  0.05350  1.0000 -0.4916039333
C   C8        1.0  0.04860  0.84400  0.44650  1.0000 -0.4916039333
C   C9        1.0  0.47080  0.55040  0.93830  1.0000 -0.4916039333
C   C10       1.0  0.55040  0.47080  0.56170  1.0000 -0.4916039333
C   C11       1.0  0.52920  0.44960  0.06170  1.0000 -0.4916039333
C   C12       1.0  0.44960  0.52920  0.43830  1.0000 -0.4916039333
C   C13       1.0  0.25370  0.25370  0.25000  1.0000 -0.0781774583
C   C14       1.0  0.74630  0.74630  0.75000  1.0000 -0.0781774583
C   C15       1.0  0.36910  0.79270  0.01680  1.0000 0.586077474
C   C16       1.0  0.79270  0.36910  0.48320  1.0000 0.586077474
C   C17       1.0  0.63090  0.20730  0.98320  1.0000 0.586077474
C   C18       1.0  0.20730  0.63090  0.51680  1.0000 0.586077474
C   C19       1.0  0.40890  0.05210  0.88560  1.0000 0.5641808882
C   C20       1.0  0.05210  0.40890  0.61440  1.0000 0.5641808882
C   C21       1.0  0.59110  0.94790  0.11440  1.0000 0.5641808882
C   C22       1.0  0.94790  0.59110  0.38560  1.0000 0.5641808882
C   C23       1.0  0.36630  0.40110  0.86290  1.0000 0.1184756971
C   C24       1.0  0.40110  0.36630  0.63710  1.0000 0.1184756971
C   C25       1.0  0.63370  0.59890  0.13710  1.0000 0.1184756971
C   C26       1.0  0.59890  0.63370  0.36290  1.0000 0.1184756971
C   C27       1.0  0.35620  0.52080  0.85760  1.0000 -0.1807025448
C   C28       1.0  0.52080  0.35620  0.64240  1.0000 -0.1807025448
C   C29       1.0  0.64380  0.47920  0.14240  1.0000 -0.1807025448
C   C30       1.0  0.47920  0.64380  0.35760  1.0000 -0.1807025448
C   C31       1.0  0.79860  0.94180  0.93210  1.0000 -0.1024419467
C   C32       1.0  0.94180  0.79860  0.56790  1.0000 -0.1024419467
C   C33       1.0  0.20140  0.05820  0.06790  1.0000 -0.1024419467
C   C34       1.0  0.05820  0.20140  0.43210  1.0000 -0.1024419467
C   C35       1.0  0.04980  0.86880  0.87690  1.0000 -0.1658989676
C   C36       1.0  0.86880  0.04980  0.62310  1.0000 -0.1658989676
C   C37       1.0  0.95020  0.13120  0.12310  1.0000 -0.1658989676
C   C38       1.0  0.13120  0.95020  0.37690  1.0000 -0.1658989676
C   C39       1.0  0.29010  0.40250  0.18680  1.0000 0.1591054704
C   C40       1.0  0.40250  0.29010  0.31320  1.0000 0.1591054704
C   C41       1.0  0.70990  0.59750  0.81320  1.0000 0.1591054704
C   C42       1.0  0.59750  0.70990  0.68680  1.0000 0.1591054704
C   C43       1.0  0.63550  0.84770  0.94240  1.0000 0.5818076804
C   C44       1.0  0.84770  0.63550  0.55760  1.0000 0.5818076804
C   C45       1.0  0.36450  0.15230  0.05760  1.0000 0.5818076804
C   C46       1.0  0.15230  0.36450  0.44240  1.0000 0.5818076804
C   C47       1.0  0.78880  0.76960  0.90370  1.0000 -0.1024419467
C   C48       1.0  0.76960  0.78880  0.59630  1.0000 -0.1024419467
C   C49       1.0  0.21120  0.23040  0.09630  1.0000 -0.1024419467
C   C50       1.0  0.23040  0.21120  0.40370  1.0000 -0.1024419467
C   C51       1.0  0.30130  0.59230  0.81990  1.0000 0.1690324582
C   C52       1.0  0.59230  0.30130  0.68010  1.0000 0.1690324582
C   C53       1.0  0.69870  0.40770  0.18010  1.0000 0.1690324582
C   C54       1.0  0.40770  0.69870  0.31990  1.0000 0.1690324582
C   C55       1.0  0.35910  0.23070  0.91270  1.0000 -0.091639132
C   C56       1.0  0.23070  0.35910  0.58730  1.0000 -0.091639132
C   C57       1.0  0.64090  0.76930  0.08730  1.0000 -0.091639132
C   C58       1.0  0.76930  0.64090  0.41270  1.0000 -0.091639132
C   C59       1.0  0.26520  0.79820  0.80820  1.0000 -0.0781774583
C   C60       1.0  0.79820  0.26520  0.69180  1.0000 -0.0781774583
C   C61       1.0  0.73480  0.20180  0.19180  1.0000 -0.0781774583
C   C62       1.0  0.20180  0.73480  0.30820  1.0000 -0.0781774583
C   C63       1.0  0.23450  0.50190  0.16790  1.0000 -0.1948690787
C   C64       1.0  0.50190  0.23450  0.33210  1.0000 -0.1948690787
C   C65       1.0  0.76550  0.49810  0.83210  1.0000 -0.1956934706
C   C66       1.0  0.49810  0.76550  0.66790  1.0000 -0.1948690787
C   C67       1.0  0.94310  0.86490  0.89320  1.0000 0.1041703876
C   C68       1.0  0.86490  0.94310  0.60680  1.0000 0.1041703876
C   C69       1.0  0.05690  0.13510  0.10680  1.0000 0.1041703876
C   C70       1.0  0.13510  0.05690  0.39320  1.0000 0.1041703876
C   C71       1.0  0.39780  0.34400  0.82710  1.0000 -0.1585218038
C   C72       1.0  0.34400  0.39780  0.67290  1.0000 -0.1585218038
C   C73       1.0  0.60220  0.65600  0.17290  1.0000 -0.1585218038
C   C74       1.0  0.65600  0.60220  0.32710  1.0000 -0.1585218038
C   C75       1.0  0.40100  0.58460  0.89070  1.0000 0.2397716753
C   C76       1.0  0.58460  0.40100  0.60930  1.0000 0.2397716753
C   C77       1.0  0.59900  0.41540  0.10930  1.0000 0.2397716753
C   C78       1.0  0.41540  0.59900  0.39070  1.0000 0.2397716753
C   C79       1.0  0.89750  0.94990  0.91450  1.0000 -0.1585218038
C   C80       1.0  0.94990  0.89750  0.58550  1.0000 -0.1585218038
C   C81       1.0  0.10250  0.05010  0.08550  1.0000 -0.1585218038
C   C82       1.0  0.05010  0.10250  0.41450  1.0000 -0.1585218038
C   C83       1.0  0.33690  0.74390  0.10170  1.0000 -0.091639132
C   C84       1.0  0.74390  0.33690  0.39830  1.0000 -0.091639132
C   C85       1.0  0.66310  0.25610  0.89830  1.0000 -0.091639132
C   C86       1.0  0.25610  0.66310  0.60170  1.0000 -0.091639132
C   C87       1.0  0.26390  0.57910  0.12870  1.0000 0.1135029005
C   C88       1.0  0.57910  0.26390  0.37130  1.0000 0.1135029005
C   C89       1.0  0.73610  0.42090  0.87130  1.0000 0.1135029005
C   C90       1.0  0.42090  0.73610  0.62870  1.0000 0.1135029005
C   C91       1.0  0.74280  0.85180  0.92590  1.0000 -0.0315488847
C   C92       1.0  0.85180  0.74280  0.57410  1.0000 -0.0315488847
C   C93       1.0  0.25720  0.14820  0.07410  1.0000 -0.0315488847
C   C94       1.0  0.14820  0.25720  0.42590  1.0000 -0.0315488847
C   C95       1.0  0.32720  0.72140  0.05580  1.0000 -0.0371549391
C   C96       1.0  0.72140  0.32720  0.44420  1.0000 -0.0371549391
C   C97       1.0  0.67280  0.27860  0.94420  1.0000 -0.0371549391
C   C98       1.0  0.27860  0.67280  0.55580  1.0000 -0.0371549391
C   C99       1.0  0.14550  0.51210  0.19370  1.0000 0.2178194597
C   C100      1.0  0.51210  0.14550  0.30630  1.0000 0.2178194597
C   C101      1.0  0.85450  0.48790  0.80630  1.0000 0.2178194597
C   C102      1.0  0.48790  0.85450  0.69370  1.0000 0.2178194597
C   C103      1.0  0.34680  0.34220  0.90560  1.0000 -0.1415396221
C   C104      1.0  0.34220  0.34680  0.59440  1.0000 -0.1415396221
C   C105      1.0  0.65320  0.65780  0.09440  1.0000 -0.1415396221
C   C106      1.0  0.65780  0.65320  0.40560  1.0000 -0.1415396221
C   C107      1.0  0.41000  0.23120  0.83380  1.0000 -0.1111415066
C   C108      1.0  0.23120  0.41000  0.66620  1.0000 -0.1111415066
C   C109      1.0  0.59000  0.76880  0.16620  1.0000 -0.1111415066
C   C110      1.0  0.76880  0.59000  0.33380  1.0000 -0.1111415066
C   C111      1.0  0.39180  0.17200  0.87750  1.0000 -0.0315488847
C   C112      1.0  0.17200  0.39180  0.62250  1.0000 -0.0315488847
C   C113      1.0  0.60820  0.82800  0.12250  1.0000 -0.0315488847
C   C114      1.0  0.82800  0.60820  0.37750  1.0000 -0.0315488847
C   C115      1.0  0.08100  0.83020  0.83650  1.0000 0.1591054704
C   C116      1.0  0.83020  0.08100  0.66350  1.0000 0.1591054704
C   C117      1.0  0.91900  0.16980  0.16350  1.0000 0.1591054704
C   C118      1.0  0.16980  0.91900  0.33650  1.0000 0.1591054704
C   C119      1.0  0.28230  0.62870  0.04540  1.0000 -0.091639132
C   C120      1.0  0.62870  0.28230  0.45460  1.0000 -0.1024419467
C   C121      1.0  0.71770  0.37130  0.95460  1.0000 -0.091639132
C   C122      1.0  0.37130  0.71770  0.54540  1.0000 -0.091639132
C   C123      1.0  0.30400  0.67480  0.13830  1.0000 -0.1585218038
C   C124      1.0  0.67480  0.30400  0.36170  1.0000 -0.1585218038
C   C125      1.0  0.69600  0.32520  0.86170  1.0000 -0.1585218038
C   C126      1.0  0.32520  0.69600  0.63830  1.0000 -0.1585218038
C   C127      1.0  0.39420  0.34940  0.17680  1.0000 -0.5058026538
C   C128      1.0  0.34940  0.39420  0.32320  1.0000 -0.5058026538
C   C129      1.0  0.60580  0.65060  0.82320  1.0000 -0.5015893385
C   C130      1.0  0.65060  0.60580  0.67680  1.0000 -0.5015893385
C   C131      1.0  0.88780  0.77560  0.88840  1.0000 -0.1489371304
C   C132      1.0  0.77560  0.88780  0.61160  1.0000 -0.1489371304
C   C133      1.0  0.11220  0.22440  0.11160  1.0000 -0.1489371304
C   C134      1.0  0.22440  0.11220  0.38840  1.0000 -0.1489371304
C   C135      1.0  0.24980  0.55820  0.08200  1.0000 -0.1489371304
C   C136      1.0  0.55820  0.24980  0.41800  1.0000 -0.1489371304
C   C137      1.0  0.75020  0.44180  0.91800  1.0000 -0.1489371304
C   C138      1.0  0.44180  0.75020  0.58200  1.0000 -0.1489371304
C   C139      1.0  0.05850  0.60610  0.18820  1.0000 -0.4836266935
C   C140      1.0  0.60610  0.05850  0.31180  1.0000 -0.4836266935
C   C141      1.0  0.94150  0.39390  0.81180  1.0000 -0.4836266935
C   C142      1.0  0.39390  0.94150  0.68820  1.0000 -0.4836266935
C   C143      1.0  0.01600  0.78940  0.79580  1.0000 -0.5015893385
C   C144      1.0  0.78940  0.01600  0.70420  1.0000 -0.5015893385
C   C145      1.0  0.98400  0.21060  0.20420  1.0000 -0.5015893385
C   C146      1.0  0.21060  0.98400  0.29580  1.0000 -0.5015893385
C   C147      1.0  0.23720  0.57260  0.77420  1.0000 -0.5015893385
C   C148      1.0  0.57260  0.23720  0.72580  1.0000 -0.5015893385
C   C149      1.0  0.76280  0.42740  0.22580  1.0000 -0.5015893385
C   C150      1.0  0.42740  0.76280  0.27420  1.0000 -0.5015893385
N   N1        1.0  0.31580  0.69180  0.83060  1.0000 0.060279414
N   N2        1.0  0.69180  0.31580  0.66940  1.0000 0.060279414
N   N3        1.0  0.68420  0.30820  0.16940  1.0000 0.060279414
N   N4        1.0  0.30820  0.68420  0.33060  1.0000 0.060279414
N   N5        1.0  0.23490  0.35910  0.22180  1.0000 0.0692294165
N   N6        1.0  0.35910  0.23490  0.27820  1.0000 0.0692294165
N   N7        1.0  0.76510  0.64090  0.77820  1.0000 0.0692294165
N   N8        1.0  0.64090  0.76510  0.72180  1.0000 0.0692294165
N   N9        1.0  0.18920  0.84160  0.83730  1.0000 0.0765127372
N   N10       1.0  0.84160  0.18920  0.66270  1.0000 0.0765127372
N   N11       1.0  0.81080  0.15840  0.16270  1.0000 0.0765127372
N   N12       1.0  0.15840  0.81080  0.33730  1.0000 0.0765127372
N   N13       1.0  0.22940  0.88320  0.87750  1.0000 -0.3018171341
N   N14       1.0  0.88320  0.22940  0.62250  1.0000 -0.3018171341
N   N15       1.0  0.77060  0.11680  0.12250  1.0000 -0.3018171341
N   N16       1.0  0.11680  0.77060  0.37750  1.0000 -0.3018171341
N   N17       1.0  0.37760  0.69000  0.87450  1.0000 -0.3018171341
N   N18       1.0  0.69000  0.37760  0.62550  1.0000 -0.3018171341
N   N19       1.0  0.62240  0.31000  0.12550  1.0000 -0.3018171341
N   N20       1.0  0.31000  0.62240  0.37450  1.0000 -0.3018171341
N   N21       1.0  0.14600  0.42520  0.22650  1.0000 -0.3345818148
N   N22       1.0  0.42520  0.14600  0.27350  1.0000 -0.3345818148
N   N23       1.0  0.85400  0.57480  0.77350  1.0000 -0.3356047497
N   N24       1.0  0.57480  0.85400  0.72650  1.0000 -0.3356047497
O   O1        1.0  0.40500  0.00500  0.92785  1.0000 -0.5794862137
O   O2        1.0  0.00500  0.40500  0.57215  1.0000 -0.5794862137
O   O3        1.0  0.59500  0.99500  0.07215  1.0000 -0.5794862137
O   O4        1.0  0.99500  0.59500  0.42785  1.0000 -0.5794862137
O   O5        1.0  0.42630  0.99830  0.85247  1.0000 -0.5467317924
O   O6        1.0  0.99830  0.42630  0.64753  1.0000 -0.5467317924
O   O7        1.0  0.57370  0.00170  0.14753  1.0000 -0.5467317924
O   O8        1.0  0.00170  0.57370  0.35247  1.0000 -0.5467317924
O   O9        1.0  0.56850  0.79710  0.91890  1.0000 -0.5419199094
O   O10       1.0  0.79710  0.56850  0.58110  1.0000 -0.5419199094
O   O11       1.0  0.43150  0.20290  0.08110  1.0000 -0.5419199094
O   O12       1.0  0.20290  0.43150  0.41890  1.0000 -0.5419199094
O   O13       1.0  0.61710  0.89410  0.97759  1.0000 -0.5602629632
O   O14       1.0  0.89410  0.61710  0.52241  1.0000 -0.5602629632
O   O15       1.0  0.38290  0.10590  0.02241  1.0000 -0.5602629632
O   O16       1.0  0.10590  0.38290  0.47759  1.0000 -0.5602629632
O   O17       1.0  0.36170  0.76410  0.97563  1.0000 -0.5419199094
O   O18       1.0  0.76410  0.36170  0.52437  1.0000 -0.5419199094
O   O19       1.0  0.63830  0.23590  0.02437  1.0000 -0.5419199094
O   O20       1.0  0.23590  0.63830  0.47563  1.0000 -0.5419199094
O   O21       1.0  0.40760  0.87640  0.02865  1.0000 -0.5602629632
O   O22       1.0  0.87640  0.40760  0.47135  1.0000 -0.5602629632
O   O23       1.0  0.59240  0.12360  0.97135  1.0000 -0.5602629632
O   O24       1.0  0.12360  0.59240  0.52865  1.0000 -0.5602629632
