# DDEC6 charges by PACMAN v1.1 (https://github.com/mtap-research/PACMAN-charge/)
data_2014[Mn][pts]3[FSR]1
_chemical_formula_sum              "Mn8 H88 C88 N8 O44"
_cell_length_a       14.46
_cell_length_b       13.063
_cell_length_c       22.054
_cell_angle_alpha    90
_cell_angle_beta     125.16
_cell_angle_gamma    90

_symmetry_space_group_name_H-M    "P 1"
_symmetry_Int_Tables_number       1

loop_
  _symmetry_equiv_pos_as_xyz
  'x, y, z'

loop_
  _atom_site_type_symbol
  _atom_site_label
  _atom_site_symmetry_multiplicity
  _atom_site_fract_x
  _atom_site_fract_y
  _atom_site_fract_z
  _atom_site_occupancy
  _atom_site_charge
Mn  Mn1       1.0  0.77267  0.44228  0.27293  1.0000 0.9537607594
Mn  Mn2       1.0  0.22733  0.94228  0.22707  1.0000 0.9537607594
Mn  Mn3       1.0  0.22733  0.55772  0.72707  1.0000 0.9537607594
Mn  Mn4       1.0  0.77267  0.05772  0.77293  1.0000 0.9537607594
Mn  Mn5       1.0  0.70493  0.27085  0.13121  1.0000 1.0070309801
Mn  Mn6       1.0  0.29507  0.77085  0.36879  1.0000 1.0070309801
Mn  Mn7       1.0  0.29507  0.72915  0.86879  1.0000 1.0070309801
Mn  Mn8       1.0  0.70493  0.22915  0.63121  1.0000 1.0070309801
H   H1        1.0  0.57530  0.30540  0.98570  1.0000 0.3608922823
H   H2        1.0  0.42470  0.80540  0.51430  1.0000 0.3608922823
H   H3        1.0  0.42470  0.69460  0.01430  1.0000 0.3608922823
H   H4        1.0  0.57530  0.19460  0.48570  1.0000 0.3608922823
H   H5        1.0  0.50940  0.24210  0.00010  1.0000 0.3361355527
H   H6        1.0  0.49060  0.74210  0.49990  1.0000 0.3361355527
H   H7        1.0  0.49060  0.75790  0.99990  1.0000 0.3361355527
H   H8        1.0  0.50940  0.25790  0.50010  1.0000 0.3361355527
H   H9        1.0  0.71170  0.55820  0.01970  1.0000 0.1204571571
H   H10       1.0  0.28830  0.05820  0.48030  1.0000 0.1204571571
H   H11       1.0  0.28830  0.44180  0.98030  1.0000 0.1204571571
H   H12       1.0  0.71170  0.94180  0.51970  1.0000 0.1204571571
H   H13       1.0  0.91520  0.79180  0.05230  1.0000 0.1130311077
H   H14       1.0  0.08480  0.29180  0.44770  1.0000 0.1130311077
H   H15       1.0  0.08480  0.20820  0.94770  1.0000 0.1130311077
H   H16       1.0  0.91520  0.70820  0.55230  1.0000 0.1130311077
H   H17       1.0  0.99640  0.60890  0.22200  1.0000 0.1327930433
H   H18       1.0  0.00360  0.10890  0.27800  1.0000 0.1327930433
H   H19       1.0  0.00360  0.39110  0.77800  1.0000 0.1327930433
H   H20       1.0  0.99640  0.89110  0.72200  1.0000 0.1327930433
H   H21       1.0  0.57970  0.63880  0.92480  1.0000 0.1204571571
H   H22       1.0  0.42030  0.13880  0.57520  1.0000 0.1204571571
H   H23       1.0  0.42030  0.36120  0.07520  1.0000 0.1204571571
H   H24       1.0  0.57970  0.86120  0.42480  1.0000 0.1204571571
H   H25       1.0  0.51160  0.79210  0.74590  1.0000 0.1204571571
H   H26       1.0  0.48840  0.29210  0.75410  1.0000 0.1204571571
H   H27       1.0  0.48840  0.20790  0.25410  1.0000 0.1204571571
H   H28       1.0  0.51160  0.70790  0.24590  1.0000 0.1204571571
H   H29       1.0  0.81970  0.80980  0.93740  1.0000 0.1130311077
H   H30       1.0  0.18030  0.30980  0.56260  1.0000 0.1130311077
H   H31       1.0  0.18030  0.19020  0.06260  1.0000 0.1130311077
H   H32       1.0  0.81970  0.69020  0.43740  1.0000 0.1204571571
H   H33       1.0  0.50920  0.09540  0.06590  1.0000 0.1327930433
H   H34       1.0  0.49080  0.59540  0.43410  1.0000 0.1327930433
H   H35       1.0  0.49080  0.90460  0.93410  1.0000 0.1327930433
H   H36       1.0  0.50920  0.40460  0.56590  1.0000 0.1327930433
H   H37       1.0  0.35890  0.97340  0.08880  1.0000 0.1475164836
H   H38       1.0  0.64110  0.47340  0.41120  1.0000 0.1475164836
H   H39       1.0  0.64110  0.02660  0.91120  1.0000 0.1475164836
H   H40       1.0  0.35890  0.52660  0.58880  1.0000 0.1475164836
H   H41       1.0  0.39080  0.97080  0.03190  1.0000 0.1204571571
H   H42       1.0  0.60920  0.47080  0.46810  1.0000 0.1204571571
H   H43       1.0  0.60920  0.02920  0.96810  1.0000 0.1204571571
H   H44       1.0  0.39080  0.52920  0.53190  1.0000 0.1204571571
H   H45       1.0  0.43170  0.88310  0.09060  1.0000 0.1204571571
H   H46       1.0  0.56830  0.38310  0.40940  1.0000 0.1204571571
H   H47       1.0  0.56830  0.11690  0.90940  1.0000 0.1204571571
H   H48       1.0  0.43170  0.61690  0.59060  1.0000 0.1204571571
H   H49       1.0  0.53220  0.00130  0.22560  1.0000 0.1416426648
H   H50       1.0  0.46780  0.50130  0.27440  1.0000 0.1416426648
H   H51       1.0  0.46780  0.99870  0.77440  1.0000 0.1416426648
H   H52       1.0  0.53220  0.49870  0.72560  1.0000 0.1416426648
H   H53       1.0  0.57330  0.90330  0.20660  1.0000 0.1416426648
H   H54       1.0  0.42670  0.40330  0.29340  1.0000 0.1416426648
H   H55       1.0  0.42670  0.09670  0.79340  1.0000 0.1416426648
H   H56       1.0  0.57330  0.59670  0.70660  1.0000 0.1416426648
H   H57       1.0  0.64730  0.00280  0.23380  1.0000 0.1475164836
H   H58       1.0  0.35270  0.50280  0.26620  1.0000 0.1475164836
H   H59       1.0  0.35270  0.99720  0.76620  1.0000 0.1475164836
H   H60       1.0  0.64730  0.49720  0.73380  1.0000 0.1416426648
H   H61       1.0  0.77450  0.25900  0.02150  1.0000 0.0934976148
H   H62       1.0  0.22550  0.75900  0.47850  1.0000 0.0934976148
H   H63       1.0  0.22550  0.74100  0.97850  1.0000 0.0934976148
H   H64       1.0  0.77450  0.24100  0.52150  1.0000 0.0934976148
H   H65       1.0  0.93590  0.20110  0.98530  1.0000 0.1416426648
H   H66       1.0  0.06410  0.70110  0.51470  1.0000 0.1416426648
H   H67       1.0  0.06410  0.79890  0.01470  1.0000 0.1416426648
H   H68       1.0  0.93590  0.29890  0.48530  1.0000 0.1416426648
H   H69       1.0  0.86390  0.10310  0.94420  1.0000 0.1416426648
H   H70       1.0  0.13610  0.60310  0.55580  1.0000 0.1416426648
H   H71       1.0  0.13610  0.89690  0.05580  1.0000 0.1416426648
H   H72       1.0  0.86390  0.39690  0.44420  1.0000 0.1416426648
H   H73       1.0  0.80350  0.20760  0.93450  1.0000 0.1327930433
H   H74       1.0  0.19650  0.70760  0.56550  1.0000 0.1327930433
H   H75       1.0  0.19650  0.79240  0.06550  1.0000 0.1327930433
H   H76       1.0  0.80350  0.29240  0.43450  1.0000 0.1327930433
H   H77       1.0  0.90500  0.99440  0.04610  1.0000 0.1327930433
H   H78       1.0  0.09500  0.49440  0.45390  1.0000 0.1327930433
H   H79       1.0  0.09500  0.00560  0.95390  1.0000 0.1327930433
H   H80       1.0  0.90500  0.50560  0.54610  1.0000 0.1327930433
H   H81       1.0  0.00640  0.06610  0.10150  1.0000 0.1475164836
H   H82       1.0  0.99360  0.56610  0.39850  1.0000 0.1475164836
H   H83       1.0  0.99360  0.93390  0.89850  1.0000 0.1475164836
H   H84       1.0  0.00640  0.43390  0.60150  1.0000 0.1475164836
H   H85       1.0  0.91110  0.04360  0.11320  1.0000 0.1416426648
H   H86       1.0  0.08890  0.54360  0.38680  1.0000 0.1416426648
H   H87       1.0  0.08890  0.95640  0.88680  1.0000 0.1416426648
H   H88       1.0  0.91110  0.45640  0.61320  1.0000 0.1416426648
C   C1        1.0  0.81660  0.48590  0.15570  1.0000 0.5948589309
C   C2        1.0  0.18340  0.98590  0.34430  1.0000 0.5953954919
C   C3        1.0  0.18340  0.51410  0.84430  1.0000 0.5953954919
C   C4        1.0  0.81660  0.01410  0.65570  1.0000 0.5953954919
C   C5        1.0  0.84870  0.57100  0.12520  1.0000 -0.013525994
C   C6        1.0  0.15130  0.07100  0.37480  1.0000 -0.013525994
C   C7        1.0  0.15130  0.42900  0.87480  1.0000 -0.013525994
C   C8        1.0  0.84870  0.92900  0.62520  1.0000 -0.013525994
C   C9        1.0  0.77590  0.59760  0.05100  1.0000 -0.1617990321
C   C10       1.0  0.22410  0.09760  0.44900  1.0000 -0.1617990321
C   C11       1.0  0.22410  0.40240  0.94900  1.0000 -0.1617990321
C   C12       1.0  0.77590  0.90240  0.55100  1.0000 -0.1617990321
C   C13       1.0  0.79730  0.68250  0.02210  1.0000 0.0635731905
C   C14       1.0  0.20270  0.18250  0.47790  1.0000 0.0635731905
C   C15       1.0  0.20270  0.31750  0.97790  1.0000 0.0635731905
C   C16       1.0  0.79730  0.81750  0.52210  1.0000 0.0635731905
C   C17       1.0  0.89830  0.73550  0.07010  1.0000 -0.1617990321
C   C18       1.0  0.10170  0.23550  0.42990  1.0000 -0.1617990321
C   C19       1.0  0.10170  0.26450  0.92990  1.0000 -0.1617990321
C   C20       1.0  0.89830  0.76450  0.57010  1.0000 -0.1617990321
C   C21       1.0  0.97440  0.70630  0.14400  1.0000 -0.013525994
C   C22       1.0  0.02560  0.20630  0.35600  1.0000 -0.013525994
C   C23       1.0  0.02560  0.29370  0.85600  1.0000 -0.013525994
C   C24       1.0  0.97440  0.79370  0.64400  1.0000 -0.013525994
C   C25       1.0  0.08180  0.76660  0.19260  1.0000 0.5835623903
C   C26       1.0  0.91820  0.26660  0.30740  1.0000 0.5835623903
C   C27       1.0  0.91820  0.23340  0.80740  1.0000 0.5835623903
C   C28       1.0  0.08180  0.73340  0.69260  1.0000 0.5835623903
C   C29       1.0  0.94810  0.62610  0.17210  1.0000 -0.1189403818
C   C30       1.0  0.05190  0.12610  0.32790  1.0000 -0.1189403818
C   C31       1.0  0.05190  0.37390  0.82790  1.0000 -0.1189403818
C   C32       1.0  0.94810  0.87390  0.67210  1.0000 -0.1189403818
C   C33       1.0  0.71570  0.71620  0.94460  1.0000 0.0669969111
C   C34       1.0  0.28430  0.21620  0.55540  1.0000 0.0669969111
C   C35       1.0  0.28430  0.28380  0.05540  1.0000 0.0669969111
C   C36       1.0  0.71570  0.78380  0.44460  1.0000 0.0669969111
C   C37       1.0  0.60380  0.68160  0.90280  1.0000 -0.1664281325
C   C38       1.0  0.39620  0.18160  0.59720  1.0000 -0.1664281325
C   C39       1.0  0.39620  0.31840  0.09720  1.0000 -0.1664281325
C   C40       1.0  0.60380  0.81840  0.40280  1.0000 -0.1664281325
C   C41       1.0  0.52780  0.70990  0.82920  1.0000 -0.0307055856
C   C42       1.0  0.47220  0.20990  0.67080  1.0000 -0.0307055856
C   C43       1.0  0.47220  0.29010  0.17080  1.0000 -0.0307055856
C   C44       1.0  0.52780  0.79010  0.32920  1.0000 -0.0307055856
C   C45       1.0  0.41160  0.66750  0.78680  1.0000 0.5652811392
C   C46       1.0  0.58840  0.16750  0.71320  1.0000 0.5652811392
C   C47       1.0  0.58840  0.33250  0.21320  1.0000 0.5648953779
C   C48       1.0  0.41160  0.83250  0.28680  1.0000 0.5648953779
C   C49       1.0  0.56150  0.77520  0.79580  1.0000 -0.1360159689
C   C50       1.0  0.43850  0.27520  0.70420  1.0000 -0.1360159689
C   C51       1.0  0.43850  0.22480  0.20420  1.0000 -0.1360159689
C   C52       1.0  0.56150  0.72480  0.29580  1.0000 -0.1360159689
C   C53       1.0  0.67080  0.81570  0.83770  1.0000 -0.0152920936
C   C54       1.0  0.32920  0.31570  0.66230  1.0000 -0.0152920936
C   C55       1.0  0.32920  0.18430  0.16230  1.0000 -0.0152920936
C   C56       1.0  0.67080  0.68430  0.33770  1.0000 -0.0152920936
C   C57       1.0  0.70490  0.89620  0.80610  1.0000 0.5361675783
C   C58       1.0  0.29510  0.39620  0.69390  1.0000 0.5361675783
C   C59       1.0  0.29510  0.10380  0.19390  1.0000 0.5361675783
C   C60       1.0  0.70490  0.60380  0.30610  1.0000 0.5361675783
C   C61       1.0  0.74620  0.78440  0.91040  1.0000 -0.1617990321
C   C62       1.0  0.25380  0.28440  0.58960  1.0000 -0.1617990321
C   C63       1.0  0.25380  0.21560  0.08960  1.0000 -0.1617990321
C   C64       1.0  0.74620  0.71560  0.41040  1.0000 -0.1617990321
C   C65       1.0  0.55750  0.08320  0.11660  1.0000 0.1204571571
C   C66       1.0  0.44250  0.58320  0.38340  1.0000 0.1204571571
C   C67       1.0  0.44250  0.91680  0.88340  1.0000 0.1204571571
C   C68       1.0  0.55750  0.41680  0.61660  1.0000 0.1204571571
C   C69       1.0  0.41640  0.95500  0.08180  1.0000 -0.3179409863
C   C70       1.0  0.58360  0.45500  0.41820  1.0000 -0.3179409863
C   C71       1.0  0.58360  0.04500  0.91820  1.0000 -0.3179409863
C   C72       1.0  0.41640  0.54500  0.58180  1.0000 -0.3179409863
C   C73       1.0  0.57140  0.97670  0.20520  1.0000 -0.2904737653
C   C74       1.0  0.42860  0.47670  0.29480  1.0000 -0.2904737653
C   C75       1.0  0.42860  0.02330  0.79480  1.0000 -0.2904737653
C   C76       1.0  0.57140  0.52330  0.70520  1.0000 -0.2904737653
C   C77       1.0  0.80560  0.19890  0.04850  1.0000 0.2762491965
C   C78       1.0  0.19440  0.69890  0.45150  1.0000 0.2762491965
C   C79       1.0  0.19440  0.80110  0.95150  1.0000 0.2748192413
C   C80       1.0  0.80560  0.30110  0.54850  1.0000 0.2762491965
C   C81       1.0  0.86720  0.16530  0.96860  1.0000 -0.3336729245
C   C82       1.0  0.13280  0.66530  0.53140  1.0000 -0.3336729245
C   C83       1.0  0.13280  0.83470  0.03140  1.0000 -0.3336729245
C   C84       1.0  0.86720  0.33470  0.46860  1.0000 -0.3336729245
C   C85       1.0  0.92690  0.05410  0.07690  1.0000 -0.3130917014
C   C86       1.0  0.07310  0.55410  0.42310  1.0000 -0.3130917014
C   C87       1.0  0.07310  0.94590  0.92310  1.0000 -0.3130917014
C   C88       1.0  0.92690  0.44590  0.57690  1.0000 -0.3130917014
N   N1        1.0  0.86440  0.14100  0.03190  1.0000 0.008792221
N   N2        1.0  0.13560  0.64100  0.46810  1.0000 0.008792221
N   N3        1.0  0.13560  0.85900  0.96810  1.0000 0.008792221
N   N4        1.0  0.86440  0.35900  0.53190  1.0000 0.008792221
N   N5        1.0  0.51490  0.01010  0.13140  1.0000 0.0226132008
N   N6        1.0  0.48510  0.51010  0.36860  1.0000 0.0226132008
N   N7        1.0  0.48510  0.98990  0.86860  1.0000 0.0226132008
N   N8        1.0  0.51490  0.48990  0.63140  1.0000 0.0226132008
O   O1        1.0  0.76320  0.41090  0.11455  1.0000 -0.5822299556
O   O2        1.0  0.23680  0.91090  0.38545  1.0000 -0.5822299556
O   O3        1.0  0.23680  0.58910  0.88545  1.0000 -0.5822299556
O   O4        1.0  0.76320  0.08910  0.61455  1.0000 -0.5822299556
O   O5        1.0  0.55540  0.29560  0.01650  1.0000 -0.6835418678
O   O6        1.0  0.44460  0.79560  0.48350  1.0000 -0.6835418678
O   O7        1.0  0.44460  0.70440  0.98350  1.0000 -0.685214533
O   O8        1.0  0.55540  0.20440  0.51650  1.0000 -0.6835418678
O   O9        1.0  0.84480  0.49790  0.22070  1.0000 -0.5437531309
O   O10       1.0  0.15520  0.99790  0.27930  1.0000 -0.5437531309
O   O11       1.0  0.15520  0.50210  0.77930  1.0000 -0.5437531309
O   O12       1.0  0.84480  0.00210  0.72070  1.0000 -0.5437531309
O   O13       1.0  0.14670  0.74060  0.25856  1.0000 -0.5634638728
O   O14       1.0  0.85330  0.24060  0.24144  1.0000 -0.5634638728
O   O15       1.0  0.85330  0.25940  0.74144  1.0000 -0.5634638728
O   O16       1.0  0.14670  0.75940  0.75856  1.0000 -0.5634638728
O   O17       1.0  0.09710  0.84000  0.16240  1.0000 -0.550001456
O   O18       1.0  0.90290  0.34000  0.33760  1.0000 -0.550001456
O   O19       1.0  0.90290  0.16000  0.83760  1.0000 -0.550001456
O   O20       1.0  0.09710  0.66000  0.66240  1.0000 -0.550001456
O   O21       1.0  0.79700  0.94310  0.85024  1.0000 -0.5634638728
O   O22       1.0  0.20300  0.44310  0.64976  1.0000 -0.5634638728
O   O23       1.0  0.20300  0.05690  0.14976  1.0000 -0.5634638728
O   O24       1.0  0.79700  0.55690  0.35024  1.0000 -0.5634638728
O   O25       1.0  0.64310  0.91820  0.73892  1.0000 -0.5437531309
O   O26       1.0  0.35690  0.41820  0.76108  1.0000 -0.5437531309
O   O27       1.0  0.35690  0.08180  0.26108  1.0000 -0.5437531309
O   O28       1.0  0.64310  0.58180  0.23892  1.0000 -0.5437531309
O   O29       1.0  0.35590  0.65650  0.71820  1.0000 -0.5278236256
O   O30       1.0  0.64410  0.15650  0.78180  1.0000 -0.5278236256
O   O31       1.0  0.64410  0.34350  0.28180  1.0000 -0.5278236256
O   O32       1.0  0.35590  0.84350  0.21820  1.0000 -0.5278236256
O   O33       1.0  0.37130  0.63790  0.82272  1.0000 -0.591489269
O   O34       1.0  0.62870  0.13790  0.67728  1.0000 -0.591489269
O   O35       1.0  0.62870  0.36210  0.17728  1.0000 -0.591489269
O   O36       1.0  0.37130  0.86210  0.32272  1.0000 -0.591489269
O   O37       1.0  0.78950  0.18130  0.09370  1.0000 -0.4023514898
O   O38       1.0  0.21050  0.68130  0.40630  1.0000 -0.4023514898
O   O39       1.0  0.21050  0.81870  0.90630  1.0000 -0.4023514898
O   O40       1.0  0.78950  0.31870  0.59370  1.0000 -0.4023514898
O   O41       1.0  0.62650  0.13660  0.13900  1.0000 -0.3130917014
O   O42       1.0  0.37350  0.63660  0.36100  1.0000 -0.3130917014
O   O43       1.0  0.37350  0.86340  0.86100  1.0000 -0.3130917014
O   O44       1.0  0.62650  0.36340  0.63900  1.0000 -0.3130917014
