# DDEC6 charges by PACMAN v1.1 (https://github.com/mtap-research/PACMAN-charge/)
data_2014[Mg][dia]3[FSR]1
_chemical_formula_sum              "Mg12 H24 C24 O48"
_cell_length_a       11.416
_cell_length_b       10.013
_cell_length_c       18.5525
_cell_angle_alpha    90
_cell_angle_beta     126.522
_cell_angle_gamma    90

_symmetry_space_group_name_H-M    "P 1"
_symmetry_Int_Tables_number       1

loop_
  _symmetry_equiv_pos_as_xyz
  'x, y, z'

loop_
  _atom_site_type_symbol
  _atom_site_label
  _atom_site_symmetry_multiplicity
  _atom_site_fract_x
  _atom_site_fract_y
  _atom_site_fract_z
  _atom_site_occupancy
  _atom_site_charge
Mg  Mg1       1.0  0.56584  0.87882  0.80472  1.0000 1.2825364709
Mg  Mg2       1.0  0.43416  0.37882  0.69528  1.0000 1.2825364709
Mg  Mg3       1.0  0.43416  0.12118  0.19528  1.0000 1.2825364709
Mg  Mg4       1.0  0.56584  0.62118  0.30472  1.0000 1.2825364709
Mg  Mg5       1.0  0.61983  0.57317  0.86472  1.0000 1.3100335837
Mg  Mg6       1.0  0.38017  0.07317  0.63528  1.0000 1.3100335837
Mg  Mg7       1.0  0.38017  0.42683  0.13528  1.0000 1.3100335837
Mg  Mg8       1.0  0.61983  0.92683  0.36472  1.0000 1.3100335837
Mg  Mg9       1.0  0.00000  0.50000  0.00000  1.0000 1.2992339075
Mg  Mg10      1.0  0.00000  0.00000  0.50000  1.0000 1.2992339075
Mg  Mg11      1.0  0.50000  0.50000  0.00000  1.0000 1.2992339075
Mg  Mg12      1.0  0.50000  0.00000  0.50000  1.0000 1.2992339075
H   H1        1.0  0.96970  0.78300  0.96440  1.0000 0.0800075349
H   H2        1.0  0.03030  0.28300  0.53560  1.0000 0.0873181611
H   H3        1.0  0.03030  0.21700  0.03560  1.0000 0.0873181611
H   H4        1.0  0.96970  0.71700  0.46440  1.0000 0.0873181611
H   H5        1.0  0.77940  0.95190  0.75580  1.0000 0.0800075349
H   H6        1.0  0.22060  0.45190  0.74420  1.0000 0.0800075349
H   H7        1.0  0.22060  0.04810  0.24420  1.0000 0.0800075349
H   H8        1.0  0.77940  0.54810  0.25580  1.0000 0.0800075349
H   H9        1.0  0.47840  0.72570  0.63020  1.0000 0.0873181611
H   H10       1.0  0.52160  0.22570  0.86980  1.0000 0.0873181611
H   H11       1.0  0.52160  0.27430  0.36980  1.0000 0.0873181611
H   H12       1.0  0.47840  0.77430  0.13020  1.0000 0.0873181611
H   H13       1.0  0.50710  0.87280  0.94780  1.0000 0.0800075349
H   H14       1.0  0.49290  0.37280  0.55220  1.0000 0.0800075349
H   H15       1.0  0.49290  0.12720  0.05220  1.0000 0.0800075349
H   H16       1.0  0.50710  0.62720  0.44780  1.0000 0.0800075349
H   H17       1.0  0.76900  0.35380  0.07200  1.0000 0.0800075349
H   H18       1.0  0.23100  0.85380  0.42800  1.0000 0.0800075349
H   H19       1.0  0.23100  0.64620  0.92800  1.0000 0.0800075349
H   H20       1.0  0.76900  0.14620  0.57200  1.0000 0.0800075349
H   H21       1.0  0.24740  0.78120  0.71180  1.0000 0.0800075349
H   H22       1.0  0.75260  0.28120  0.78820  1.0000 0.0800075349
H   H23       1.0  0.75260  0.21880  0.28820  1.0000 0.0800075349
H   H24       1.0  0.24740  0.71880  0.21180  1.0000 0.0800075349
C   C1        1.0  0.87030  0.76590  0.93090  1.0000 0.5295800209
C   C2        1.0  0.12970  0.26590  0.56910  1.0000 0.5295800209
C   C3        1.0  0.12970  0.23410  0.06910  1.0000 0.5295800209
C   C4        1.0  0.87030  0.73410  0.43090  1.0000 0.5295800209
C   C5        1.0  0.68640  0.97320  0.70540  1.0000 0.5202072601
C   C6        1.0  0.31360  0.47320  0.79460  1.0000 0.5202072601
C   C7        1.0  0.31360  0.02680  0.29460  1.0000 0.5202072601
C   C8        1.0  0.68640  0.52680  0.20540  1.0000 0.5202072601
C   C9        1.0  0.49080  0.65870  0.66890  1.0000 0.5295800209
C   C10       1.0  0.50920  0.15870  0.83110  1.0000 0.5295800209
C   C11       1.0  0.50920  0.34130  0.33110  1.0000 0.5295800209
C   C12       1.0  0.49080  0.84130  0.16890  1.0000 0.5295800209
C   C13       1.0  0.51980  0.78260  0.94220  1.0000 0.5202072601
C   C14       1.0  0.48020  0.28260  0.55780  1.0000 0.5202072601
C   C15       1.0  0.48020  0.21740  0.05780  1.0000 0.5202072601
C   C16       1.0  0.51980  0.71740  0.44220  1.0000 0.5202072601
C   C17       1.0  0.77370  0.40790  0.03310  1.0000 0.5295800209
C   C18       1.0  0.22630  0.90790  0.46690  1.0000 0.5295800209
C   C19       1.0  0.22630  0.59210  0.96690  1.0000 0.5295800209
C   C20       1.0  0.77370  0.09210  0.53310  1.0000 0.5295800209
C   C21       1.0  0.23330  0.85130  0.67450  1.0000 0.5202072601
C   C22       1.0  0.76670  0.35130  0.82550  1.0000 0.5202072601
C   C23       1.0  0.76670  0.14870  0.32550  1.0000 0.5202072601
C   C24       1.0  0.23330  0.64870  0.17450  1.0000 0.5202072601
O   O1        1.0  0.34661  0.91280  0.69401  1.0000 -0.6824841261
O   O2        1.0  0.65339  0.41280  0.80599  1.0000 -0.6824841261
O   O3        1.0  0.65339  0.08720  0.30599  1.0000 -0.6824841261
O   O4        1.0  0.34661  0.58720  0.19401  1.0000 -0.6824841261
O   O5        1.0  0.54437  0.75030  0.88507  1.0000 -0.6982220173
O   O6        1.0  0.45563  0.25030  0.61493  1.0000 -0.6982220173
O   O7        1.0  0.45563  0.24970  0.11493  1.0000 -0.6982220173
O   O8        1.0  0.54437  0.74970  0.38507  1.0000 -0.6982220173
O   O9        1.0  0.55586  0.69090  0.75086  1.0000 -0.6734542534
O   O10       1.0  0.44414  0.19090  0.74914  1.0000 -0.6734542534
O   O11       1.0  0.44414  0.30910  0.24914  1.0000 -0.6734542534
O   O12       1.0  0.55586  0.80910  0.25086  1.0000 -0.6734542534
O   O13       1.0  0.58680  0.98430  0.71640  1.0000 -0.6878440142
O   O14       1.0  0.41320  0.48430  0.78360  1.0000 -0.6878440142
O   O15       1.0  0.41320  0.01570  0.28360  1.0000 -0.6878440142
O   O16       1.0  0.58680  0.51570  0.21640  1.0000 -0.6878440142
O   O17       1.0  0.65977  0.47450  0.97547  1.0000 -0.6734542534
O   O18       1.0  0.34023  0.97450  0.52453  1.0000 -0.6734542534
O   O19       1.0  0.34023  0.52550  0.02453  1.0000 -0.6734542534
O   O20       1.0  0.65977  0.02550  0.47547  1.0000 -0.6734542534
O   O21       1.0  0.78785  0.86210  0.89135  1.0000 -0.5713790267
O   O22       1.0  0.21215  0.36210  0.60865  1.0000 -0.5713790267
O   O23       1.0  0.21215  0.13790  0.10865  1.0000 -0.5713790267
O   O24       1.0  0.78785  0.63790  0.39135  1.0000 -0.5713790267
O   O25       1.0  0.44225  0.54650  0.63575  1.0000 -0.5805257469
O   O26       1.0  0.55775  0.04650  0.86425  1.0000 -0.5805257469
O   O27       1.0  0.55775  0.45350  0.36425  1.0000 -0.5805257469
O   O28       1.0  0.44225  0.95350  0.13575  1.0000 -0.5805257469
O   O29       1.0  0.83295  0.64610  0.93035  1.0000 -0.6565069913
O   O30       1.0  0.16705  0.14610  0.56965  1.0000 -0.6565069913
O   O31       1.0  0.16705  0.35390  0.06965  1.0000 -0.6565069913
O   O32       1.0  0.83295  0.85390  0.43035  1.0000 -0.6565069913
O   O33       1.0  0.67125  0.98780  0.63435  1.0000 -0.5713790267
O   O34       1.0  0.32875  0.48780  0.86565  1.0000 -0.5713790267
O   O35       1.0  0.32875  0.01220  0.36565  1.0000 -0.5713790267
O   O36       1.0  0.67125  0.51220  0.13435  1.0000 -0.5713790267
O   O37       1.0  0.51180  0.70360  0.99030  1.0000 -0.5805257469
O   O38       1.0  0.48820  0.20360  0.50970  1.0000 -0.5805257469
O   O39       1.0  0.48820  0.29640  0.00970  1.0000 -0.5805257469
O   O40       1.0  0.51180  0.79640  0.49030  1.0000 -0.5805257469
O   O41       1.0  0.89000  0.40870  0.04200  1.0000 -0.5868503809
O   O42       1.0  0.11000  0.90870  0.45800  1.0000 -0.5868503809
O   O43       1.0  0.11000  0.59130  0.95800  1.0000 -0.5868503809
O   O44       1.0  0.89000  0.09130  0.54200  1.0000 -0.5868503809
O   O45       1.0  0.10650  0.87640  0.61040  1.0000 -0.5713790267
O   O46       1.0  0.89350  0.37640  0.88960  1.0000 -0.5713790267
O   O47       1.0  0.89350  0.12360  0.38960  1.0000 -0.5713790267
O   O48       1.0  0.10650  0.62360  0.11040  1.0000 -0.5713790267
