# DDEC6 charges by PACMAN v1.1 (https://github.com/mtap-research/PACMAN-charge/)
data_2014[Co][dia]3[FSR]1
_chemical_formula_sum              "Co2 H40 C56 N4 O8"
_cell_length_a       14.1584
_cell_length_b       14.1584
_cell_length_c       8.5046
_cell_angle_alpha    85.719
_cell_angle_beta     94.281
_cell_angle_gamma    56.1995

_symmetry_space_group_name_H-M    "P 1"
_symmetry_Int_Tables_number       1

loop_
  _symmetry_equiv_pos_as_xyz
  'x, y, z'

loop_
  _atom_site_type_symbol
  _atom_site_label
  _atom_site_symmetry_multiplicity
  _atom_site_fract_x
  _atom_site_fract_y
  _atom_site_fract_z
  _atom_site_occupancy
  _atom_site_charge
Co  Co1       1.0  0.70286  0.48998  0.70098  1.0000 0.7572007591
Co  Co2       1.0  0.51002  0.29714  0.20098  1.0000 0.7572007591
H   H1        1.0  0.67530  0.82770  0.43730  1.0000 0.1185992977
H   H2        1.0  0.17230  0.32470  0.93730  1.0000 0.1185992977
H   H3        1.0  0.63930  0.94610  0.19750  1.0000 0.1185992977
H   H4        1.0  0.05390  0.36070  0.69750  1.0000 0.1185992977
H   H5        1.0  0.58480  0.74960  0.94680  1.0000 0.1111223856
H   H6        1.0  0.25040  0.41520  0.44680  1.0000 0.1111223856
H   H7        1.0  0.61700  0.63360  0.18040  1.0000 0.1111223856
H   H8        1.0  0.36640  0.38300  0.68040  1.0000 0.1111223856
H   H9        1.0  0.56650  0.90630  0.79990  1.0000 0.1185992977
H   H10       1.0  0.09370  0.43350  0.29990  1.0000 0.1185992977
H   H11       1.0  0.59500  0.04720  0.96270  1.0000 0.1495438009
H   H12       1.0  0.95280  0.40500  0.46270  1.0000 0.1495438009
H   H13       1.0  0.61610  0.17850  0.79540  1.0000 0.1495438009
H   H14       1.0  0.82150  0.38390  0.29540  1.0000 0.1495438009
H   H15       1.0  0.58780  0.28000  0.55190  1.0000 0.1111223856
H   H16       1.0  0.72000  0.41220  0.05190  1.0000 0.1111223856
H   H17       1.0  0.46600  0.12840  0.33490  1.0000 0.1111223856
H   H18       1.0  0.87160  0.53400  0.83490  1.0000 0.1111223856
H   H19       1.0  0.49190  0.02030  0.57780  1.0000 0.1305267701
H   H20       1.0  0.97970  0.50810  0.07780  1.0000 0.1305267701
H   H21       1.0  0.79360  0.13280  0.61000  1.0000 0.1111223856
H   H22       1.0  0.86720  0.20640  0.11000  1.0000 0.1111223856
H   H23       1.0  0.90480  0.95720  0.51110  1.0000 0.1185992977
H   H24       1.0  0.04280  0.09520  0.01110  1.0000 0.1185992977
H   H25       1.0  0.15740  0.00400  0.48150  1.0000 0.1111223856
H   H26       1.0  0.99600  0.84260  0.98150  1.0000 0.1111223856
H   H27       1.0  0.04440  0.18060  0.57250  1.0000 0.1185992977
H   H28       1.0  0.81940  0.95560  0.07250  1.0000 0.1185992977
H   H29       1.0  0.07080  0.81500  0.40440  1.0000 0.1111223856
H   H30       1.0  0.18500  0.92920  0.90440  1.0000 0.1185992977
H   H31       1.0  0.25610  0.83110  0.42900  1.0000 0.1185992977
H   H32       1.0  0.16890  0.74390  0.92900  1.0000 0.1185992977
H   H33       1.0  0.15200  0.67340  0.25900  1.0000 0.1305267701
H   H34       1.0  0.32660  0.84800  0.75900  1.0000 0.1305267701
H   H35       1.0  0.26140  0.49520  0.18590  1.0000 0.1008430907
H   H36       1.0  0.50480  0.73860  0.68590  1.0000 0.1008430907
H   H37       1.0  0.54470  0.47450  0.32800  1.0000 0.1185992977
H   H38       1.0  0.52550  0.45530  0.82800  1.0000 0.1185992977
H   H39       1.0  0.44040  0.65260  0.40840  1.0000 0.1365096235
H   H40       1.0  0.34740  0.55960  0.90840  1.0000 0.1365096235
C   C1        1.0  0.67420  0.63620  0.47540  1.0000 0.5283950383
C   C2        1.0  0.36380  0.32580  0.97540  1.0000 0.5283950383
C   C3        1.0  0.65110  0.71670  0.33040  1.0000 -0.0305377178
C   C4        1.0  0.28330  0.34890  0.83040  1.0000 -0.0305377178
C   C5        1.0  0.65720  0.81120  0.33890  1.0000 -0.1019664418
C   C6        1.0  0.18880  0.34280  0.83890  1.0000 -0.1019664418
C   C7        1.0  0.63530  0.88230  0.19420  1.0000 -0.1588261267
C   C8        1.0  0.11770  0.36470  0.69420  1.0000 -0.1588261267
C   C9        1.0  0.60840  0.85900  0.05000  1.0000 0.1185992977
C   C10       1.0  0.14100  0.39160  0.55000  1.0000 0.1185992977
C   C11       1.0  0.60260  0.76640  0.04510  1.0000 -0.1588261267
C   C12       1.0  0.23360  0.39740  0.54510  1.0000 -0.1588261267
C   C13       1.0  0.62290  0.69630  0.18550  1.0000 -0.1019664418
C   C14       1.0  0.30370  0.37710  0.68550  1.0000 -0.1019664418
C   C15       1.0  0.58280  0.93080  0.89140  1.0000 -0.1148081606
C   C16       1.0  0.06920  0.41720  0.39140  1.0000 -0.1148081606
C   C17       1.0  0.58150  0.02010  0.87180  1.0000 -0.1236838361
C   C18       1.0  0.97990  0.41850  0.37180  1.0000 -0.1236838361
C   C19       1.0  0.55970  0.08590  0.71340  1.0000 0.1495438009
C   C20       1.0  0.91410  0.44030  0.21340  1.0000 0.1495438009
C   C21       1.0  0.58610  0.16550  0.70360  1.0000 -0.1841543799
C   C22       1.0  0.83450  0.41390  0.20360  1.0000 -0.1841543799
C   C23       1.0  0.56790  0.22670  0.55620  1.0000 0.0781207813
C   C24       1.0  0.77330  0.43210  0.05620  1.0000 0.0781207813
C   C25       1.0  0.49690  0.13870  0.42870  1.0000 0.1008430907
C   C26       1.0  0.86130  0.50310  0.92870  1.0000 0.1008430907
C   C27       1.0  0.51290  0.07270  0.57510  1.0000 -0.2069673872
C   C28       1.0  0.92730  0.48710  0.07510  1.0000 -0.2069673872
C   C29       1.0  0.83670  0.28950  0.64760  1.0000 0.5428014809
C   C30       1.0  0.71050  0.16330  0.14760  1.0000 0.5428014809
C   C31       1.0  0.90860  0.17480  0.59690  1.0000 -0.0305377178
C   C32       1.0  0.82520  0.09140  0.09690  1.0000 -0.0305377178
C   C33       1.0  0.86620  0.10800  0.58260  1.0000 -0.0905436909
C   C34       1.0  0.89200  0.13380  0.08260  1.0000 -0.0905436909
C   C35       1.0  0.93460  0.00140  0.52560  1.0000 -0.1588261267
C   C36       1.0  0.99860  0.06540  0.02560  1.0000 -0.1588261267
C   C37       1.0  0.04340  0.96040  0.49080  1.0000 0.1111223856
C   C38       1.0  0.03960  0.95660  0.99080  1.0000 0.1111223856
C   C39       1.0  0.08410  0.02870  0.50680  1.0000 -0.1588261267
C   C40       1.0  0.97130  0.91590  0.00680  1.0000 -0.1588261267
C   C41       1.0  0.01560  0.13520  0.56090  1.0000 -0.1019664418
C   C42       1.0  0.86480  0.98440  0.06090  1.0000 -0.1019664418
C   C43       1.0  0.10920  0.84980  0.42970  1.0000 -0.1236838361
C   C44       1.0  0.15020  0.89080  0.92970  1.0000 -0.1236838361
C   C45       1.0  0.21800  0.79540  0.40710  1.0000 -0.1588261267
C   C46       1.0  0.20460  0.78200  0.90710  1.0000 -0.1588261267
C   C47       1.0  0.28390  0.68310  0.35050  1.0000 0.1625608617
C   C48       1.0  0.31690  0.71610  0.85050  1.0000 0.1625608617
C   C49       1.0  0.23240  0.63300  0.27730  1.0000 -0.1992555892
C   C50       1.0  0.36700  0.76760  0.77730  1.0000 -0.1992555892
C   C51       1.0  0.29810  0.52690  0.23300  1.0000 0.0581545198
C   C52       1.0  0.47310  0.70190  0.73300  1.0000 0.0581545198
C   C53       1.0  0.46430  0.51450  0.31680  1.0000 0.0781207813
C   C54       1.0  0.48550  0.53570  0.81680  1.0000 0.0781207813
C   C55       1.0  0.40210  0.62150  0.36520  1.0000 -0.1898382193
C   C56       1.0  0.37850  0.59790  0.86520  1.0000 -0.1898382193
N   N1        1.0  0.52450  0.21530  0.42100  1.0000 -0.2519811278
N   N2        1.0  0.78470  0.47550  0.92100  1.0000 -0.2519811278
N   N3        1.0  0.41500  0.46440  0.25420  1.0000 -0.2766692972
N   N4        1.0  0.53560  0.58500  0.75420  1.0000 -0.2766692972
O   O1        1.0  0.73419  0.33079  0.67810  1.0000 -0.5424244588
O   O2        1.0  0.66921  0.26581  0.17810  1.0000 -0.5424244588
O   O3        1.0  0.87399  0.35239  0.65360  1.0000 -0.5487315541
O   O4        1.0  0.64761  0.12601  0.15360  1.0000 -0.5487315541
O   O5        1.0  0.65810  0.55830  0.46300  1.0000 -0.5321684068
O   O6        1.0  0.44170  0.34190  0.96300  1.0000 -0.5321684068
O   O7        1.0  0.70280  0.65200  0.60870  1.0000 -0.5487315541
O   O8        1.0  0.34800  0.29720  0.10870  1.0000 -0.5487315541
