# DDEC6 charges by PACMAN v1.1 (https://github.com/mtap-research/PACMAN-charge/)
data_2014[Zn][nan]3[FSR]20
_chemical_formula_sum              "Zn16 H184 C152 N32 O68"
_cell_length_a       20.1623
_cell_length_b       20.1623
_cell_length_c       28.9138
_cell_angle_alpha    68.5227
_cell_angle_beta     111.477
_cell_angle_gamma    151.387

_symmetry_space_group_name_H-M    "P 1"
_symmetry_Int_Tables_number       1

loop_
  _symmetry_equiv_pos_as_xyz
  'x, y, z'

loop_
  _atom_site_type_symbol
  _atom_site_label
  _atom_site_symmetry_multiplicity
  _atom_site_fract_x
  _atom_site_fract_y
  _atom_site_fract_z
  _atom_site_occupancy
  _atom_site_charge
Zn  Zn1       1.0  0.00000  0.00000  0.00000  1.0000 0.9219982538
Zn  Zn2       1.0  0.00000  0.00000  0.50000  1.0000 0.9219982538
Zn  Zn3       1.0  0.12521  0.01455  0.13035  1.0000 0.9066209558
Zn  Zn4       1.0  0.01455  0.12521  0.36965  1.0000 0.9066209558
Zn  Zn5       1.0  0.87479  0.98545  0.86965  1.0000 0.9066209558
Zn  Zn6       1.0  0.98545  0.87479  0.63035  1.0000 0.9066209558
Zn  Zn7       1.0  0.07367  0.83503  0.25416  1.0000 0.7784471426
Zn  Zn8       1.0  0.83503  0.07367  0.24584  1.0000 0.7784471426
Zn  Zn9       1.0  0.92633  0.16497  0.74584  1.0000 0.7784471426
Zn  Zn10      1.0  0.16497  0.92633  0.75416  1.0000 0.7784471426
Zn  Zn11      1.0  0.01923  0.65693  0.37755  1.0000 0.8999002043
Zn  Zn12      1.0  0.65693  0.01923  0.12245  1.0000 0.8999002043
Zn  Zn13      1.0  0.98077  0.34307  0.62245  1.0000 0.8999002043
Zn  Zn14      1.0  0.34307  0.98077  0.87755  1.0000 0.8999002043
Zn  Zn15      1.0  0.50000  0.00000  0.00000  1.0000 0.7881247911
Zn  Zn16      1.0  0.00000  0.50000  0.50000  1.0000 0.7881247911
H   H1        1.0  0.13850  0.23690  0.94430  1.0000 0.3434204969
H   H2        1.0  0.23690  0.13850  0.55570  1.0000 0.3434204969
H   H3        1.0  0.86150  0.76310  0.05570  1.0000 0.3434204969
H   H4        1.0  0.76310  0.86150  0.44430  1.0000 0.3434204969
H   H5        1.0  0.16380  0.01500  0.01720  1.0000 0.2807168316
H   H6        1.0  0.01500  0.16380  0.48280  1.0000 0.2807168316
H   H7        1.0  0.83620  0.98500  0.98280  1.0000 0.2807168316
H   H8        1.0  0.98500  0.83620  0.51720  1.0000 0.2807168316
H   H9        1.0  0.37740  0.85700  0.06940  1.0000 0.3006407998
H   H10       1.0  0.85700  0.37740  0.43060  1.0000 0.3006407998
H   H11       1.0  0.62260  0.14300  0.93060  1.0000 0.3006407998
H   H12       1.0  0.14300  0.62260  0.56940  1.0000 0.3006407998
H   H13       1.0  0.29600  0.81540  0.01950  1.0000 0.2807168316
H   H14       1.0  0.81540  0.29600  0.48050  1.0000 0.2807168316
H   H15       1.0  0.70400  0.18460  0.98050  1.0000 0.2807168316
H   H16       1.0  0.18460  0.70400  0.51950  1.0000 0.2807168316
H   H17       1.0  0.78370  0.91450  0.09110  1.0000 0.1510823484
H   H18       1.0  0.91450  0.78370  0.40890  1.0000 0.1510823484
H   H19       1.0  0.21630  0.08550  0.90890  1.0000 0.1510823484
H   H20       1.0  0.08550  0.21630  0.59110  1.0000 0.1510823484
H   H21       1.0  0.88690  0.98550  0.13970  1.0000 0.1603181537
H   H22       1.0  0.98550  0.88690  0.36030  1.0000 0.1603181537
H   H23       1.0  0.11310  0.01450  0.86030  1.0000 0.1603181537
H   H24       1.0  0.01450  0.11310  0.63970  1.0000 0.1603181537
H   H25       1.0  0.92320  0.07700  0.09020  1.0000 0.1603181537
H   H26       1.0  0.07700  0.92320  0.40980  1.0000 0.1603181537
H   H27       1.0  0.07680  0.92300  0.90980  1.0000 0.1603181537
H   H28       1.0  0.92300  0.07680  0.59020  1.0000 0.1603181537
H   H29       1.0  0.29800  0.12440  0.25460  1.0000 0.2689887516
H   H30       1.0  0.12440  0.29800  0.24540  1.0000 0.2689887516
H   H31       1.0  0.70200  0.87560  0.74540  1.0000 0.2689887516
H   H32       1.0  0.87560  0.70200  0.75460  1.0000 0.2689887516
H   H33       1.0  0.33350  0.30970  0.99710  1.0000 0.0918171729
H   H34       1.0  0.30970  0.33350  0.50290  1.0000 0.0918171729
H   H35       1.0  0.66650  0.69030  0.00290  1.0000 0.0918171729
H   H36       1.0  0.69030  0.66650  0.49710  1.0000 0.0918171729
H   H37       1.0  0.29000  0.28060  0.94140  1.0000 0.0918171729
H   H38       1.0  0.28060  0.29000  0.55860  1.0000 0.0918171729
H   H39       1.0  0.71000  0.71940  0.05860  1.0000 0.0918171729
H   H40       1.0  0.71940  0.71000  0.44140  1.0000 0.0918171729
H   H41       1.0  0.95860  0.82380  0.25020  1.0000 0.2868148151
H   H42       1.0  0.82380  0.95860  0.24980  1.0000 0.2868148151
H   H43       1.0  0.04140  0.17620  0.74980  1.0000 0.2868148151
H   H44       1.0  0.17620  0.04140  0.75020  1.0000 0.2868148151
H   H45       1.0  0.92840  0.74600  0.30000  1.0000 0.3006407998
H   H46       1.0  0.74600  0.92840  0.20000  1.0000 0.3006407998
H   H47       1.0  0.07160  0.25400  0.70000  1.0000 0.3006407998
H   H48       1.0  0.25400  0.07160  0.80000  1.0000 0.3006407998
H   H49       1.0  0.40630  0.49130  0.97110  1.0000 0.1407057527
H   H50       1.0  0.49130  0.40630  0.52890  1.0000 0.1407057527
H   H51       1.0  0.59370  0.50870  0.02890  1.0000 0.1407057527
H   H52       1.0  0.50870  0.59370  0.47110  1.0000 0.1407057527
H   H53       1.0  0.48460  0.51860  0.94420  1.0000 0.1407057527
H   H54       1.0  0.51860  0.48460  0.55580  1.0000 0.1407057527
H   H55       1.0  0.51540  0.48140  0.05580  1.0000 0.1407057527
H   H56       1.0  0.48140  0.51540  0.44420  1.0000 0.1407057527
H   H57       1.0  0.35840  0.46040  0.91540  1.0000 0.1298063967
H   H58       1.0  0.46040  0.35840  0.58460  1.0000 0.1298063967
H   H59       1.0  0.64160  0.53960  0.08460  1.0000 0.1298063967
H   H60       1.0  0.53960  0.64160  0.41540  1.0000 0.1298063967
H   H61       1.0  0.85940  0.54780  0.25120  1.0000 0.2689887516
H   H62       1.0  0.54780  0.85940  0.24880  1.0000 0.2689887516
H   H63       1.0  0.14060  0.45220  0.74880  1.0000 0.2689887516
H   H64       1.0  0.45220  0.14060  0.75120  1.0000 0.2689887516
H   H65       1.0  0.21670  0.92150  0.20650  1.0000 0.3006407998
H   H66       1.0  0.92150  0.21670  0.29350  1.0000 0.3006407998
H   H67       1.0  0.78330  0.07850  0.79350  1.0000 0.3006407998
H   H68       1.0  0.07850  0.78330  0.70650  1.0000 0.3006407998
H   H69       1.0  0.18750  0.84870  0.25770  1.0000 0.2689887516
H   H70       1.0  0.84870  0.18750  0.24230  1.0000 0.2689887516
H   H71       1.0  0.81250  0.15130  0.74230  1.0000 0.2689887516
H   H72       1.0  0.15130  0.81250  0.75770  1.0000 0.2689887516
H   H73       1.0  0.81700  0.46200  0.48050  1.0000 0.2689887516
H   H74       1.0  0.46200  0.81700  0.01950  1.0000 0.2689887516
H   H75       1.0  0.18300  0.53800  0.51950  1.0000 0.2689887516
H   H76       1.0  0.53800  0.18300  0.98050  1.0000 0.2689887516
H   H77       1.0  0.13520  0.89520  0.00520  1.0000 0.1213386932
H   H78       1.0  0.89520  0.13520  0.49480  1.0000 0.1213386932
H   H79       1.0  0.86480  0.10480  0.99480  1.0000 0.1213386932
H   H80       1.0  0.10480  0.86480  0.50520  1.0000 0.1213386932
H   H81       1.0  0.29920  0.26780  0.40550  1.0000 0.3093994174
H   H82       1.0  0.26780  0.29920  0.09450  1.0000 0.3093994174
H   H83       1.0  0.70080  0.73220  0.59450  1.0000 0.3093994174
H   H84       1.0  0.73220  0.70080  0.90550  1.0000 0.3093994174
H   H85       1.0  0.28640  0.20360  0.45660  1.0000 0.3006407998
H   H86       1.0  0.20360  0.28640  0.04340  1.0000 0.3006407998
H   H87       1.0  0.71360  0.79640  0.54340  1.0000 0.3006407998
H   H88       1.0  0.79640  0.71360  0.95660  1.0000 0.3006407998
H   H89       1.0  0.39680  0.93860  0.12460  1.0000 0.1407057527
H   H90       1.0  0.93860  0.39680  0.37540  1.0000 0.1407057527
H   H91       1.0  0.60320  0.06140  0.87540  1.0000 0.1407057527
H   H92       1.0  0.06140  0.60320  0.62460  1.0000 0.1407057527
H   H93       1.0  0.35020  0.99960  0.13940  1.0000 0.1298063967
H   H94       1.0  0.99960  0.35020  0.36060  1.0000 0.1298063967
H   H95       1.0  0.64980  0.00040  0.86060  1.0000 0.1298063967
H   H96       1.0  0.00040  0.64980  0.63940  1.0000 0.1298063967
H   H97       1.0  0.48360  0.29080  0.28360  1.0000 0.1128297436
H   H98       1.0  0.29080  0.48360  0.21640  1.0000 0.1128297436
H   H99       1.0  0.51640  0.70920  0.71640  1.0000 0.1128297436
H   H100      1.0  0.70920  0.51640  0.78360  1.0000 0.1128297436
H   H101      1.0  0.70770  0.49810  0.31360  1.0000 0.1213386932
H   H102      1.0  0.49810  0.70770  0.18640  1.0000 0.1213386932
H   H103      1.0  0.29230  0.50190  0.68640  1.0000 0.1213386932
H   H104      1.0  0.50190  0.29230  0.81360  1.0000 0.1213386932
H   H105      1.0  0.77230  0.69870  0.18050  1.0000 0.1510823484
H   H106      1.0  0.69870  0.77230  0.31950  1.0000 0.1510823484
H   H107      1.0  0.22770  0.30130  0.81950  1.0000 0.1510823484
H   H108      1.0  0.30130  0.22770  0.68050  1.0000 0.1510823484
H   H109      1.0  0.54660  0.48660  0.14960  1.0000 0.1213386932
H   H110      1.0  0.48660  0.54660  0.35040  1.0000 0.1213386932
H   H111      1.0  0.45340  0.51340  0.85040  1.0000 0.1213386932
H   H112      1.0  0.51340  0.45340  0.64960  1.0000 0.1213386932
H   H113      1.0  0.86230  0.56690  0.14360  1.0000 0.1603181537
H   H114      1.0  0.56690  0.86230  0.35640  1.0000 0.1603181537
H   H115      1.0  0.13770  0.43310  0.85640  1.0000 0.1603181537
H   H116      1.0  0.43310  0.13770  0.64360  1.0000 0.1603181537
H   H117      1.0  0.75310  0.53390  0.11610  1.0000 0.1603181537
H   H118      1.0  0.53390  0.75310  0.38390  1.0000 0.1603181537
H   H119      1.0  0.24690  0.46610  0.88390  1.0000 0.1603181537
H   H120      1.0  0.46610  0.24690  0.61610  1.0000 0.1603181537
H   H121      1.0  0.89050  0.65010  0.09230  1.0000 0.1603181537
H   H122      1.0  0.65010  0.89050  0.40770  1.0000 0.1603181537
H   H123      1.0  0.10950  0.34990  0.90770  1.0000 0.1603181537
H   H124      1.0  0.34990  0.10950  0.59230  1.0000 0.1603181537
H   H125      1.0  0.43650  0.14750  0.38320  1.0000 0.1603181537
H   H126      1.0  0.14750  0.43650  0.11680  1.0000 0.1603181537
H   H127      1.0  0.56350  0.85250  0.61680  1.0000 0.1603181537
H   H128      1.0  0.85250  0.56350  0.88320  1.0000 0.1603181537
H   H129      1.0  0.34890  0.14270  0.36370  1.0000 0.1603181537
H   H130      1.0  0.14270  0.34890  0.13630  1.0000 0.1603181537
H   H131      1.0  0.65110  0.85730  0.63630  1.0000 0.1603181537
H   H132      1.0  0.85730  0.65110  0.86370  1.0000 0.1603181537
H   H133      1.0  0.32750  0.06570  0.41590  1.0000 0.1603181537
H   H134      1.0  0.06570  0.32750  0.08410  1.0000 0.1603181537
H   H135      1.0  0.67250  0.93430  0.58410  1.0000 0.1603181537
H   H136      1.0  0.93430  0.67250  0.91590  1.0000 0.1603181537
H   H137      1.0  0.67650  0.37530  0.21960  1.0000 0.1213386932
H   H138      1.0  0.37530  0.67650  0.28040  1.0000 0.1213386932
H   H139      1.0  0.32350  0.62470  0.78040  1.0000 0.1213386932
H   H140      1.0  0.62470  0.32350  0.71960  1.0000 0.1213386932
H   H141      1.0  0.45030  0.16810  0.18960  1.0000 0.1407057527
H   H142      1.0  0.16810  0.45030  0.31040  1.0000 0.1407057527
H   H143      1.0  0.54970  0.83190  0.81040  1.0000 0.1407057527
H   H144      1.0  0.83190  0.54970  0.68960  1.0000 0.1407057527
H   H145      1.0  0.37160  0.97320  0.32650  1.0000 0.1510823484
H   H146      1.0  0.97320  0.37160  0.17350  1.0000 0.1510823484
H   H147      1.0  0.62840  0.02680  0.67350  1.0000 0.1510823484
H   H148      1.0  0.02680  0.62840  0.82650  1.0000 0.1510823484
H   H149      1.0  0.59690  0.18210  0.35610  1.0000 0.1298063967
H   H150      1.0  0.18210  0.59690  0.14390  1.0000 0.1298063967
H   H151      1.0  0.40310  0.81790  0.64390  1.0000 0.1298063967
H   H152      1.0  0.81790  0.40310  0.85610  1.0000 0.1298063967
H   H153      1.0  0.69960  0.55740  0.36060  1.0000 0.1213386932
H   H154      1.0  0.55740  0.69960  0.13940  1.0000 0.1213386932
H   H155      1.0  0.30040  0.44260  0.63940  1.0000 0.1213386932
H   H156      1.0  0.44260  0.30040  0.86060  1.0000 0.1213386932
H   H157      1.0  0.49320  0.43100  0.36120  1.0000 0.1298063967
H   H158      1.0  0.43100  0.49320  0.13880  1.0000 0.1298063967
H   H159      1.0  0.50680  0.56900  0.63880  1.0000 0.1298063967
H   H160      1.0  0.56900  0.50680  0.86120  1.0000 0.1298063967
H   H161      1.0  0.45190  0.24890  0.49730  1.0000 0.1298063967
H   H162      1.0  0.24890  0.45190  0.00270  1.0000 0.1298063967
H   H163      1.0  0.54810  0.75110  0.50270  1.0000 0.1298063967
H   H164      1.0  0.75110  0.54810  0.99730  1.0000 0.1298063967
H   H165      1.0  0.65290  0.36730  0.49240  1.0000 0.1213386932
H   H166      1.0  0.36730  0.65290  0.00760  1.0000 0.1213386932
H   H167      1.0  0.34710  0.63270  0.50760  1.0000 0.1213386932
H   H168      1.0  0.63270  0.34710  0.99240  1.0000 0.1213386932
H   H169      1.0  0.39840  0.80580  0.43390  1.0000 0.1510823484
H   H170      1.0  0.80580  0.39840  0.06610  1.0000 0.1510823484
H   H171      1.0  0.60160  0.19420  0.56610  1.0000 0.1510823484
H   H172      1.0  0.19420  0.60160  0.93390  1.0000 0.1510823484
H   H173      1.0  0.28930  0.66530  0.41540  1.0000 0.1510823484
H   H174      1.0  0.66530  0.28930  0.08460  1.0000 0.1510823484
H   H175      1.0  0.71070  0.33470  0.58460  1.0000 0.1510823484
H   H176      1.0  0.33470  0.71070  0.91540  1.0000 0.1510823484
H   H177      1.0  0.34270  0.78270  0.37720  1.0000 0.1603181537
H   H178      1.0  0.78270  0.34270  0.12280  1.0000 0.1603181537
H   H179      1.0  0.65730  0.21730  0.62280  1.0000 0.1603181537
H   H180      1.0  0.21730  0.65730  0.87720  1.0000 0.1603181537
H   H181      1.0  0.18160  0.83420  0.99000  1.0000 0.1407057527
H   H182      1.0  0.83420  0.18160  0.51000  1.0000 0.1407057527
H   H183      1.0  0.81840  0.16580  0.01000  1.0000 0.1407057527
H   H184      1.0  0.16580  0.81840  0.49000  1.0000 0.1407057527
C   C1        1.0  0.95230  0.00250  0.09000  1.0000 0.7036253426
C   C2        1.0  0.00250  0.95230  0.41000  1.0000 0.7036253426
C   C3        1.0  0.04770  0.99750  0.91000  1.0000 0.7036253426
C   C4        1.0  0.99750  0.04770  0.59000  1.0000 0.7036253426
C   C5        1.0  0.87990  0.99410  0.10400  1.0000 -0.6132777799
C   C6        1.0  0.99410  0.87990  0.39600  1.0000 -0.6132777799
C   C7        1.0  0.12010  0.00590  0.89600  1.0000 -0.6132777799
C   C8        1.0  0.00590  0.12010  0.60400  1.0000 -0.6132777799
C   C9        1.0  0.29630  0.31090  0.96460  1.0000 0.0575830962
C   C10       1.0  0.31090  0.29630  0.53540  1.0000 0.0575830962
C   C11       1.0  0.70370  0.68910  0.03540  1.0000 0.0575830962
C   C12       1.0  0.68910  0.70370  0.46460  1.0000 0.0575830962
C   C13       1.0  0.39560  0.45900  0.94720  1.0000 -0.4497073844
C   C14       1.0  0.45900  0.39560  0.55280  1.0000 -0.4497073844
C   C15       1.0  0.60440  0.54100  0.05280  1.0000 -0.4497073844
C   C16       1.0  0.54100  0.60440  0.44720  1.0000 -0.4497073844
C   C17       1.0  0.21470  0.00110  0.08430  1.0000 0.3809847894
C   C18       1.0  0.00110  0.21470  0.41570  1.0000 0.3809847894
C   C19       1.0  0.78530  0.99890  0.91570  1.0000 0.3809847894
C   C20       1.0  0.99890  0.78530  0.58430  1.0000 0.3809847894
C   C21       1.0  0.24340  0.96100  0.07320  1.0000 -0.0449303177
C   C22       1.0  0.96100  0.24340  0.42680  1.0000 -0.0449303177
C   C23       1.0  0.75660  0.03900  0.92680  1.0000 -0.048587319
C   C24       1.0  0.03900  0.75660  0.57320  1.0000 -0.0449303177
C   C25       1.0  0.18990  0.90630  0.02910  1.0000 -0.1451694307
C   C26       1.0  0.90630  0.18990  0.47090  1.0000 -0.1396195555
C   C27       1.0  0.81010  0.09370  0.97090  1.0000 -0.1396195555
C   C28       1.0  0.09370  0.81010  0.52910  1.0000 -0.1396195555
C   C29       1.0  0.29510  0.88070  0.05610  1.0000 0.2689887516
C   C30       1.0  0.88070  0.29510  0.44390  1.0000 0.2689887516
C   C31       1.0  0.70490  0.11930  0.94390  1.0000 0.2689887516
C   C32       1.0  0.11930  0.70490  0.55610  1.0000 0.2689887516
C   C33       1.0  0.34470  0.93030  0.10030  1.0000 -0.1982303994
C   C34       1.0  0.93030  0.34470  0.39970  1.0000 -0.1982303994
C   C35       1.0  0.65530  0.06970  0.89970  1.0000 -0.1982303994
C   C36       1.0  0.06970  0.65530  0.60030  1.0000 -0.1982303994
C   C37       1.0  0.31770  0.96830  0.10890  1.0000 -0.1061922895
C   C38       1.0  0.96830  0.31770  0.39110  1.0000 -0.1061922895
C   C39       1.0  0.68230  0.03170  0.89110  1.0000 -0.1061922895
C   C40       1.0  0.03170  0.68230  0.60890  1.0000 -0.1061922895
C   C41       1.0  0.35190  0.23090  0.19230  1.0000 0.3809847894
C   C42       1.0  0.23090  0.35190  0.30770  1.0000 0.3809847894
C   C43       1.0  0.64810  0.76910  0.80770  1.0000 0.3809847894
C   C44       1.0  0.76910  0.64810  0.69230  1.0000 0.3809847894
C   C45       1.0  0.49180  0.36560  0.21370  1.0000 -0.0348817271
C   C46       1.0  0.36560  0.49180  0.28630  1.0000 -0.0348817271
C   C47       1.0  0.50820  0.63440  0.78630  1.0000 -0.0348817271
C   C48       1.0  0.63440  0.50820  0.71370  1.0000 -0.0348817271
C   C49       1.0  0.54180  0.37280  0.26220  1.0000 -0.1280210303
C   C50       1.0  0.37280  0.54180  0.23780  1.0000 -0.1280210303
C   C51       1.0  0.45820  0.62720  0.73780  1.0000 -0.1280210303
C   C52       1.0  0.62720  0.45820  0.76220  1.0000 -0.1280210303
C   C53       1.0  0.67570  0.49710  0.28070  1.0000 -0.1982303994
C   C54       1.0  0.49710  0.67570  0.21930  1.0000 -0.1982303994
C   C55       1.0  0.32430  0.50290  0.71930  1.0000 -0.1982303994
C   C56       1.0  0.50290  0.32430  0.78070  1.0000 -0.1982303994
C   C57       1.0  0.76270  0.62110  0.24980  1.0000 0.2689887516
C   C58       1.0  0.62110  0.76270  0.25020  1.0000 0.2689887516
C   C59       1.0  0.23730  0.37890  0.75020  1.0000 0.2689887516
C   C60       1.0  0.37890  0.23730  0.74980  1.0000 0.2689887516
C   C61       1.0  0.71460  0.61640  0.20150  1.0000 -0.1982303994
C   C62       1.0  0.61640  0.71460  0.29850  1.0000 -0.1982303994
C   C63       1.0  0.28540  0.38360  0.79850  1.0000 -0.1982303994
C   C64       1.0  0.38360  0.28540  0.70150  1.0000 -0.1982303994
C   C65       1.0  0.57840  0.48840  0.18280  1.0000 -0.1061922895
C   C66       1.0  0.48840  0.57840  0.31720  1.0000 -0.1061922895
C   C67       1.0  0.42160  0.51160  0.81720  1.0000 -0.1061922895
C   C68       1.0  0.51160  0.42160  0.68280  1.0000 -0.1061922895
C   C69       1.0  0.92140  0.71180  0.15000  1.0000 0.6843717161
C   C70       1.0  0.71180  0.92140  0.35000  1.0000 0.6843717161
C   C71       1.0  0.07860  0.28820  0.85000  1.0000 0.6843717161
C   C72       1.0  0.28820  0.07860  0.65000  1.0000 0.6843717161
C   C73       1.0  0.85050  0.60630  0.12310  1.0000 -0.615665802
C   C74       1.0  0.60630  0.85050  0.37690  1.0000 -0.615665802
C   C75       1.0  0.14950  0.39370  0.87690  1.0000 -0.6132777799
C   C76       1.0  0.39370  0.14950  0.62310  1.0000 -0.615665802
C   C77       1.0  0.23730  0.96210  0.35810  1.0000 0.6926134142
C   C78       1.0  0.96210  0.23730  0.14190  1.0000 0.6926134142
C   C79       1.0  0.76270  0.03790  0.64190  1.0000 0.6926134142
C   C80       1.0  0.03790  0.76270  0.85810  1.0000 0.6926134142
C   C81       1.0  0.34750  0.09110  0.38240  1.0000 -0.6132777799
C   C82       1.0  0.09110  0.34750  0.11760  1.0000 -0.6132777799
C   C83       1.0  0.65250  0.90890  0.61760  1.0000 -0.6132777799
C   C84       1.0  0.90890  0.65250  0.88240  1.0000 -0.6132777799
C   C85       1.0  0.79670  0.43630  0.31290  1.0000 0.3809847894
C   C86       1.0  0.43630  0.79670  0.18710  1.0000 0.3809847894
C   C87       1.0  0.20330  0.56370  0.68710  1.0000 0.3809847894
C   C88       1.0  0.56370  0.20330  0.81290  1.0000 0.3809847894
C   C89       1.0  0.65950  0.30290  0.29140  1.0000 -0.0449303177
C   C90       1.0  0.30290  0.65950  0.20860  1.0000 -0.0449303177
C   C91       1.0  0.34050  0.69710  0.70860  1.0000 -0.0449303177
C   C92       1.0  0.69710  0.34050  0.79140  1.0000 -0.0449303177
C   C93       1.0  0.61450  0.29510  0.24170  1.0000 -0.1280210303
C   C94       1.0  0.29510  0.61450  0.25830  1.0000 -0.1280210303
C   C95       1.0  0.38550  0.70490  0.75830  1.0000 -0.1280210303
C   C96       1.0  0.70490  0.38550  0.74170  1.0000 -0.1280210303
C   C97       1.0  0.47860  0.17040  0.22340  1.0000 -0.1982303994
C   C98       1.0  0.17040  0.47860  0.27660  1.0000 -0.1982303994
C   C99       1.0  0.52140  0.82960  0.77660  1.0000 -0.1982303994
C   C100      1.0  0.82960  0.52140  0.72340  1.0000 -0.1982303994
C   C101      1.0  0.38570  0.05010  0.25530  1.0000 0.2689887516
C   C102      1.0  0.05010  0.38570  0.24470  1.0000 0.2689887516
C   C103      1.0  0.61430  0.94990  0.74470  1.0000 0.2689887516
C   C104      1.0  0.94990  0.61430  0.75530  1.0000 0.2689887516
C   C105      1.0  0.43170  0.05450  0.30490  1.0000 -0.1982303994
C   C106      1.0  0.05450  0.43170  0.19510  1.0000 -0.1982303994
C   C107      1.0  0.56830  0.94550  0.69510  1.0000 -0.1982303994
C   C108      1.0  0.94550  0.56830  0.80490  1.0000 -0.1982303994
C   C109      1.0  0.56720  0.18020  0.32250  1.0000 -0.0986246702
C   C110      1.0  0.18020  0.56720  0.17750  1.0000 -0.0986246702
C   C111      1.0  0.43280  0.81980  0.67750  1.0000 -0.0986246702
C   C112      1.0  0.81980  0.43280  0.82250  1.0000 -0.0986246702
C   C113      1.0  0.82350  0.54750  0.41890  1.0000 0.4069816384
C   C114      1.0  0.54750  0.82350  0.08110  1.0000 0.4069816384
C   C115      1.0  0.17650  0.45250  0.58110  1.0000 0.4069816384
C   C116      1.0  0.45250  0.17650  0.91890  1.0000 0.4069816384
C   C117      1.0  0.69880  0.47560  0.42550  1.0000 -0.048587319
C   C118      1.0  0.47560  0.69880  0.07450  1.0000 -0.048587319
C   C119      1.0  0.30120  0.52440  0.57450  1.0000 -0.048587319
C   C120      1.0  0.52440  0.30120  0.92550  1.0000 -0.048587319
C   C121      1.0  0.64860  0.49320  0.38790  1.0000 -0.1061922895
C   C122      1.0  0.49320  0.64860  0.11210  1.0000 -0.1061922895
C   C123      1.0  0.35140  0.50680  0.61210  1.0000 -0.1061922895
C   C124      1.0  0.50680  0.35140  0.88790  1.0000 -0.1061922895
C   C125      1.0  0.52620  0.42000  0.38870  1.0000 -0.1982303994
C   C126      1.0  0.42000  0.52620  0.11130  1.0000 -0.1982303994
C   C127      1.0  0.47380  0.58000  0.61130  1.0000 -0.1982303994
C   C128      1.0  0.58000  0.47380  0.88870  1.0000 -0.1982303994
C   C129      1.0  0.45320  0.33220  0.42910  1.0000 0.2689887516
C   C130      1.0  0.33220  0.45320  0.07090  1.0000 0.2689887516
C   C131      1.0  0.54680  0.66780  0.57090  1.0000 0.2689887516
C   C132      1.0  0.66780  0.54680  0.92910  1.0000 0.2689887516
C   C133      1.0  0.50110  0.31030  0.46940  1.0000 -0.2175959435
C   C134      1.0  0.31030  0.50110  0.03060  1.0000 -0.2175959435
C   C135      1.0  0.49890  0.68970  0.53060  1.0000 -0.2175959435
C   C136      1.0  0.68970  0.49890  0.96940  1.0000 -0.2175959435
C   C137      1.0  0.62200  0.38220  0.46630  1.0000 -0.1280210303
C   C138      1.0  0.38220  0.62200  0.03370  1.0000 -0.1280210303
C   C139      1.0  0.37800  0.61780  0.53370  1.0000 -0.1280210303
C   C140      1.0  0.61780  0.37800  0.96630  1.0000 -0.1280210303
C   C141      1.0  0.19980  0.67700  0.42000  1.0000 0.7036253426
C   C142      1.0  0.67700  0.19980  0.08000  1.0000 0.7036253426
C   C143      1.0  0.80020  0.32300  0.58000  1.0000 0.7036253426
C   C144      1.0  0.32300  0.80020  0.92000  1.0000 0.7036253426
C   C145      1.0  0.31870  0.73850  0.41080  1.0000 -0.615665802
C   C146      1.0  0.73850  0.31870  0.08920  1.0000 -0.6132777799
C   C147      1.0  0.68130  0.26150  0.58920  1.0000 -0.6132777799
C   C148      1.0  0.26150  0.68130  0.91080  1.0000 -0.615665802
C   C149      1.0  0.21620  0.86820  0.02010  1.0000 -0.1923449423
C   C150      1.0  0.86820  0.21620  0.47990  1.0000 -0.1923449423
C   C151      1.0  0.78380  0.13180  0.97990  1.0000 -0.1923449423
C   C152      1.0  0.13180  0.78380  0.52010  1.0000 -0.1923449423
N   N1        1.0  0.17110  0.02090  0.04720  1.0000 -0.1730839349
N   N2        1.0  0.02090  0.17110  0.45280  1.0000 -0.1730839349
N   N3        1.0  0.82890  0.97910  0.95280  1.0000 -0.1730839349
N   N4        1.0  0.97910  0.82890  0.54720  1.0000 -0.1730839349
N   N5        1.0  0.32700  0.84660  0.04720  1.0000 -0.5500532922
N   N6        1.0  0.84660  0.32700  0.45280  1.0000 -0.5500532922
N   N7        1.0  0.67300  0.15340  0.95280  1.0000 -0.5500532922
N   N8        1.0  0.15340  0.67300  0.54720  1.0000 -0.5500532922
N   N9        1.0  0.27050  0.11810  0.22320  1.0000 -0.1396195555
N   N10       1.0  0.11810  0.27050  0.27680  1.0000 -0.1396195555
N   N11       1.0  0.72950  0.88190  0.77680  1.0000 -0.1396195555
N   N12       1.0  0.88190  0.72950  0.72320  1.0000 -0.1396195555
N   N13       1.0  0.90140  0.74680  0.26920  1.0000 -0.5587165032
N   N14       1.0  0.74680  0.90140  0.23080  1.0000 -0.5587165032
N   N15       1.0  0.09860  0.25320  0.73080  1.0000 -0.5587165032
N   N16       1.0  0.25320  0.09860  0.76920  1.0000 -0.5587165032
N   N17       1.0  0.88070  0.55150  0.28300  1.0000 -0.1396195555
N   N18       1.0  0.55150  0.88070  0.21700  1.0000 -0.1396195555
N   N19       1.0  0.11930  0.44850  0.71700  1.0000 -0.1396195555
N   N20       1.0  0.44850  0.11930  0.78300  1.0000 -0.1396195555
N   N21       1.0  0.24480  0.92340  0.23750  1.0000 -0.5500532922
N   N22       1.0  0.92340  0.24480  0.26250  1.0000 -0.5500532922
N   N23       1.0  0.75520  0.07660  0.76250  1.0000 -0.5500532922
N   N24       1.0  0.07660  0.75520  0.73750  1.0000 -0.5500532922
N   N25       1.0  0.86190  0.51790  0.45460  1.0000 -0.1730839349
N   N26       1.0  0.51790  0.86190  0.04540  1.0000 -0.1759362307
N   N27       1.0  0.13810  0.48210  0.54540  1.0000 -0.1759362307
N   N28       1.0  0.48210  0.13810  0.95460  1.0000 -0.1730839349
N   N29       1.0  0.33110  0.25870  0.43060  1.0000 -0.5587165032
N   N30       1.0  0.25870  0.33110  0.06940  1.0000 -0.5587165032
N   N31       1.0  0.66890  0.74130  0.56940  1.0000 -0.5587165032
N   N32       1.0  0.74130  0.66890  0.93060  1.0000 -0.5587165032
O   O1        1.0  0.15800  0.21440  0.96820  1.0000 -0.5000443694
O   O2        1.0  0.21440  0.15800  0.53180  1.0000 -0.5000443694
O   O3        1.0  0.84200  0.78560  0.03180  1.0000 -0.5000443694
O   O4        1.0  0.78560  0.84200  0.46820  1.0000 -0.5000443694
O   O5        1.0  0.95940  0.02240  0.04430  1.0000 -0.6018508908
O   O6        1.0  0.02240  0.95940  0.45570  1.0000 -0.6018508908
O   O7        1.0  0.04060  0.97760  0.95570  1.0000 -0.6018508908
O   O8        1.0  0.97760  0.04060  0.54430  1.0000 -0.6018508908
O   O9        1.0  0.99990  0.98870  0.12490  1.0000 -0.5587165032
O   O10       1.0  0.98870  0.99990  0.37510  1.0000 -0.5587165032
O   O11       1.0  0.00010  0.01130  0.87510  1.0000 -0.5587165032
O   O12       1.0  0.01130  0.00010  0.62490  1.0000 -0.5587165032
O   O13       1.0  0.13636  0.05104  0.05550  1.0000 -0.4614218895
O   O14       1.0  0.05104  0.13636  0.44450  1.0000 -0.4614218895
O   O15       1.0  0.86364  0.94896  0.94450  1.0000 -0.4614218895
O   O16       1.0  0.94896  0.86364  0.55550  1.0000 -0.4614218895
O   O17       1.0  0.23230  0.01590  0.12830  1.0000 -0.5000443694
O   O18       1.0  0.01590  0.23230  0.37170  1.0000 -0.5000443694
O   O19       1.0  0.76770  0.98410  0.87170  1.0000 -0.5000443694
O   O20       1.0  0.98410  0.76770  0.62830  1.0000 -0.5000443694
O   O21       1.0  0.14180  0.98980  0.20650  1.0000 -0.4497073844
O   O22       1.0  0.98980  0.14180  0.29350  1.0000 -0.4497073844
O   O23       1.0  0.85820  0.01020  0.79350  1.0000 -0.4497073844
O   O24       1.0  0.01020  0.85820  0.70650  1.0000 -0.4497073844
O   O25       1.0  0.31120  0.22400  0.14670  1.0000 -0.4822132525
O   O26       1.0  0.22400  0.31120  0.35330  1.0000 -0.4822132525
O   O27       1.0  0.68880  0.77600  0.85330  1.0000 -0.4822132525
O   O28       1.0  0.77600  0.68880  0.64670  1.0000 -0.4822132525
O   O29       1.0  0.94160  0.79320  0.12630  1.0000 -0.542561793
O   O30       1.0  0.79320  0.94160  0.37370  1.0000 -0.542561793
O   O31       1.0  0.05840  0.20680  0.87370  1.0000 -0.542561793
O   O32       1.0  0.20680  0.05840  0.62630  1.0000 -0.542561793
O   O33       1.0  0.95390  0.70890  0.19520  1.0000 -0.5500532922
O   O34       1.0  0.70890  0.95390  0.30480  1.0000 -0.5500532922
O   O35       1.0  0.04610  0.29110  0.80480  1.0000 -0.5500532922
O   O36       1.0  0.29110  0.04610  0.69520  1.0000 -0.5500532922
O   O37       1.0  0.19710  0.96090  0.31280  1.0000 -0.5822122705
O   O38       1.0  0.96090  0.19710  0.18720  1.0000 -0.5822122705
O   O39       1.0  0.80290  0.03910  0.68720  1.0000 -0.5822122705
O   O40       1.0  0.03910  0.80290  0.81280  1.0000 -0.5822122705
O   O41       1.0  0.19480  0.86580  0.38390  1.0000 -0.5587165032
O   O42       1.0  0.86580  0.19480  0.11610  1.0000 -0.5587165032
O   O43       1.0  0.80520  0.13420  0.61610  1.0000 -0.5587165032
O   O44       1.0  0.13420  0.80520  0.88390  1.0000 -0.5587165032
O   O45       1.0  0.00271  0.67829  0.30180  1.0000 -0.4614218895
O   O46       1.0  0.67829  0.00271  0.19820  1.0000 -0.4614218895
O   O47       1.0  0.99729  0.32171  0.69820  1.0000 -0.4614218895
O   O48       1.0  0.32171  0.99729  0.80180  1.0000 -0.4614218895
O   O49       1.0  0.83240  0.44040  0.36010  1.0000 -0.5159986105
O   O50       1.0  0.44040  0.83240  0.13990  1.0000 -0.5159986105
O   O51       1.0  0.16760  0.55960  0.63990  1.0000 -0.5159986105
O   O52       1.0  0.55960  0.16760  0.86010  1.0000 -0.5159986105
O   O53       1.0  0.97315  0.57745  0.44960  1.0000 -0.4497073844
O   O54       1.0  0.57745  0.97315  0.05040  1.0000 -0.4497073844
O   O55       1.0  0.02685  0.42255  0.55040  1.0000 -0.4497073844
O   O56       1.0  0.42255  0.02685  0.94960  1.0000 -0.4497073844
O   O57       1.0  0.88950  0.62750  0.38230  1.0000 -0.4497073844
O   O58       1.0  0.62750  0.88950  0.11770  1.0000 -0.4497073844
O   O59       1.0  0.11050  0.37250  0.61770  1.0000 -0.4497073844
O   O60       1.0  0.37250  0.11050  0.88230  1.0000 -0.4497073844
O   O61       1.0  0.14460  0.67940  0.38470  1.0000 -0.5500532922
O   O62       1.0  0.67940  0.14460  0.11530  1.0000 -0.5500532922
O   O63       1.0  0.85540  0.32060  0.61530  1.0000 -0.5500532922
O   O64       1.0  0.32060  0.85540  0.88470  1.0000 -0.5500532922
O   O65       1.0  0.17000  0.62920  0.46460  1.0000 -0.5822122705
O   O66       1.0  0.62920  0.17000  0.03540  1.0000 -0.5822122705
O   O67       1.0  0.83000  0.37080  0.53540  1.0000 -0.5822122705
O   O68       1.0  0.37080  0.83000  0.96460  1.0000 -0.5822122705
