# DDEC6 charges by PACMAN v1.1 (https://github.com/mtap-research/PACMAN-charge/)
data_2014[Cu][dia]3[FSR]12
_chemical_formula_sum              "Cu8 H96 C76 N24 O24"
_cell_length_a       13.014
_cell_length_b       14.394
_cell_length_c       16.306
_cell_angle_alpha    90
_cell_angle_beta     90
_cell_angle_gamma    90

_symmetry_space_group_name_H-M    "P 1"
_symmetry_Int_Tables_number       1

loop_
  _symmetry_equiv_pos_as_xyz
  'x, y, z'

loop_
  _atom_site_type_symbol
  _atom_site_label
  _atom_site_symmetry_multiplicity
  _atom_site_fract_x
  _atom_site_fract_y
  _atom_site_fract_z
  _atom_site_occupancy
  _atom_site_charge
Cu  Cu1       1.0  0.06007  0.03701  0.91414  1.0000 0.7222165527
Cu  Cu2       1.0  0.43993  0.96299  0.41414  1.0000 0.7222165527
Cu  Cu3       1.0  0.56007  0.46299  0.08586  1.0000 0.7222165527
Cu  Cu4       1.0  0.93993  0.53701  0.58586  1.0000 0.7222165527
Cu  Cu5       1.0  0.79018  0.29436  0.83953  1.0000 0.7281050148
Cu  Cu6       1.0  0.70982  0.70564  0.33953  1.0000 0.7281050148
Cu  Cu7       1.0  0.29018  0.20564  0.16047  1.0000 0.7281050148
Cu  Cu8       1.0  0.20982  0.79436  0.66047  1.0000 0.7281050148
H   H1        1.0  0.37750  0.96430  0.59270  1.0000 0.2872377212
H   H2        1.0  0.12250  0.03570  0.09270  1.0000 0.2872377212
H   H3        1.0  0.87750  0.53570  0.40730  1.0000 0.2872377212
H   H4        1.0  0.62250  0.46430  0.90730  1.0000 0.2872377212
H   H5        1.0  0.77270  0.36470  0.66540  1.0000 0.2872377212
H   H6        1.0  0.72730  0.63530  0.16540  1.0000 0.2872377212
H   H7        1.0  0.27270  0.13530  0.33460  1.0000 0.2872377212
H   H8        1.0  0.22730  0.86470  0.83460  1.0000 0.2872377212
H   H9        1.0  0.95330  0.02690  0.71690  1.0000 0.1103990187
H   H10       1.0  0.54670  0.97310  0.21690  1.0000 0.1103990187
H   H11       1.0  0.45330  0.47310  0.28310  1.0000 0.1103990187
H   H12       1.0  0.04670  0.52690  0.78310  1.0000 0.1103990187
H   H13       1.0  0.02520  0.16830  0.66950  1.0000 0.1410751755
H   H14       1.0  0.47480  0.83170  0.16950  1.0000 0.1410751755
H   H15       1.0  0.52520  0.33170  0.33050  1.0000 0.1410751755
H   H16       1.0  0.97480  0.66830  0.83050  1.0000 0.1410751755
H   H17       1.0  0.08270  0.08470  0.62840  1.0000 0.1410751755
H   H18       1.0  0.41730  0.91530  0.12840  1.0000 0.1410751755
H   H19       1.0  0.58270  0.41530  0.37160  1.0000 0.1410751755
H   H20       1.0  0.91730  0.58470  0.87160  1.0000 0.1410751755
H   H21       1.0  0.13360  0.13800  0.70170  1.0000 0.1410751755
H   H22       1.0  0.36640  0.86200  0.20170  1.0000 0.1410751755
H   H23       1.0  0.63360  0.36200  0.29830  1.0000 0.1410751755
H   H24       1.0  0.86640  0.63800  0.79830  1.0000 0.1410751755
H   H25       1.0  0.85070  0.26150  0.05450  1.0000 0.1103990187
H   H26       1.0  0.64930  0.73850  0.55450  1.0000 0.1103990187
H   H27       1.0  0.35070  0.23850  0.94550  1.0000 0.1103990187
H   H28       1.0  0.14930  0.76150  0.44550  1.0000 0.1103990187
H   H29       1.0  0.00210  0.34590  0.02560  1.0000 0.1410751755
H   H30       1.0  0.49790  0.65410  0.52560  1.0000 0.1410751755
H   H31       1.0  0.50210  0.15410  0.97440  1.0000 0.1410751755
H   H32       1.0  0.99790  0.84590  0.47440  1.0000 0.1410751755
H   H33       1.0  0.92390  0.41190  0.06990  1.0000 0.1410751755
H   H34       1.0  0.57610  0.58810  0.56990  1.0000 0.1410751755
H   H35       1.0  0.42390  0.08810  0.93010  1.0000 0.1410751755
H   H36       1.0  0.07610  0.91190  0.43010  1.0000 0.1410751755
H   H37       1.0  0.93880  0.41840  0.97460  1.0000 0.1410751755
H   H38       1.0  0.56120  0.58160  0.47460  1.0000 0.1410751755
H   H39       1.0  0.43880  0.08160  0.02540  1.0000 0.1410751755
H   H40       1.0  0.06120  0.91840  0.52540  1.0000 0.1410751755
H   H41       1.0  0.34200  0.00870  0.72930  1.0000 0.1483964648
H   H42       1.0  0.15800  0.99130  0.22930  1.0000 0.1483964648
H   H43       1.0  0.84200  0.49130  0.27070  1.0000 0.1483964648
H   H44       1.0  0.65800  0.50870  0.77070  1.0000 0.1483964648
H   H45       1.0  0.30880  0.11290  0.73810  1.0000 0.1483964648
H   H46       1.0  0.19120  0.88710  0.23810  1.0000 0.1483964648
H   H47       1.0  0.80880  0.38710  0.26190  1.0000 0.1483964648
H   H48       1.0  0.69120  0.61290  0.76190  1.0000 0.1483964648
H   H49       1.0  0.42080  0.08270  0.76120  1.0000 0.1410751755
H   H50       1.0  0.07920  0.91730  0.26120  1.0000 0.1410751755
H   H51       1.0  0.92080  0.41730  0.23880  1.0000 0.1410751755
H   H52       1.0  0.57920  0.58270  0.73880  1.0000 0.1410751755
H   H53       1.0  0.50060  0.15400  0.40210  1.0000 0.1410751755
H   H54       1.0  0.99940  0.84600  0.90210  1.0000 0.1410751755
H   H55       1.0  0.00060  0.34600  0.59790  1.0000 0.1483964648
H   H56       1.0  0.49940  0.65400  0.09790  1.0000 0.1410751755
H   H57       1.0  0.56530  0.21310  0.46420  1.0000 0.1483964648
H   H58       1.0  0.93470  0.78690  0.96420  1.0000 0.1483964648
H   H59       1.0  0.06530  0.28690  0.53580  1.0000 0.1483964648
H   H60       1.0  0.43470  0.71310  0.03580  1.0000 0.1483964648
H   H61       1.0  0.45420  0.24490  0.43990  1.0000 0.1483964648
H   H62       1.0  0.04580  0.75510  0.93990  1.0000 0.1483964648
H   H63       1.0  0.95420  0.25510  0.56010  1.0000 0.1483964648
H   H64       1.0  0.54580  0.74490  0.06010  1.0000 0.1483964648
H   H65       1.0  0.58360  0.23590  0.86380  1.0000 0.1410751755
H   H66       1.0  0.91640  0.76410  0.36380  1.0000 0.1410751755
H   H67       1.0  0.08360  0.26410  0.13620  1.0000 0.1410751755
H   H68       1.0  0.41640  0.73590  0.63620  1.0000 0.1410751755
H   H69       1.0  0.51820  0.17270  0.80550  1.0000 0.1410751755
H   H70       1.0  0.98180  0.82730  0.30550  1.0000 0.1410751755
H   H71       1.0  0.01820  0.32730  0.19450  1.0000 0.1410751755
H   H72       1.0  0.48180  0.67270  0.69450  1.0000 0.1410751755
H   H73       1.0  0.47860  0.27200  0.82920  1.0000 0.1483964648
H   H74       1.0  0.02140  0.72800  0.32920  1.0000 0.1483964648
H   H75       1.0  0.97860  0.22800  0.17080  1.0000 0.1483964648
H   H76       1.0  0.52140  0.77200  0.67080  1.0000 0.1483964648
H   H77       1.0  0.40170  0.27320  0.67630  1.0000 0.1103990187
H   H78       1.0  0.09830  0.72680  0.17630  1.0000 0.1103990187
H   H79       1.0  0.90170  0.22680  0.32370  1.0000 0.1103990187
H   H80       1.0  0.59830  0.77320  0.82370  1.0000 0.1103990187
H   H81       1.0  0.43220  0.30780  0.58880  1.0000 0.1103990187
H   H82       1.0  0.06780  0.69220  0.08880  1.0000 0.1103990187
H   H83       1.0  0.93220  0.19220  0.41120  1.0000 0.1103990187
H   H84       1.0  0.56780  0.80780  0.91120  1.0000 0.1103990187
H   H85       1.0  0.71620  0.39580  0.53130  1.0000 0.1483964648
H   H86       1.0  0.78380  0.60420  0.03130  1.0000 0.1483964648
H   H87       1.0  0.21620  0.10420  0.46870  1.0000 0.1483964648
H   H88       1.0  0.28380  0.89580  0.96870  1.0000 0.1483964648
H   H89       1.0  0.59820  0.41720  0.52760  1.0000 0.1483964648
H   H90       1.0  0.90180  0.58280  0.02760  1.0000 0.1483964648
H   H91       1.0  0.09820  0.08280  0.47240  1.0000 0.1483964648
H   H92       1.0  0.40180  0.91720  0.97240  1.0000 0.1483964648
H   H93       1.0  0.63960  0.32020  0.49890  1.0000 0.1410751755
H   H94       1.0  0.86040  0.67980  0.99890  1.0000 0.1410751755
H   H95       1.0  0.13960  0.17980  0.50110  1.0000 0.1410751755
H   H96       1.0  0.36040  0.82020  0.00110  1.0000 0.1410751755
C   C1        1.0  0.08890  0.96570  0.75490  1.0000 0.5636820259
C   C2        1.0  0.41110  0.03430  0.25490  1.0000 0.5636820259
C   C3        1.0  0.58890  0.53430  0.24510  1.0000 0.5636820259
C   C4        1.0  0.91110  0.46570  0.74510  1.0000 0.5636820259
C   C5        1.0  0.01840  0.04880  0.74020  1.0000 0.0465984826
C   C6        1.0  0.48160  0.95120  0.24020  1.0000 0.0465984826
C   C7        1.0  0.51840  0.45120  0.25980  1.0000 0.0465984826
C   C8        1.0  0.98160  0.54880  0.75980  1.0000 0.0465984826
C   C9        1.0  0.06980  0.11630  0.67920  1.0000 -0.4124837753
C   C10       1.0  0.43020  0.88370  0.17920  1.0000 -0.4124837753
C   C11       1.0  0.56980  0.38370  0.32080  1.0000 -0.4124837753
C   C12       1.0  0.93020  0.61630  0.82080  1.0000 -0.4124837753
C   C13       1.0  0.93190  0.15630  0.83170  1.0000 0.3625422741
C   C14       1.0  0.56810  0.84370  0.33170  1.0000 0.3625422741
C   C15       1.0  0.43190  0.34370  0.16830  1.0000 0.3625422741
C   C16       1.0  0.06810  0.65630  0.66830  1.0000 0.3625422741
C   C17       1.0  0.92780  0.18390  0.92180  1.0000 0.3625422741
C   C18       1.0  0.57220  0.81610  0.42180  1.0000 0.3625422741
C   C19       1.0  0.42780  0.31610  0.07820  1.0000 0.3625422741
C   C20       1.0  0.07220  0.68390  0.57820  1.0000 0.3625422741
C   C21       1.0  0.85220  0.30530  0.00850  1.0000 0.0407597634
C   C22       1.0  0.64780  0.69470  0.50850  1.0000 0.0407597634
C   C23       1.0  0.35220  0.19470  0.99150  1.0000 0.0407597634
C   C24       1.0  0.14780  0.80530  0.49150  1.0000 0.0407597634
C   C25       1.0  0.93710  0.37700  0.02080  1.0000 -0.4124837753
C   C26       1.0  0.56290  0.62300  0.52080  1.0000 -0.4124837753
C   C27       1.0  0.43710  0.12300  0.97920  1.0000 -0.4124837753
C   C28       1.0  0.06290  0.87700  0.47920  1.0000 -0.4124837753
C   C29       1.0  0.74970  0.35460  0.00070  1.0000 0.5653719368
C   C30       1.0  0.75030  0.64540  0.50070  1.0000 0.5653719368
C   C31       1.0  0.24970  0.14540  0.99930  1.0000 0.5653719368
C   C32       1.0  0.25030  0.85460  0.49930  1.0000 0.5653719368
C   C33       1.0  0.36450  0.07200  0.72440  1.0000 -0.4861307156
C   C34       1.0  0.13550  0.92800  0.22440  1.0000 -0.4861307156
C   C35       1.0  0.86450  0.42800  0.27560  1.0000 -0.4861307156
C   C36       1.0  0.63550  0.57200  0.77560  1.0000 -0.4861307156
C   C37       1.0  0.39860  0.09040  0.63750  1.0000 0.1807273111
C   C38       1.0  0.10140  0.90960  0.13750  1.0000 0.1807273111
C   C39       1.0  0.89860  0.40960  0.36250  1.0000 0.1807273111
C   C40       1.0  0.60140  0.59040  0.86250  1.0000 0.1807273111
C   C41       1.0  0.43680  0.16700  0.59880  1.0000 -0.1022308593
C   C42       1.0  0.06320  0.83300  0.09880  1.0000 -0.1022308593
C   C43       1.0  0.93680  0.33300  0.40120  1.0000 -0.1022308593
C   C44       1.0  0.56320  0.66700  0.90120  1.0000 -0.1022308593
C   C45       1.0  0.45530  0.13840  0.51820  1.0000 0.190858117
C   C46       1.0  0.04470  0.86160  0.01820  1.0000 0.190858117
C   C47       1.0  0.95530  0.36160  0.48180  1.0000 0.190858117
C   C48       1.0  0.54470  0.63840  0.98180  1.0000 0.190858117
C   C49       1.0  0.49740  0.19220  0.45030  1.0000 -0.4806089451
C   C50       1.0  0.00260  0.80780  0.95030  1.0000 -0.4806089451
C   C51       1.0  0.99740  0.30780  0.54970  1.0000 -0.4806089451
C   C52       1.0  0.50260  0.69220  0.04970  1.0000 -0.4806089451
C   C53       1.0  0.53850  0.23540  0.81730  1.0000 -0.4806089451
C   C54       1.0  0.96150  0.76460  0.31730  1.0000 -0.4806089451
C   C55       1.0  0.03850  0.26460  0.18270  1.0000 -0.4806089451
C   C56       1.0  0.46150  0.73540  0.68270  1.0000 -0.4806089451
C   C57       1.0  0.59260  0.27520  0.74500  1.0000 0.2038417521
C   C58       1.0  0.90740  0.72480  0.24500  1.0000 0.2038417521
C   C59       1.0  0.09260  0.22480  0.25500  1.0000 0.2038417521
C   C60       1.0  0.40740  0.77520  0.75500  1.0000 0.2038417521
C   C61       1.0  0.55640  0.28940  0.66320  1.0000 -0.0921783143
C   C62       1.0  0.94360  0.71060  0.16320  1.0000 -0.0921783143
C   C63       1.0  0.05640  0.21060  0.33680  1.0000 -0.0921783143
C   C64       1.0  0.44360  0.78940  0.83680  1.0000 -0.0921783143
C   C65       1.0  0.45030  0.26440  0.63190  1.0000 -0.2266896975
C   C66       1.0  0.04970  0.73560  0.13190  1.0000 -0.2266896975
C   C67       1.0  0.95030  0.23560  0.36810  1.0000 -0.2266896975
C   C68       1.0  0.54970  0.76440  0.86810  1.0000 -0.2266896975
C   C69       1.0  0.63620  0.33280  0.62400  1.0000 0.1807273111
C   C70       1.0  0.86380  0.66720  0.12400  1.0000 0.1807273111
C   C71       1.0  0.13620  0.16720  0.37600  1.0000 0.1807273111
C   C72       1.0  0.36380  0.83280  0.87600  1.0000 0.1807273111
C   C73       1.0  0.64870  0.36990  0.53750  1.0000 -0.4861307156
C   C74       1.0  0.85130  0.63010  0.03750  1.0000 -0.4861307156
C   C75       1.0  0.14870  0.13010  0.46250  1.0000 -0.4861307156
C   C76       1.0  0.35130  0.86990  0.96250  1.0000 -0.4861307156
N   N1        1.0  0.99890  0.09140  0.81920  1.0000 -0.4025742945
N   N2        1.0  0.50110  0.90860  0.31920  1.0000 -0.4025742945
N   N3        1.0  0.49890  0.40860  0.18080  1.0000 -0.4025742945
N   N4        1.0  0.00110  0.59140  0.68080  1.0000 -0.4025742945
N   N5        1.0  0.86940  0.25620  0.93190  1.0000 -0.4025742945
N   N6        1.0  0.63060  0.74380  0.43190  1.0000 -0.4025742945
N   N7        1.0  0.36940  0.24380  0.06810  1.0000 -0.4025742945
N   N8        1.0  0.13060  0.75620  0.56810  1.0000 -0.4025742945
N   N9        1.0  0.43000  0.04950  0.50920  1.0000 -0.2441878108
N   N10       1.0  0.07000  0.95050  0.00920  1.0000 -0.2441878108
N   N11       1.0  0.93000  0.45050  0.49080  1.0000 -0.2441878108
N   N12       1.0  0.57000  0.54950  0.99080  1.0000 -0.2441878108
N   N13       1.0  0.39710  0.02020  0.58220  1.0000 -0.1264078555
N   N14       1.0  0.10290  0.97980  0.08220  1.0000 -0.1264078555
N   N15       1.0  0.89710  0.47980  0.41780  1.0000 -0.1264078555
N   N16       1.0  0.60290  0.52020  0.91780  1.0000 -0.1264078555
N   N17       1.0  0.71380  0.34100  0.67720  1.0000 -0.1365793211
N   N18       1.0  0.78620  0.65900  0.17720  1.0000 -0.1365793211
N   N19       1.0  0.21380  0.15900  0.32280  1.0000 -0.1365793211
N   N20       1.0  0.28620  0.84100  0.82280  1.0000 -0.1365793211
N   N21       1.0  0.68840  0.30740  0.75170  1.0000 -0.2589901474
N   N22       1.0  0.81160  0.69260  0.25170  1.0000 -0.2589901474
N   N23       1.0  0.18840  0.19260  0.24830  1.0000 -0.2589901474
N   N24       1.0  0.31160  0.80740  0.74830  1.0000 -0.2589901474
O   O1        1.0  0.11400  0.94840  0.82980  1.0000 -0.5288716492
O   O2        1.0  0.38600  0.05160  0.32980  1.0000 -0.5288716492
O   O3        1.0  0.61400  0.55160  0.17020  1.0000 -0.5288716492
O   O4        1.0  0.88600  0.44840  0.67020  1.0000 -0.5288716492
O   O5        1.0  0.12020  0.92140  0.69550  1.0000 -0.5288716492
O   O6        1.0  0.37980  0.07860  0.19550  1.0000 -0.5237841033
O   O7        1.0  0.62020  0.57860  0.30450  1.0000 -0.5237841033
O   O8        1.0  0.87980  0.42140  0.80450  1.0000 -0.5237841033
O   O9        1.0  0.97950  0.13800  0.97340  1.0000 -0.4433862505
O   O10       1.0  0.52050  0.86200  0.47340  1.0000 -0.4433862505
O   O11       1.0  0.47950  0.36200  0.02660  1.0000 -0.4433862505
O   O12       1.0  0.02050  0.63800  0.52660  1.0000 -0.4433862505
O   O13       1.0  0.87410  0.19720  0.78030  1.0000 -0.4556477306
O   O14       1.0  0.62590  0.80280  0.28030  1.0000 -0.4556477306
O   O15       1.0  0.37410  0.30280  0.21970  1.0000 -0.4556477306
O   O16       1.0  0.12590  0.69720  0.71970  1.0000 -0.4556477306
O   O17       1.0  0.71340  0.39300  0.06150  1.0000 -0.5237841033
O   O18       1.0  0.78660  0.60700  0.56150  1.0000 -0.5237841033
O   O19       1.0  0.21340  0.10700  0.93850  1.0000 -0.5237841033
O   O20       1.0  0.28660  0.89300  0.43850  1.0000 -0.5237841033
O   O21       1.0  0.70940  0.35720  0.92830  1.0000 -0.5288716492
O   O22       1.0  0.79060  0.64280  0.42830  1.0000 -0.5288716492
O   O23       1.0  0.20940  0.14280  0.07170  1.0000 -0.5288716492
O   O24       1.0  0.29060  0.85720  0.57170  1.0000 -0.5288716492
