# DDEC6 charges by PACMAN v1.1 (https://github.com/mtap-research/PACMAN-charge/)
data_2014[Mn][rtl]3[FSR]2
_chemical_formula_sum              "Mn4 H64 C96 N8 O16"
_cell_length_a       9.7821
_cell_length_b       19.916
_cell_length_c       16.1047
_cell_angle_alpha    90
_cell_angle_beta     93.581
_cell_angle_gamma    90

_symmetry_space_group_name_H-M    "P 1"
_symmetry_Int_Tables_number       1

loop_
  _symmetry_equiv_pos_as_xyz
  'x, y, z'

loop_
  _atom_site_type_symbol
  _atom_site_label
  _atom_site_symmetry_multiplicity
  _atom_site_fract_x
  _atom_site_fract_y
  _atom_site_fract_z
  _atom_site_occupancy
  _atom_site_charge
Mn  Mn1       1.0  0.50000  0.00000  0.50000  1.0000 0.9165821433
Mn  Mn2       1.0  0.50000  0.50000  0.00000  1.0000 0.9165821433
Mn  Mn3       1.0  0.00000  0.50000  0.00000  1.0000 0.9269105553
Mn  Mn4       1.0  0.00000  0.00000  0.50000  1.0000 0.9269105553
H   H1        1.0  0.80260  0.69970  0.92110  1.0000 0.1190632497
H   H2        1.0  0.19740  0.19970  0.57890  1.0000 0.1190632497
H   H3        1.0  0.19740  0.30030  0.07890  1.0000 0.1190632497
H   H4        1.0  0.80260  0.80030  0.42110  1.0000 0.1190632497
H   H5        1.0  0.74100  0.79200  0.84020  1.0000 0.1190632497
H   H6        1.0  0.25900  0.29200  0.65980  1.0000 0.111291838
H   H7        1.0  0.25900  0.20800  0.15980  1.0000 0.1190632497
H   H8        1.0  0.74100  0.70800  0.34020  1.0000 0.1190632497
H   H9        1.0  0.54600  0.67070  0.67110  1.0000 0.1190632497
H   H10       1.0  0.45400  0.17070  0.82890  1.0000 0.1190632497
H   H11       1.0  0.45400  0.32930  0.32890  1.0000 0.1190632497
H   H12       1.0  0.54600  0.82930  0.17110  1.0000 0.1190632497
H   H13       1.0  0.58580  0.58000  0.75900  1.0000 0.1305127116
H   H14       1.0  0.41420  0.08000  0.74100  1.0000 0.1305127116
H   H15       1.0  0.41420  0.42000  0.24100  1.0000 0.1305127116
H   H16       1.0  0.58580  0.92000  0.25900  1.0000 0.1305127116
H   H17       1.0  0.57360  0.96180  0.68960  1.0000 0.111291838
H   H18       1.0  0.42640  0.46180  0.81040  1.0000 0.111291838
H   H19       1.0  0.42640  0.03820  0.31040  1.0000 0.111291838
H   H20       1.0  0.57360  0.53820  0.18960  1.0000 0.111291838
H   H21       1.0  0.61820  0.87310  0.77880  1.0000 0.1305127116
H   H22       1.0  0.38180  0.37310  0.72120  1.0000 0.1305127116
H   H23       1.0  0.38180  0.12690  0.22120  1.0000 0.1305127116
H   H24       1.0  0.61820  0.62690  0.27880  1.0000 0.1305127116
H   H25       1.0  0.59110  0.74920  0.57900  1.0000 0.1305127116
H   H26       1.0  0.40890  0.24920  0.92100  1.0000 0.1305127116
H   H27       1.0  0.40890  0.25080  0.42100  1.0000 0.1305127116
H   H28       1.0  0.59110  0.75080  0.07900  1.0000 0.1305127116
H   H29       1.0  0.54150  0.84130  0.49670  1.0000 0.1042128488
H   H30       1.0  0.45850  0.34130  0.00330  1.0000 0.1042128488
H   H31       1.0  0.45850  0.15870  0.50330  1.0000 0.1042128488
H   H32       1.0  0.54150  0.65870  0.99670  1.0000 0.1042128488
H   H33       1.0  0.39480  0.82230  0.36560  1.0000 0.111291838
H   H34       1.0  0.60520  0.32230  0.13440  1.0000 0.111291838
H   H35       1.0  0.60520  0.17770  0.63440  1.0000 0.111291838
H   H36       1.0  0.39480  0.67770  0.86560  1.0000 0.111291838
H   H37       1.0  0.34360  0.73000  0.28000  1.0000 0.1042128488
H   H38       1.0  0.65640  0.23000  0.22000  1.0000 0.1042128488
H   H39       1.0  0.65640  0.27000  0.72000  1.0000 0.1042128488
H   H40       1.0  0.34360  0.77000  0.78000  1.0000 0.1042128488
H   H41       1.0  0.95410  0.79750  0.24210  1.0000 0.1042128488
H   H42       1.0  0.04590  0.29750  0.25790  1.0000 0.1042128488
H   H43       1.0  0.04590  0.20250  0.75790  1.0000 0.1042128488
H   H44       1.0  0.95410  0.70250  0.74210  1.0000 0.1042128488
H   H45       1.0  0.00650  0.88780  0.32740  1.0000 0.1190632497
H   H46       1.0  0.99350  0.38780  0.17260  1.0000 0.1190632497
H   H47       1.0  0.99350  0.11220  0.67260  1.0000 0.1190632497
H   H48       1.0  0.00650  0.61220  0.82740  1.0000 0.1190632497
H   H49       1.0  0.25250  0.58420  0.08080  1.0000 0.1042128488
H   H50       1.0  0.74750  0.08420  0.41920  1.0000 0.1042128488
H   H51       1.0  0.74750  0.41580  0.91920  1.0000 0.1042128488
H   H52       1.0  0.25250  0.91580  0.58080  1.0000 0.1042128488
H   H53       1.0  0.30710  0.67360  0.16670  1.0000 0.1190632497
H   H54       1.0  0.69290  0.17360  0.33333  1.0000 0.1190632497
H   H55       1.0  0.69290  0.32640  0.83330  1.0000 0.1190632497
H   H56       1.0  0.30710  0.82640  0.66667  1.0000 0.1190632497
H   H57       1.0  0.90430  0.69750  0.19590  1.0000 0.1190632497
H   H58       1.0  0.09570  0.19750  0.30410  1.0000 0.1190632497
H   H59       1.0  0.09570  0.30250  0.80410  1.0000 0.1190632497
H   H60       1.0  0.90430  0.80250  0.69590  1.0000 0.1190632497
H   H61       1.0  0.86320  0.60830  0.10870  1.0000 0.1042128488
H   H62       1.0  0.13680  0.10830  0.39130  1.0000 0.1042128488
H   H63       1.0  0.13680  0.39170  0.89130  1.0000 0.1042128488
H   H64       1.0  0.86320  0.89170  0.60870  1.0000 0.1042128488
C   C1        1.0  0.73720  0.57000  0.90310  1.0000 0.5700933545
C   C2        1.0  0.26280  0.07000  0.59690  1.0000 0.5700933545
C   C3        1.0  0.26280  0.43000  0.09690  1.0000 0.5700933545
C   C4        1.0  0.73720  0.93000  0.40310  1.0000 0.5700933545
C   C5        1.0  0.70100  0.62950  0.84860  1.0000 -0.0274945662
C   C6        1.0  0.29900  0.12950  0.65140  1.0000 -0.0274945662
C   C7        1.0  0.29900  0.37050  0.15140  1.0000 -0.0274945662
C   C8        1.0  0.70100  0.87050  0.34860  1.0000 -0.0274945662
C   C9        1.0  0.74720  0.69370  0.87100  1.0000 -0.1166924421
C   C10       1.0  0.25280  0.19370  0.62900  1.0000 -0.1166924421
C   C11       1.0  0.25280  0.30630  0.12900  1.0000 -0.1166924421
C   C12       1.0  0.74720  0.80630  0.37100  1.0000 -0.1166924421
C   C13       1.0  0.71370  0.74840  0.82180  1.0000 -0.158671701
C   C14       1.0  0.28630  0.24840  0.67820  1.0000 -0.158671701
C   C15       1.0  0.28630  0.25160  0.17820  1.0000 -0.158671701
C   C16       1.0  0.71370  0.75160  0.32180  1.0000 -0.158671701
C   C17       1.0  0.64020  0.74090  0.74540  1.0000 0.0485283195
C   C18       1.0  0.35980  0.24090  0.75460  1.0000 0.0485283195
C   C19       1.0  0.35980  0.25910  0.25460  1.0000 0.0485283195
C   C20       1.0  0.64020  0.75910  0.24540  1.0000 0.0485283195
C   C21       1.0  0.59580  0.67720  0.72300  1.0000 -0.1505884785
C   C22       1.0  0.40420  0.17720  0.77700  1.0000 -0.1505884785
C   C23       1.0  0.40420  0.32280  0.27700  1.0000 -0.1505884785
C   C24       1.0  0.59580  0.82280  0.22300  1.0000 -0.1505884785
C   C25       1.0  0.62220  0.62270  0.77460  1.0000 -0.0978380513
C   C26       1.0  0.37780  0.12270  0.72540  1.0000 -0.0978380513
C   C27       1.0  0.37780  0.37730  0.22540  1.0000 -0.0978380513
C   C28       1.0  0.62220  0.87730  0.27460  1.0000 -0.0978380513
C   C29       1.0  0.57670  0.91780  0.66710  1.0000 0.0864523795
C   C30       1.0  0.42330  0.41780  0.83290  1.0000 0.0864523795
C   C31       1.0  0.42330  0.08220  0.33290  1.0000 0.0864523795
C   C32       1.0  0.57670  0.58220  0.16710  1.0000 0.0864523795
C   C33       1.0  0.60420  0.86490  0.72080  1.0000 -0.2077067957
C   C34       1.0  0.39580  0.36490  0.77920  1.0000 -0.2077067957
C   C35       1.0  0.39580  0.13510  0.27920  1.0000 -0.2077067957
C   C36       1.0  0.60420  0.63510  0.22080  1.0000 -0.2077067957
C   C37       1.0  0.61170  0.79950  0.69030  1.0000 0.111291838
C   C38       1.0  0.38830  0.29950  0.80970  1.0000 0.111291838
C   C39       1.0  0.38830  0.20050  0.30970  1.0000 0.111291838
C   C40       1.0  0.61170  0.70050  0.19030  1.0000 0.111291838
C   C41       1.0  0.58760  0.79240  0.60380  1.0000 -0.2180658967
C   C42       1.0  0.41240  0.29240  0.89620  1.0000 -0.2180658967
C   C43       1.0  0.41240  0.20760  0.39620  1.0000 -0.2180658967
C   C44       1.0  0.58760  0.70760  0.10380  1.0000 -0.2180658967
C   C45       1.0  0.55890  0.84780  0.55480  1.0000 0.0838999435
C   C46       1.0  0.44110  0.34780  0.94520  1.0000 0.0838999435
C   C47       1.0  0.44110  0.15220  0.44520  1.0000 0.0838999435
C   C48       1.0  0.55890  0.65220  0.05480  1.0000 0.0838999435
C   C49       1.0  0.24250  0.92800  0.40390  1.0000 0.5700933545
C   C50       1.0  0.75750  0.42800  0.09610  1.0000 0.5700933545
C   C51       1.0  0.75750  0.07200  0.59610  1.0000 0.5700933545
C   C52       1.0  0.24250  0.57200  0.90390  1.0000 0.5700933545
C   C53       1.0  0.20730  0.86610  0.35170  1.0000 -0.0189583061
C   C54       1.0  0.79270  0.36610  0.14830  1.0000 -0.0189583061
C   C55       1.0  0.79270  0.13390  0.64830  1.0000 -0.0189583061
C   C56       1.0  0.20730  0.63390  0.85170  1.0000 -0.0189583061
C   C57       1.0  0.30560  0.81780  0.33930  1.0000 -0.1059386709
C   C58       1.0  0.69440  0.31780  0.16070  1.0000 -0.1059386709
C   C59       1.0  0.69440  0.18220  0.66070  1.0000 -0.1059386709
C   C60       1.0  0.30560  0.68220  0.83930  1.0000 -0.1059386709
C   C61       1.0  0.27470  0.76250  0.28830  1.0000 -0.1505884785
C   C62       1.0  0.72530  0.26250  0.21170  1.0000 -0.1505884785
C   C63       1.0  0.72530  0.23750  0.71170  1.0000 -0.1505884785
C   C64       1.0  0.27470  0.73750  0.78830  1.0000 -0.1505884785
C   C65       1.0  0.14500  0.75410  0.24970  1.0000 0.067149971
C   C66       1.0  0.85500  0.25410  0.25030  1.0000 0.067149971
C   C67       1.0  0.85500  0.24590  0.75030  1.0000 0.067149971
C   C68       1.0  0.14500  0.74590  0.74970  1.0000 0.067149971
C   C69       1.0  0.04470  0.80250  0.26620  1.0000 -0.1411158085
C   C70       1.0  0.95530  0.30250  0.23380  1.0000 -0.1411158085
C   C71       1.0  0.95530  0.19750  0.73380  1.0000 -0.1411158085
C   C72       1.0  0.04470  0.69750  0.76620  1.0000 -0.1411158085
C   C73       1.0  0.07610  0.85640  0.31650  1.0000 -0.0978380513
C   C74       1.0  0.92390  0.35640  0.18350  1.0000 -0.0978380513
C   C75       1.0  0.92390  0.14360  0.68350  1.0000 -0.0978380513
C   C76       1.0  0.07610  0.64360  0.81650  1.0000 -0.0978380513
C   C77       1.0  0.18020  0.60780  0.10450  1.0000 0.0864523795
C   C78       1.0  0.81980  0.10780  0.39550  1.0000 0.0864523795
C   C79       1.0  0.81980  0.39220  0.89550  1.0000 0.0864523795
C   C80       1.0  0.18020  0.89220  0.60450  1.0000 0.0864523795
C   C81       1.0  0.21390  0.66100  0.15640  1.0000 -0.1975190022
C   C82       1.0  0.78610  0.16100  0.34360  1.0000 -0.1975190022
C   C83       1.0  0.78610  0.33900  0.84360  1.0000 -0.1975190022
C   C84       1.0  0.21390  0.83900  0.65640  1.0000 -0.1975190022
C   C85       1.0  0.11270  0.69610  0.19320  1.0000 0.1190632497
C   C86       1.0  0.88730  0.19610  0.30680  1.0000 0.1190632497
C   C87       1.0  0.88730  0.30390  0.80680  1.0000 0.1190632497
C   C88       1.0  0.11270  0.80390  0.69320  1.0000 0.1190632497
C   C89       1.0  0.97890  0.67500  0.17320  1.0000 -0.2077067957
C   C90       1.0  0.02110  0.17500  0.32680  1.0000 -0.2077067957
C   C91       1.0  0.02110  0.32500  0.82680  1.0000 -0.2077067957
C   C92       1.0  0.97890  0.82500  0.67320  1.0000 -0.2077067957
C   C93       1.0  0.95540  0.62170  0.12080  1.0000 0.0864523795
C   C94       1.0  0.04460  0.12170  0.37920  1.0000 0.0864523795
C   C95       1.0  0.04460  0.37830  0.87920  1.0000 0.0864523795
C   C96       1.0  0.95540  0.87830  0.62080  1.0000 0.0864523795
N   N1        1.0  0.55410  0.91030  0.58450  1.0000 -0.2334041834
N   N2        1.0  0.44590  0.41030  0.91550  1.0000 -0.2334041834
N   N3        1.0  0.44590  0.08970  0.41550  1.0000 -0.2334041834
N   N4        1.0  0.55410  0.58970  0.08450  1.0000 -0.2334041834
N   N5        1.0  0.05260  0.58750  0.08570  1.0000 -0.2180658967
N   N6        1.0  0.94740  0.08750  0.41430  1.0000 -0.2180658967
N   N7        1.0  0.94740  0.41250  0.91430  1.0000 -0.2180658967
N   N8        1.0  0.05260  0.91250  0.58570  1.0000 -0.2180658967
O   O1        1.0  0.85480  0.56940  0.93780  1.0000 -0.5507788897
O   O2        1.0  0.14520  0.06940  0.56220  1.0000 -0.5507788897
O   O3        1.0  0.14520  0.43060  0.06220  1.0000 -0.5507788897
O   O4        1.0  0.85480  0.93060  0.43780  1.0000 -0.5507788897
O   O5        1.0  0.64560  0.52550  0.90870  1.0000 -0.5710396484
O   O6        1.0  0.35440  0.02550  0.59130  1.0000 -0.5710396484
O   O7        1.0  0.35440  0.47450  0.09130  1.0000 -0.5710396484
O   O8        1.0  0.64560  0.97450  0.40870  1.0000 -0.5710396484
O   O9        1.0  0.36470  0.93190  0.43220  1.0000 -0.5710396484
O   O10       1.0  0.63530  0.43190  0.06780  1.0000 -0.5710396484
O   O11       1.0  0.63530  0.06810  0.56780  1.0000 -0.5710396484
O   O12       1.0  0.36470  0.56810  0.93220  1.0000 -0.5710396484
O   O13       1.0  0.15010  0.96990  0.41260  1.0000 -0.5577949078
O   O14       1.0  0.84990  0.46990  0.08740  1.0000 -0.5577949078
O   O15       1.0  0.84990  0.03010  0.58740  1.0000 -0.5577949078
O   O16       1.0  0.15010  0.53010  0.91260  1.0000 -0.5577949078
