# DDEC6 charges by PACMAN v1.1 (https://github.com/mtap-research/PACMAN-charge/)
data_2014[GdU][nan]3[FSR]1
_chemical_formula_sum              "Gd2 U3 H26 C30 O40"
_cell_length_a       10.587
_cell_length_b       11.487
_cell_length_c       13.372
_cell_angle_alpha    69.301
_cell_angle_beta     79.25
_cell_angle_gamma    63.14

_symmetry_space_group_name_H-M    "P 1"
_symmetry_Int_Tables_number       1

loop_
  _symmetry_equiv_pos_as_xyz
  'x, y, z'

loop_
  _atom_site_type_symbol
  _atom_site_label
  _atom_site_symmetry_multiplicity
  _atom_site_fract_x
  _atom_site_fract_y
  _atom_site_fract_z
  _atom_site_occupancy
  _atom_site_charge
Gd  Gd1       1.0  0.60381  0.22774  0.75457  1.0000 2.1063419724
Gd  Gd2       1.0  0.39619  0.77226  0.24543  1.0000 2.1063419724
U   U1        1.0  0.00000  0.50000  0.50000  1.0000 2.3567602778
U   U2        1.0  0.62533  0.71279  0.83466  1.0000 2.3813564921
U   U3        1.0  0.37467  0.28721  0.16534  1.0000 2.3813564921
H   H1        1.0  0.09740  0.36100  0.95430  1.0000 0.141463607
H   H2        1.0  0.90260  0.63900  0.04570  1.0000 0.141463607
H   H3        1.0  0.16450  0.10740  0.73670  1.0000 0.141463607
H   H4        1.0  0.83550  0.89260  0.26330  1.0000 0.141463607
H   H5        1.0  0.70930  0.99890  0.41620  1.0000 0.131431445
H   H6        1.0  0.29070  0.00110  0.58380  1.0000 0.131431445
H   H7        1.0  0.86330  0.97790  0.82120  1.0000 0.4201153139
H   H8        1.0  0.13670  0.02210  0.17880  1.0000 0.4201153139
H   H9        1.0  0.74360  0.94800  0.89770  1.0000 0.4076390261
H   H10       1.0  0.25640  0.05200  0.10230  1.0000 0.4076390261
H   H11       1.0  0.52490  0.49430  0.78140  1.0000 0.4201153139
H   H12       1.0  0.47510  0.50570  0.21860  1.0000 0.4201153139
H   H13       1.0  0.50480  0.40020  0.89440  1.0000 0.430917039
H   H14       1.0  0.49520  0.59980  0.10560  1.0000 0.430917039
H   H15       1.0  0.35930  0.44600  0.62350  1.0000 0.4201153139
H   H16       1.0  0.64070  0.55400  0.37650  1.0000 0.4201153139
H   H17       1.0  0.30150  0.34510  0.70670  1.0000 0.4031803752
H   H18       1.0  0.69850  0.65490  0.29330  1.0000 0.4031803752
H   H19       1.0  0.53280  0.48410  0.57360  1.0000 0.3809034372
H   H20       1.0  0.46720  0.51590  0.42640  1.0000 0.3809034372
H   H21       1.0  0.69320  0.43200  0.59130  1.0000 0.4076390261
H   H22       1.0  0.30680  0.56800  0.40870  1.0000 0.4076390261
H   H23       1.0  0.72660  0.20670  0.54500  1.0000 0.4201153139
H   H24       1.0  0.27340  0.79330  0.45500  1.0000 0.4201153139
H   H25       1.0  0.74480  0.05900  0.61380  1.0000 0.430917039
H   H26       1.0  0.25520  0.94100  0.38620  1.0000 0.430917039
C   C1        1.0  0.00180  0.34220  0.84990  1.0000 -0.0199767915
C   C2        1.0  0.99820  0.65780  0.15010  1.0000 -0.0199767915
C   C3        1.0  0.11340  0.31320  0.90640  1.0000 -0.090763413
C   C4        1.0  0.88660  0.68680  0.09360  1.0000 -0.090763413
C   C5        1.0  0.24750  0.21690  0.89550  1.0000 -0.1185181444
C   C6        1.0  0.75250  0.78310  0.10450  1.0000 -0.1185181444
C   C7        1.0  0.26930  0.14130  0.82630  1.0000 -0.0434722329
C   C8        1.0  0.73070  0.85870  0.17370  1.0000 -0.0434722329
C   C9        1.0  0.15250  0.16360  0.77680  1.0000 -0.141952124
C   C10       1.0  0.84750  0.83640  0.22320  1.0000 -0.141952124
C   C11       1.0  0.01940  0.26570  0.78450  1.0000 -0.0343671093
C   C12       1.0  0.98060  0.73430  0.21550  1.0000 -0.0343671093
C   C13       1.0  0.62380  0.99980  0.44980  1.0000 -0.141952124
C   C14       1.0  0.37620  0.00020  0.55020  1.0000 -0.141952124
C   C15       1.0  0.61530  0.87580  0.50370  1.0000 -0.0199767915
C   C16       1.0  0.38470  0.12420  0.49630  1.0000 -0.0199767915
C   C17       1.0  0.49020  0.87520  0.55580  1.0000 -0.0573096504
C   C18       1.0  0.50980  0.12480  0.44420  1.0000 -0.0573096504
C   C19       1.0  0.86420  0.46450  0.85340  1.0000 0.5577379311
C   C20       1.0  0.13580  0.53550  0.14660  1.0000 0.5577379311
C   C21       1.0  0.36030  0.19690  0.95710  1.0000 0.6281306887
C   C22       1.0  0.63970  0.80310  0.04290  1.0000 0.6281306887
C   C23       1.0  0.41000  0.03730  0.80310  1.0000 0.6281306887
C   C24       1.0  0.59000  0.96270  0.19690  1.0000 0.6281306887
C   C25       1.0  0.90010  0.29140  0.72410  1.0000 0.6626095319
C   C26       1.0  0.09990  0.70860  0.27590  1.0000 0.6626095319
C   C27       1.0  0.46860  0.74970  0.61940  1.0000 0.6181993628
C   C28       1.0  0.53140  0.25030  0.38060  1.0000 0.6181993628
C   C29       1.0  0.74310  0.74570  0.50340  1.0000 0.5524131501
C   C30       1.0  0.25690  0.25430  0.49660  1.0000 0.5524131501
O   O1        1.0  0.53790  0.63200  0.94090  1.0000 -0.6689115917
O   O2        1.0  0.46210  0.36800  0.05910  1.0000 -0.6689115917
O   O3        1.0  0.71600  0.79010  0.72930  1.0000 -0.6609054064
O   O4        1.0  0.28400  0.20990  0.27070  1.0000 -0.6609054064
O   O5        1.0  0.06500  0.50210  0.61050  1.0000 -0.6689115917
O   O6        1.0  0.93500  0.49790  0.38950  1.0000 -0.6689115917
O   O7        1.0  0.85250  0.53570  0.90960  1.0000 -0.5531247264
O   O8        1.0  0.14750  0.46430  0.09040  1.0000 -0.5531247264
O   O9        1.0  0.76390  0.49570  0.79890  1.0000 -0.5425921237
O   O10       1.0  0.23610  0.50430  0.20110  1.0000 -0.5425921237
O   O11       1.0  0.82480  0.22950  0.76750  1.0000 -0.6230858421
O   O12       1.0  0.17520  0.77050  0.23250  1.0000 -0.6230858421
O   O13       1.0  0.88930  0.36400  0.62540  1.0000 -0.6093417859
O   O14       1.0  0.11070  0.63600  0.37460  1.0000 -0.6093417859
O   O15       1.0  0.41920  0.91790  0.82330  1.0000 -0.6000393187
O   O16       1.0  0.58080  0.08210  0.17670  1.0000 -0.6000393187
O   O17       1.0  0.50760  0.07120  0.76210  1.0000 -0.6295120572
O   O18       1.0  0.49240  0.92880  0.23790  1.0000 -0.6295120572
O   O19       1.0  0.47940  0.17970  0.92010  1.0000 -0.6000393187
O   O20       1.0  0.52060  0.82030  0.07990  1.0000 -0.6000393187
O   O21       1.0  0.32240  0.20040  0.05370  1.0000 -0.6295120572
O   O22       1.0  0.67760  0.79960  0.94630  1.0000 -0.6295120572
O   O23       1.0  0.50380  0.69660  0.71630  1.0000 -0.6295120572
O   O24       1.0  0.49620  0.30340  0.28370  1.0000 -0.6295120572
O   O25       1.0  0.41420  0.70450  0.57770  1.0000 -0.50811033
O   O26       1.0  0.58580  0.29550  0.42230  1.0000 -0.50811033
O   O27       1.0  0.73290  0.63460  0.53230  1.0000 -0.5531247264
O   O28       1.0  0.26710  0.36540  0.46770  1.0000 -0.5531247264
O   O29       1.0  0.86100  0.74820  0.47700  1.0000 -0.5425921237
O   O30       1.0  0.13900  0.25180  0.52300  1.0000 -0.5425921237
O   O31       1.0  0.77150  0.00520  0.84280  1.0000 -0.8297750806
O   O32       1.0  0.22850  0.99480  0.15720  1.0000 -0.8297750806
O   O33       1.0  0.52940  0.41220  0.82460  1.0000 -0.8523437833
O   O34       1.0  0.47060  0.58780  0.17540  1.0000 -0.8523437833
O   O35       1.0  0.37360  0.36930  0.67900  1.0000 -0.8175160741
O   O36       1.0  0.62640  0.63070  0.32100  1.0000 -0.8175160741
O   O37       1.0  0.61180  0.42180  0.60970  1.0000 -0.8410387193
O   O38       1.0  0.38820  0.57820  0.39030  1.0000 -0.8410387193
O   O39       1.0  0.71430  0.14820  0.60750  1.0000 -0.8410387193
O   O40       1.0  0.28570  0.85180  0.39250  1.0000 -0.8410387193
