# DDEC6 charges by PACMAN v1.1 (https://github.com/mtap-research/PACMAN-charge/)
data_2014[Gd][tfz]3[FSR]1
_chemical_formula_sum              "Gd2 H32 C18 S6 O16"
_cell_length_a       9.1742
_cell_length_b       11.1153
_cell_length_c       11.1714
_cell_angle_alpha    77.009
_cell_angle_beta     68.082
_cell_angle_gamma    78.222

_symmetry_space_group_name_H-M    "P 1"
_symmetry_Int_Tables_number       1

loop_
  _symmetry_equiv_pos_as_xyz
  'x, y, z'

loop_
  _atom_site_type_symbol
  _atom_site_label
  _atom_site_symmetry_multiplicity
  _atom_site_fract_x
  _atom_site_fract_y
  _atom_site_fract_z
  _atom_site_occupancy
  _atom_site_charge
Gd  Gd1       1.0  0.72540  0.51598  0.02028  1.0000 1.9959797555
Gd  Gd2       1.0  0.27460  0.48402  0.97972  1.0000 1.9959797555
H   H1        1.0  0.21460  0.73070  0.70760  1.0000 0.168240405
H   H2        1.0  0.78540  0.26930  0.29240  1.0000 0.168240405
H   H3        1.0  0.07750  0.84120  0.73950  1.0000 0.1532939368
H   H4        1.0  0.92250  0.15880  0.26050  1.0000 0.1532939368
H   H5        1.0  0.05270  0.55430  0.63560  1.0000 0.130190804
H   H6        1.0  0.94730  0.44570  0.36440  1.0000 0.130190804
H   H7        1.0  0.07670  0.58870  0.48650  1.0000 0.1133680934
H   H8        1.0  0.92330  0.41130  0.51350  1.0000 0.1133680934
H   H9        1.0  0.32510  0.54770  0.58860  1.0000 0.1353480214
H   H10       1.0  0.67490  0.45230  0.41140  1.0000 0.1353480214
H   H11       1.0  0.35060  0.58600  0.43870  1.0000 0.130190804
H   H12       1.0  0.64940  0.41400  0.56130  1.0000 0.130190804
H   H13       1.0  0.26540  0.32070  0.33930  1.0000 0.168240405
H   H14       1.0  0.73460  0.67930  0.66070  1.0000 0.168240405
H   H15       1.0  0.20680  0.46260  0.34180  1.0000 0.1532939368
H   H16       1.0  0.79320  0.53740  0.65820  1.0000 0.1532939368
H   H17       1.0  0.87730  0.08470  0.06610  1.0000 0.130190804
H   H18       1.0  0.12270  0.91530  0.93390  1.0000 0.130190804
H   H19       1.0  0.86340  0.94430  0.07580  1.0000 0.1210744226
H   H20       1.0  0.13660  0.05570  0.92420  1.0000 0.1210744226
H   H21       1.0  0.02930  0.18960  0.78120  1.0000 0.1575901502
H   H22       1.0  0.97070  0.81040  0.21880  1.0000 0.1575901502
H   H23       1.0  0.89400  0.22720  0.72160  1.0000 0.1575901502
H   H24       1.0  0.10600  0.77280  0.27840  1.0000 0.1575901502
H   H25       1.0  0.46400  0.71200  0.03900  1.0000 0.3111591631
H   H26       1.0  0.53600  0.28800  0.96100  1.0000 0.3111591631
H   H27       1.0  0.86000  0.62000  0.16500  1.0000 0.2990453535
H   H28       1.0  0.14000  0.38000  0.83500  1.0000 0.2990453535
H   H29       1.0  0.72800  0.68300  0.19300  1.0000 0.2428756201
H   H30       1.0  0.27200  0.31700  0.80700  1.0000 0.2428756201
H   H31       1.0  0.54700  0.74800  0.09100  1.0000 0.2806251937
H   H32       1.0  0.45300  0.25200  0.90900  1.0000 0.2806251937
C   C1        1.0  0.00600  0.67280  0.83330  1.0000 0.6945986444
C   C2        1.0  0.99400  0.32720  0.16670  1.0000 0.6945986444
C   C3        1.0  0.10350  0.75750  0.71880  1.0000 -0.3811742272
C   C4        1.0  0.89650  0.24250  0.28120  1.0000 -0.374973864
C   C5        1.0  0.11440  0.59950  0.55320  1.0000 -0.2177329964
C   C6        1.0  0.88560  0.40050  0.44680  1.0000 -0.2177329964
C   C7        1.0  0.28670  0.54130  0.52060  1.0000 -0.2026144049
C   C8        1.0  0.71330  0.45870  0.47940  1.0000 -0.2026144049
C   C9        1.0  0.29320  0.39740  0.34740  1.0000 -0.3811742272
C   C10       1.0  0.70680  0.60260  0.65260  1.0000 -0.3811742272
C   C11       1.0  0.43890  0.42830  0.23270  1.0000 0.6793713266
C   C12       1.0  0.56110  0.57170  0.76730  1.0000 0.6793713266
C   C13       1.0  0.91280  0.01530  0.01820  1.0000 -0.2138707942
C   C14       1.0  0.08720  0.98470  0.98180  1.0000 -0.2138707942
C   C15       1.0  0.91510  0.20130  0.80310  1.0000 -0.385938496
C   C16       1.0  0.08490  0.79870  0.19690  1.0000 -0.385938496
C   C17       1.0  0.84580  0.30740  0.88190  1.0000 0.6250244075
C   C18       1.0  0.15420  0.69260  0.11810  1.0000 0.6250244075
S   S1        1.0  0.84780  0.05570  0.87611  1.0000 -0.0033005541
S   S2        1.0  0.15220  0.94430  0.12389  1.0000 -0.0033005541
S   S3        1.0  0.30642  0.37908  0.50674  1.0000 -0.0078241324
S   S4        1.0  0.69358  0.62092  0.49326  1.0000 -0.0078241324
S   S5        1.0  0.07667  0.76291  0.56563  1.0000 0.016856938
S   S6        1.0  0.92333  0.23709  0.43437  1.0000 0.016856938
O   O1        1.0  0.91230  0.40510  0.83770  1.0000 -0.6056363291
O   O2        1.0  0.08770  0.59490  0.16230  1.0000 -0.6056363291
O   O3        1.0  0.72940  0.29850  0.98420  1.0000 -0.5650808519
O   O4        1.0  0.27060  0.70150  0.01580  1.0000 -0.5650808519
O   O5        1.0  0.56770  0.43190  0.24450  1.0000 -0.6005100614
O   O6        1.0  0.43230  0.56810  0.75550  1.0000 -0.6005100614
O   O7        1.0  0.86350  0.67250  0.85160  1.0000 -0.6327318704
O   O8        1.0  0.13650  0.32750  0.14840  1.0000 -0.6327318704
O   O9        1.0  0.78000  0.62730  0.15880  1.0000 -0.6606697447
O   O10       1.0  0.22000  0.37270  0.84120  1.0000 -0.6606697447
O   O11       1.0  0.07510  0.60520  0.90740  1.0000 -0.6728079623
O   O12       1.0  0.92490  0.39480  0.09260  1.0000 -0.6728079623
O   O13       1.0  0.53940  0.70140  0.06150  1.0000 -0.6327318704
O   O14       1.0  0.46060  0.29860  0.93850  1.0000 -0.6327318704
O   O15       1.0  0.42500  0.45320  0.12140  1.0000 -0.7034499949
O   O16       1.0  0.57500  0.54680  0.87860  1.0000 -0.7034499949
