# DDEC6 charges by PACMAN v1.1 (https://github.com/mtap-research/PACMAN-charge/)
data_2014[Cd][nan]3[FSR]13
_chemical_formula_sum              "Cd12 H136 C184 N32 O48"
_cell_length_a       9.8536
_cell_length_b       9.8536
_cell_length_c       48.8865
_cell_angle_alpha    90
_cell_angle_beta     90
_cell_angle_gamma    90

_symmetry_space_group_name_H-M    "P 1"
_symmetry_Int_Tables_number       1

loop_
  _symmetry_equiv_pos_as_xyz
  'x, y, z'

loop_
  _atom_site_type_symbol
  _atom_site_label
  _atom_site_symmetry_multiplicity
  _atom_site_fract_x
  _atom_site_fract_y
  _atom_site_fract_z
  _atom_site_occupancy
  _atom_site_charge
Cd  Cd1       1.0  0.69472  0.30528  0.25000  1.0000 0.93581822
Cd  Cd2       1.0  0.19472  0.19472  0.50000  1.0000 0.93581822
Cd  Cd3       1.0  0.30528  0.69472  0.75000  1.0000 0.93581822
Cd  Cd4       1.0  0.80528  0.80528  0.00000  1.0000 0.93581822
Cd  Cd5       1.0  0.75151  0.80887  0.07767  1.0000 0.8972905972
Cd  Cd6       1.0  0.69113  0.25151  0.32767  1.0000 0.8972905972
Cd  Cd7       1.0  0.24849  0.19113  0.57767  1.0000 0.8972905972
Cd  Cd8       1.0  0.30887  0.74849  0.82767  1.0000 0.8972905972
Cd  Cd9       1.0  0.25151  0.69113  0.67233  1.0000 0.8972905972
Cd  Cd10      1.0  0.80887  0.75151  0.92233  1.0000 0.8972905972
Cd  Cd11      1.0  0.74849  0.30887  0.17233  1.0000 0.8972905972
Cd  Cd12      1.0  0.19113  0.24849  0.42233  1.0000 0.8972905972
H   H1        1.0  0.70230  0.59490  0.16860  1.0000 0.1220024496
H   H2        1.0  0.90510  0.20230  0.41860  1.0000 0.1220024496
H   H3        1.0  0.29770  0.40510  0.66860  1.0000 0.1220024496
H   H4        1.0  0.09490  0.79770  0.91860  1.0000 0.1220024496
H   H5        1.0  0.20230  0.90510  0.58140  1.0000 0.1220024496
H   H6        1.0  0.59490  0.70230  0.83140  1.0000 0.1220024496
H   H7        1.0  0.79770  0.09490  0.08140  1.0000 0.1220024496
H   H8        1.0  0.40510  0.29770  0.33140  1.0000 0.1220024496
H   H9        1.0  0.69760  0.80860  0.23890  1.0000 0.1129298158
H   H10       1.0  0.69140  0.19760  0.48890  1.0000 0.1129298158
H   H11       1.0  0.30240  0.19140  0.73890  1.0000 0.1129298158
H   H12       1.0  0.30860  0.80240  0.98890  1.0000 0.1129298158
H   H13       1.0  0.19760  0.69140  0.51110  1.0000 0.1129298158
H   H14       1.0  0.80860  0.69760  0.76110  1.0000 0.1129298158
H   H15       1.0  0.80240  0.30860  0.01110  1.0000 0.1129298158
H   H16       1.0  0.19140  0.30240  0.26110  1.0000 0.1129298158
H   H17       1.0  0.75660  0.99860  0.16740  1.0000 0.1290713639
H   H18       1.0  0.50140  0.25660  0.41740  1.0000 0.1290713639
H   H19       1.0  0.24340  0.00140  0.66740  1.0000 0.1290713639
H   H20       1.0  0.49860  0.74340  0.91740  1.0000 0.1290713639
H   H21       1.0  0.25660  0.50140  0.58260  1.0000 0.1290713639
H   H22       1.0  0.99860  0.75660  0.83260  1.0000 0.1290713639
H   H23       1.0  0.74340  0.49860  0.08260  1.0000 0.1290713639
H   H24       1.0  0.00140  0.24340  0.33260  1.0000 0.1290713639
H   H25       1.0  0.47760  0.46250  0.03790  1.0000 0.1290713639
H   H26       1.0  0.03750  0.97760  0.28790  1.0000 0.1290713639
H   H27       1.0  0.52240  0.53750  0.53790  1.0000 0.1290713639
H   H28       1.0  0.96250  0.02240  0.78790  1.0000 0.1290713639
H   H29       1.0  0.97760  0.03750  0.71210  1.0000 0.1290713639
H   H30       1.0  0.46250  0.47760  0.96210  1.0000 0.1290713639
H   H31       1.0  0.02240  0.96250  0.21210  1.0000 0.1290713639
H   H32       1.0  0.53750  0.52240  0.46210  1.0000 0.1290713639
H   H33       1.0  0.47930  0.22600  0.03530  1.0000 0.1290713639
H   H34       1.0  0.27400  0.97930  0.28530  1.0000 0.1290713639
H   H35       1.0  0.52070  0.77400  0.53530  1.0000 0.1290713639
H   H36       1.0  0.72600  0.02070  0.78530  1.0000 0.1290713639
H   H37       1.0  0.97930  0.27400  0.71470  1.0000 0.1290713639
H   H38       1.0  0.22600  0.47930  0.96470  1.0000 0.1290713639
H   H39       1.0  0.02070  0.72600  0.21470  1.0000 0.1290713639
H   H40       1.0  0.77400  0.52070  0.46470  1.0000 0.1290713639
H   H41       1.0  0.08250  0.22380  0.04370  1.0000 0.1220024496
H   H42       1.0  0.27620  0.58250  0.29370  1.0000 0.1220024496
H   H43       1.0  0.91750  0.77620  0.54370  1.0000 0.1220024496
H   H44       1.0  0.72380  0.41750  0.79370  1.0000 0.1220024496
H   H45       1.0  0.58250  0.27620  0.70630  1.0000 0.1220024496
H   H46       1.0  0.22380  0.08250  0.95630  1.0000 0.1220024496
H   H47       1.0  0.41750  0.72380  0.20630  1.0000 0.1220024496
H   H48       1.0  0.77620  0.91750  0.45630  1.0000 0.1220024496
H   H49       1.0  0.08610  0.45640  0.04860  1.0000 0.1220024496
H   H50       1.0  0.04360  0.58610  0.29860  1.0000 0.1220024496
H   H51       1.0  0.91390  0.54360  0.54860  1.0000 0.1220024496
H   H52       1.0  0.95640  0.41390  0.79860  1.0000 0.1220024496
H   H53       1.0  0.58610  0.04360  0.70140  1.0000 0.1220024496
H   H54       1.0  0.45640  0.08610  0.95140  1.0000 0.1220024496
H   H55       1.0  0.41390  0.95640  0.20140  1.0000 0.1220024496
H   H56       1.0  0.54360  0.91390  0.45140  1.0000 0.1220024496
H   H57       1.0  0.36810  0.65220  0.06350  1.0000 0.1290713639
H   H58       1.0  0.84780  0.86810  0.31350  1.0000 0.1290713639
H   H59       1.0  0.63190  0.34780  0.56350  1.0000 0.1290713639
H   H60       1.0  0.15220  0.13190  0.81350  1.0000 0.1290713639
H   H61       1.0  0.86810  0.84780  0.68650  1.0000 0.1290713639
H   H62       1.0  0.65220  0.36810  0.93650  1.0000 0.1290713639
H   H63       1.0  0.13190  0.15220  0.18650  1.0000 0.1290713639
H   H64       1.0  0.34780  0.63190  0.43650  1.0000 0.1290713639
H   H65       1.0  0.28730  0.68330  0.03660  1.0000 0.1290713639
H   H66       1.0  0.81670  0.78730  0.28660  1.0000 0.1290713639
H   H67       1.0  0.71270  0.31670  0.53660  1.0000 0.1290713639
H   H68       1.0  0.18330  0.21270  0.78660  1.0000 0.1290713639
H   H69       1.0  0.78730  0.81670  0.71340  1.0000 0.1290713639
H   H70       1.0  0.68330  0.28730  0.96340  1.0000 0.1290713639
H   H71       1.0  0.21270  0.18330  0.21340  1.0000 0.1290713639
H   H72       1.0  0.31670  0.71270  0.46340  1.0000 0.1290713639
H   H73       1.0  0.22170  0.60990  0.10890  1.0000 0.1290713639
H   H74       1.0  0.89010  0.72170  0.35890  1.0000 0.1290713639
H   H75       1.0  0.77830  0.39010  0.60890  1.0000 0.1290713639
H   H76       1.0  0.10990  0.27830  0.85890  1.0000 0.1290713639
H   H77       1.0  0.72170  0.89010  0.64110  1.0000 0.1290713639
H   H78       1.0  0.60990  0.22170  0.89110  1.0000 0.1290713639
H   H79       1.0  0.27830  0.10990  0.14110  1.0000 0.1290713639
H   H80       1.0  0.39010  0.77830  0.39110  1.0000 0.1290713639
H   H81       1.0  0.99350  0.68310  0.12200  1.0000 0.1290713639
H   H82       1.0  0.81690  0.49350  0.37200  1.0000 0.1290713639
H   H83       1.0  0.00650  0.31690  0.62200  1.0000 0.1290713639
H   H84       1.0  0.18310  0.50650  0.87200  1.0000 0.1290713639
H   H85       1.0  0.49350  0.81690  0.62800  1.0000 0.1290713639
H   H86       1.0  0.68310  0.99350  0.87800  1.0000 0.1290713639
H   H87       1.0  0.50650  0.18310  0.12800  1.0000 0.1290713639
H   H88       1.0  0.31690  0.00650  0.37800  1.0000 0.1290713639
H   H89       1.0  0.03980  0.75240  0.04350  1.0000 0.1220024496
H   H90       1.0  0.74760  0.53980  0.29350  1.0000 0.1220024496
H   H91       1.0  0.96020  0.24760  0.54350  1.0000 0.1220024496
H   H92       1.0  0.25240  0.46020  0.79350  1.0000 0.1220024496
H   H93       1.0  0.53980  0.74760  0.70650  1.0000 0.1220024496
H   H94       1.0  0.75240  0.03980  0.95650  1.0000 0.1220024496
H   H95       1.0  0.46020  0.25240  0.20650  1.0000 0.1220024496
H   H96       1.0  0.24760  0.96020  0.45650  1.0000 0.1220024496
H   H97       1.0  0.18680  0.01730  0.03530  1.0000 0.1290713639
H   H98       1.0  0.48270  0.68680  0.28530  1.0000 0.1290713639
H   H99       1.0  0.81320  0.98270  0.53530  1.0000 0.1290713639
H   H100      1.0  0.51730  0.31320  0.78530  1.0000 0.1290713639
H   H101      1.0  0.68680  0.48270  0.71470  1.0000 0.1290713639
H   H102      1.0  0.01730  0.18680  0.96470  1.0000 0.1290713639
H   H103      1.0  0.31320  0.51730  0.21470  1.0000 0.1290713639
H   H104      1.0  0.98270  0.81320  0.46470  1.0000 0.1290713639
H   H105      1.0  0.31190  0.02760  0.01560  1.0000 0.1290713639
H   H106      1.0  0.47240  0.81190  0.26560  1.0000 0.1290713639
H   H107      1.0  0.68810  0.97240  0.51560  1.0000 0.1290713639
H   H108      1.0  0.52760  0.18810  0.76560  1.0000 0.1290713639
H   H109      1.0  0.81190  0.47240  0.73440  1.0000 0.1290713639
H   H110      1.0  0.02760  0.31190  0.98440  1.0000 0.1290713639
H   H111      1.0  0.18810  0.52760  0.23440  1.0000 0.1290713639
H   H112      1.0  0.97240  0.68810  0.48440  1.0000 0.1290713639
H   H113      1.0  0.25300  0.00430  0.08970  1.0000 0.1290713639
H   H114      1.0  0.49570  0.75300  0.33970  1.0000 0.1290713639
H   H115      1.0  0.74700  0.99570  0.58970  1.0000 0.1290713639
H   H116      1.0  0.50430  0.24700  0.83970  1.0000 0.1290713639
H   H117      1.0  0.75300  0.49570  0.66030  1.0000 0.1290713639
H   H118      1.0  0.00430  0.25300  0.91030  1.0000 0.1290713639
H   H119      1.0  0.24700  0.50430  0.16030  1.0000 0.1290713639
H   H120      1.0  0.99570  0.74700  0.41030  1.0000 0.1290713639
H   H121      1.0  0.45750  0.90440  0.11070  1.0000 0.1220024496
H   H122      1.0  0.59560  0.95750  0.36070  1.0000 0.1220024496
H   H123      1.0  0.54250  0.09560  0.61070  1.0000 0.1220024496
H   H124      1.0  0.40440  0.04250  0.86070  1.0000 0.1220024496
H   H125      1.0  0.95750  0.59560  0.63930  1.0000 0.1220024496
H   H126      1.0  0.90440  0.45750  0.88930  1.0000 0.1220024496
H   H127      1.0  0.04250  0.40440  0.13930  1.0000 0.1220024496
H   H128      1.0  0.09560  0.54250  0.38930  1.0000 0.1220024496
H   H129      1.0  0.52830  0.92880  0.03300  1.0000 0.1220024496
H   H130      1.0  0.57120  0.02830  0.28300  1.0000 0.1220024496
H   H131      1.0  0.47170  0.07120  0.53300  1.0000 0.1220024496
H   H132      1.0  0.42880  0.97170  0.78300  1.0000 0.1220024496
H   H133      1.0  0.02830  0.57120  0.71700  1.0000 0.1220024496
H   H134      1.0  0.92880  0.52830  0.96700  1.0000 0.1220024496
H   H135      1.0  0.97170  0.42880  0.21700  1.0000 0.1220024496
H   H136      1.0  0.07120  0.47170  0.46700  1.0000 0.1220024496
C   C1        1.0  0.72130  0.80170  0.16290  1.0000 -0.0273949909
C   C2        1.0  0.69830  0.22130  0.41290  1.0000 -0.0273949909
C   C3        1.0  0.27870  0.19830  0.66290  1.0000 -0.0273949909
C   C4        1.0  0.30170  0.77870  0.91290  1.0000 -0.0273949909
C   C5        1.0  0.22130  0.69830  0.58710  1.0000 -0.0273949909
C   C6        1.0  0.80170  0.72130  0.83710  1.0000 -0.0273949909
C   C7        1.0  0.77870  0.30170  0.08710  1.0000 -0.0273949909
C   C8        1.0  0.19830  0.27870  0.33710  1.0000 -0.0273949909
C   C9        1.0  0.70720  0.67730  0.17790  1.0000 -0.1216395828
C   C10       1.0  0.82270  0.20720  0.42790  1.0000 -0.1216395828
C   C11       1.0  0.29280  0.32270  0.67790  1.0000 -0.1216395828
C   C12       1.0  0.17730  0.79280  0.92790  1.0000 -0.1216395828
C   C13       1.0  0.20720  0.82270  0.57210  1.0000 -0.1216395828
C   C14       1.0  0.67730  0.70720  0.82210  1.0000 -0.1216395828
C   C15       1.0  0.79280  0.17730  0.07210  1.0000 -0.1216395828
C   C16       1.0  0.32270  0.29280  0.32210  1.0000 -0.1216395828
C   C17       1.0  0.70080  0.68060  0.20650  1.0000 -0.0472469875
C   C18       1.0  0.81940  0.20080  0.45650  1.0000 -0.0472469875
C   C19       1.0  0.29920  0.31940  0.70650  1.0000 -0.0472469875
C   C20       1.0  0.18060  0.79920  0.95650  1.0000 -0.0472469875
C   C21       1.0  0.20080  0.81940  0.54350  1.0000 -0.0472469875
C   C22       1.0  0.68060  0.70080  0.79350  1.0000 -0.0472469875
C   C23       1.0  0.79920  0.18060  0.04350  1.0000 -0.0472469875
C   C24       1.0  0.31940  0.29920  0.29350  1.0000 -0.0472469875
C   C25       1.0  0.70560  0.80540  0.22000  1.0000 -0.1409886689
C   C26       1.0  0.69460  0.20560  0.47000  1.0000 -0.1409886689
C   C27       1.0  0.29440  0.19460  0.72000  1.0000 -0.1409886689
C   C28       1.0  0.30540  0.79440  0.97000  1.0000 -0.1409886689
C   C29       1.0  0.20560  0.69460  0.53000  1.0000 -0.1409886689
C   C30       1.0  0.80540  0.70560  0.78000  1.0000 -0.1409886689
C   C31       1.0  0.79440  0.30540  0.03000  1.0000 -0.1409886689
C   C32       1.0  0.19460  0.29440  0.28000  1.0000 -0.1409886689
C   C33       1.0  0.72240  0.92700  0.20490  1.0000 -0.0360348691
C   C34       1.0  0.57300  0.22240  0.45490  1.0000 -0.0360348691
C   C35       1.0  0.27760  0.07300  0.70490  1.0000 -0.0360348691
C   C36       1.0  0.42700  0.77760  0.95490  1.0000 -0.0360348691
C   C37       1.0  0.22240  0.57300  0.54510  1.0000 -0.0360348691
C   C38       1.0  0.92700  0.72240  0.79510  1.0000 -0.0360348691
C   C39       1.0  0.77760  0.42700  0.04510  1.0000 -0.0360348691
C   C40       1.0  0.07300  0.27760  0.29510  1.0000 -0.0360348691
C   C41       1.0  0.73620  0.91980  0.17700  1.0000 -0.100698439
C   C42       1.0  0.58020  0.23620  0.42700  1.0000 -0.100698439
C   C43       1.0  0.26380  0.08020  0.67700  1.0000 -0.100698439
C   C44       1.0  0.41980  0.76380  0.92700  1.0000 -0.100698439
C   C45       1.0  0.23620  0.58020  0.57300  1.0000 -0.100698439
C   C46       1.0  0.91980  0.73620  0.82300  1.0000 -0.100698439
C   C47       1.0  0.76380  0.41980  0.07300  1.0000 -0.100698439
C   C48       1.0  0.08020  0.26380  0.32300  1.0000 -0.100698439
C   C49       1.0  0.72990  0.79960  0.13290  1.0000 0.5337019213
C   C50       1.0  0.70040  0.22990  0.38290  1.0000 0.5337019213
C   C51       1.0  0.27010  0.20040  0.63290  1.0000 0.5337019213
C   C52       1.0  0.29960  0.77010  0.88290  1.0000 0.5337019213
C   C53       1.0  0.22990  0.70040  0.61710  1.0000 0.5337019213
C   C54       1.0  0.79960  0.72990  0.86710  1.0000 0.5337019213
C   C55       1.0  0.77010  0.29960  0.11710  1.0000 0.5337019213
C   C56       1.0  0.20040  0.27010  0.36710  1.0000 0.5337019213
C   C57       1.0  0.69020  0.55320  0.22220  1.0000 0.5576315619
C   C58       1.0  0.94680  0.19020  0.47220  1.0000 0.5576315619
C   C59       1.0  0.30980  0.44680  0.72220  1.0000 0.5576315619
C   C60       1.0  0.05320  0.80980  0.97220  1.0000 0.5576315619
C   C61       1.0  0.19020  0.94680  0.52780  1.0000 0.5576315619
C   C62       1.0  0.55320  0.69020  0.77780  1.0000 0.5576315619
C   C63       1.0  0.80980  0.05320  0.02780  1.0000 0.5576315619
C   C64       1.0  0.44680  0.30980  0.27780  1.0000 0.5576315619
C   C65       1.0  0.72580  0.05960  0.21960  1.0000 0.542279432
C   C66       1.0  0.44040  0.22580  0.46960  1.0000 0.542279432
C   C67       1.0  0.27420  0.94040  0.71960  1.0000 0.542279432
C   C68       1.0  0.55960  0.77420  0.96960  1.0000 0.542279432
C   C69       1.0  0.22580  0.44040  0.53040  1.0000 0.542279432
C   C70       1.0  0.05960  0.72580  0.78040  1.0000 0.542279432
C   C71       1.0  0.77420  0.55960  0.03040  1.0000 0.542279432
C   C72       1.0  0.94040  0.27420  0.28040  1.0000 0.542279432
C   C73       1.0  0.28320  0.47580  0.04650  1.0000 0.0864201635
C   C74       1.0  0.02420  0.78320  0.29650  1.0000 0.0864201635
C   C75       1.0  0.71680  0.52420  0.54650  1.0000 0.0864201635
C   C76       1.0  0.97580  0.21680  0.79650  1.0000 0.0864201635
C   C77       1.0  0.78320  0.02420  0.70350  1.0000 0.0864201635
C   C78       1.0  0.47580  0.28320  0.95350  1.0000 0.0864201635
C   C79       1.0  0.21680  0.97580  0.20350  1.0000 0.0864201635
C   C80       1.0  0.52420  0.71680  0.45350  1.0000 0.0864201635
C   C81       1.0  0.39800  0.41300  0.04030  1.0000 -0.1409886689
C   C82       1.0  0.08700  0.89800  0.29030  1.0000 -0.1409886689
C   C83       1.0  0.60200  0.58700  0.54030  1.0000 -0.1409886689
C   C84       1.0  0.91300  0.10200  0.79030  1.0000 -0.1409886689
C   C85       1.0  0.89800  0.08700  0.70970  1.0000 -0.1409886689
C   C86       1.0  0.41300  0.39800  0.95970  1.0000 -0.1409886689
C   C87       1.0  0.10200  0.91300  0.20970  1.0000 -0.1409886689
C   C88       1.0  0.58700  0.60200  0.45970  1.0000 -0.1409886689
C   C89       1.0  0.39800  0.27200  0.03730  1.0000 -0.1409886689
C   C90       1.0  0.22800  0.89800  0.28730  1.0000 -0.1409886689
C   C91       1.0  0.60200  0.72800  0.53730  1.0000 -0.1409886689
C   C92       1.0  0.77200  0.10200  0.78730  1.0000 -0.1409886689
C   C93       1.0  0.89800  0.22800  0.71270  1.0000 -0.1409886689
C   C94       1.0  0.27200  0.39800  0.96270  1.0000 -0.1409886689
C   C95       1.0  0.10200  0.77200  0.21270  1.0000 -0.1409886689
C   C96       1.0  0.72800  0.60200  0.46270  1.0000 -0.1409886689
C   C97       1.0  0.28030  0.20400  0.03730  1.0000 0.0864201635
C   C98       1.0  0.29600  0.78030  0.28730  1.0000 0.0864201635
C   C99       1.0  0.71970  0.79600  0.53730  1.0000 0.0864201635
C   C100      1.0  0.70400  0.21970  0.78730  1.0000 0.0864201635
C   C101      1.0  0.78030  0.29600  0.71270  1.0000 0.0864201635
C   C102      1.0  0.20400  0.28030  0.96270  1.0000 0.0864201635
C   C103      1.0  0.21970  0.70400  0.21270  1.0000 0.0864201635
C   C104      1.0  0.79600  0.71970  0.46270  1.0000 0.0864201635
C   C105      1.0  0.16420  0.27080  0.04260  1.0000 -0.1482525073
C   C106      1.0  0.22920  0.66420  0.29260  1.0000 -0.1482525073
C   C107      1.0  0.83580  0.72920  0.54260  1.0000 -0.1482525073
C   C108      1.0  0.77080  0.33580  0.79260  1.0000 -0.1482525073
C   C109      1.0  0.66420  0.22920  0.70740  1.0000 -0.1482525073
C   C110      1.0  0.27080  0.16420  0.95740  1.0000 -0.1482525073
C   C111      1.0  0.33580  0.77080  0.20740  1.0000 -0.1482525073
C   C112      1.0  0.72920  0.83580  0.45740  1.0000 -0.1482525073
C   C113      1.0  0.16700  0.40900  0.04620  1.0000 -0.1409886689
C   C114      1.0  0.09100  0.66700  0.29620  1.0000 -0.1409886689
C   C115      1.0  0.83300  0.59100  0.54620  1.0000 -0.1409886689
C   C116      1.0  0.90900  0.33300  0.79620  1.0000 -0.1409886689
C   C117      1.0  0.66700  0.09100  0.70380  1.0000 -0.1409886689
C   C118      1.0  0.40900  0.16700  0.95380  1.0000 -0.1409886689
C   C119      1.0  0.33300  0.90900  0.20380  1.0000 -0.1409886689
C   C120      1.0  0.59100  0.83300  0.45380  1.0000 -0.1409886689
C   C121      1.0  0.28570  0.63160  0.05350  1.0000 -0.1409886689
C   C122      1.0  0.86840  0.78570  0.30350  1.0000 -0.1409886689
C   C123      1.0  0.71430  0.36840  0.55350  1.0000 -0.1409886689
C   C124      1.0  0.13160  0.21430  0.80350  1.0000 -0.1409886689
C   C125      1.0  0.78570  0.86840  0.69650  1.0000 -0.1409886689
C   C126      1.0  0.63160  0.28570  0.94650  1.0000 -0.1409886689
C   C127      1.0  0.21430  0.13160  0.19650  1.0000 -0.1409886689
C   C128      1.0  0.36840  0.71430  0.44650  1.0000 -0.1409886689
C   C129      1.0  0.15700  0.64700  0.09730  1.0000 -0.1409886689
C   C130      1.0  0.85300  0.65700  0.34730  1.0000 -0.1409886689
C   C131      1.0  0.84300  0.35300  0.59730  1.0000 -0.1409886689
C   C132      1.0  0.14700  0.34300  0.84730  1.0000 -0.1409886689
C   C133      1.0  0.65700  0.85300  0.65270  1.0000 -0.1409886689
C   C134      1.0  0.64700  0.15700  0.90270  1.0000 -0.1409886689
C   C135      1.0  0.34300  0.14700  0.15270  1.0000 -0.1409886689
C   C136      1.0  0.35300  0.84300  0.40270  1.0000 -0.1409886689
C   C137      1.0  0.03090  0.68800  0.10450  1.0000 -0.0193367539
C   C138      1.0  0.81200  0.53090  0.35450  1.0000 -0.0193367539
C   C139      1.0  0.96910  0.31200  0.60450  1.0000 -0.0193367539
C   C140      1.0  0.18800  0.46910  0.85450  1.0000 -0.0193367539
C   C141      1.0  0.53090  0.81200  0.64550  1.0000 -0.0193367539
C   C142      1.0  0.68800  0.03090  0.89550  1.0000 -0.0193367539
C   C143      1.0  0.46910  0.18800  0.14550  1.0000 -0.0193367539
C   C144      1.0  0.31200  0.96910  0.39550  1.0000 -0.0193367539
C   C145      1.0  0.05740  0.72560  0.06140  1.0000 0.0958854057
C   C146      1.0  0.77440  0.55740  0.31140  1.0000 0.0958854057
C   C147      1.0  0.94260  0.27440  0.56140  1.0000 0.0958854057
C   C148      1.0  0.22560  0.44260  0.81140  1.0000 0.0958854057
C   C149      1.0  0.55740  0.77440  0.68860  1.0000 0.0958854057
C   C150      1.0  0.72560  0.05740  0.93860  1.0000 0.0958854057
C   C151      1.0  0.44260  0.22560  0.18860  1.0000 0.0958854057
C   C152      1.0  0.27440  0.94260  0.43860  1.0000 0.0958854057
C   C153      1.0  0.27900  0.05000  0.03370  1.0000 -0.1653124146
C   C154      1.0  0.45000  0.77900  0.28370  1.0000 -0.1653124146
C   C155      1.0  0.72100  0.95000  0.53370  1.0000 -0.1653124146
C   C156      1.0  0.55000  0.22100  0.78370  1.0000 -0.1653124146
C   C157      1.0  0.77900  0.45000  0.71630  1.0000 -0.1653124146
C   C158      1.0  0.05000  0.27900  0.96630  1.0000 -0.1653124146
C   C159      1.0  0.22100  0.55000  0.21630  1.0000 -0.1653124146
C   C160      1.0  0.95000  0.72100  0.46630  1.0000 -0.1653124146
C   C161      1.0  0.33200  0.97700  0.08090  1.0000 -0.1252934426
C   C162      1.0  0.52300  0.83200  0.33090  1.0000 -0.1252934426
C   C163      1.0  0.66800  0.02300  0.58090  1.0000 -0.1252934426
C   C164      1.0  0.47700  0.16800  0.83090  1.0000 -0.1252934426
C   C165      1.0  0.83200  0.52300  0.66910  1.0000 -0.1252934426
C   C166      1.0  0.97700  0.33200  0.91910  1.0000 -0.1252934426
C   C167      1.0  0.16800  0.47700  0.16910  1.0000 -0.1252934426
C   C168      1.0  0.02300  0.66800  0.41910  1.0000 -0.1252934426
C   C169      1.0  0.44700  0.92000  0.09200  1.0000 -0.0193367539
C   C170      1.0  0.58000  0.94700  0.34200  1.0000 -0.0193367539
C   C171      1.0  0.55300  0.08000  0.59200  1.0000 -0.0193367539
C   C172      1.0  0.42000  0.05300  0.84200  1.0000 -0.0193367539
C   C173      1.0  0.94700  0.58000  0.65800  1.0000 -0.0193367539
C   C174      1.0  0.92000  0.44700  0.90800  1.0000 -0.0193367539
C   C175      1.0  0.05300  0.42000  0.15800  1.0000 -0.0193367539
C   C176      1.0  0.08000  0.55300  0.40800  1.0000 -0.0193367539
C   C177      1.0  0.48580  0.93320  0.04990  1.0000 0.0716136083
C   C178      1.0  0.56680  0.98580  0.29990  1.0000 0.0716136083
C   C179      1.0  0.51420  0.06680  0.54990  1.0000 0.0716136083
C   C180      1.0  0.43320  0.01420  0.79990  1.0000 0.0716136083
C   C181      1.0  0.98580  0.56680  0.70010  1.0000 0.0716136083
C   C182      1.0  0.93320  0.48580  0.95010  1.0000 0.0716136083
C   C183      1.0  0.01420  0.43320  0.20010  1.0000 0.0716136083
C   C184      1.0  0.06680  0.51420  0.45010  1.0000 0.0716136083
N   N1        1.0  0.96800  0.73800  0.08160  1.0000 -0.3028310738
N   N2        1.0  0.76200  0.46800  0.33160  1.0000 -0.3028310738
N   N3        1.0  0.03200  0.26200  0.58160  1.0000 -0.3028310738
N   N4        1.0  0.23800  0.53200  0.83160  1.0000 -0.3028310738
N   N5        1.0  0.46800  0.76200  0.66840  1.0000 -0.3028310738
N   N6        1.0  0.73800  0.96800  0.91840  1.0000 -0.3028310738
N   N7        1.0  0.53200  0.23800  0.16840  1.0000 -0.3028310738
N   N8        1.0  0.26200  0.03200  0.41840  1.0000 -0.3028310738
N   N9        1.0  0.17270  0.67180  0.06920  1.0000 0.0392444864
N   N10       1.0  0.82820  0.67270  0.31920  1.0000 0.0392444864
N   N11       1.0  0.82730  0.32820  0.56920  1.0000 0.0392444864
N   N12       1.0  0.17180  0.32730  0.81920  1.0000 0.0392444864
N   N13       1.0  0.67270  0.82820  0.68080  1.0000 0.0392444864
N   N14       1.0  0.67180  0.17270  0.93080  1.0000 0.0392444864
N   N15       1.0  0.32730  0.17180  0.18080  1.0000 0.0392444864
N   N16       1.0  0.32820  0.82730  0.43080  1.0000 0.0392444864
N   N17       1.0  0.54330  0.88980  0.07350  1.0000 -0.308189103
N   N18       1.0  0.61020  0.04330  0.32350  1.0000 -0.308189103
N   N19       1.0  0.45670  0.11020  0.57350  1.0000 -0.308189103
N   N20       1.0  0.38980  0.95670  0.82350  1.0000 -0.308189103
N   N21       1.0  0.04330  0.61020  0.67650  1.0000 -0.308189103
N   N22       1.0  0.88980  0.54330  0.92650  1.0000 -0.308189103
N   N23       1.0  0.95670  0.38980  0.17650  1.0000 -0.308189103
N   N24       1.0  0.11020  0.45670  0.42650  1.0000 -0.308189103
N   N25       1.0  0.36220  0.98260  0.05370  1.0000 0.0392444864
N   N26       1.0  0.51740  0.86220  0.30370  1.0000 0.0392444864
N   N27       1.0  0.63780  0.01740  0.55370  1.0000 0.0392444864
N   N28       1.0  0.48260  0.13780  0.80370  1.0000 0.0392444864
N   N29       1.0  0.86220  0.51740  0.69630  1.0000 0.0392444864
N   N30       1.0  0.98260  0.36220  0.94630  1.0000 0.0392444864
N   N31       1.0  0.13780  0.48260  0.19630  1.0000 0.0392444864
N   N32       1.0  0.01740  0.63780  0.44630  1.0000 0.0392444864
O   O1        1.0  0.67990  0.70360  0.11925  1.0000 -0.5374674811
O   O2        1.0  0.79640  0.17990  0.36925  1.0000 -0.5374674811
O   O3        1.0  0.32010  0.29640  0.61925  1.0000 -0.5374674811
O   O4        1.0  0.20360  0.82010  0.86925  1.0000 -0.5374674811
O   O5        1.0  0.17990  0.79640  0.63075  1.0000 -0.5374674811
O   O6        1.0  0.70360  0.67990  0.88075  1.0000 -0.5374674811
O   O7        1.0  0.82010  0.20360  0.13075  1.0000 -0.5374674811
O   O8        1.0  0.29640  0.32010  0.38075  1.0000 -0.5374674811
O   O9        1.0  0.77950  0.90260  0.12127  1.0000 -0.5374674811
O   O10       1.0  0.59740  0.27950  0.37127  1.0000 -0.5374674811
O   O11       1.0  0.22050  0.09740  0.62127  1.0000 -0.5374674811
O   O12       1.0  0.40260  0.72050  0.87127  1.0000 -0.5374674811
O   O13       1.0  0.27950  0.59740  0.62873  1.0000 -0.5374674811
O   O14       1.0  0.90260  0.77950  0.87873  1.0000 -0.5374674811
O   O15       1.0  0.72050  0.40260  0.12873  1.0000 -0.5374674811
O   O16       1.0  0.09740  0.22050  0.37873  1.0000 -0.5374674811
O   O17       1.0  0.68070  0.44090  0.21025  1.0000 -0.5677115522
O   O18       1.0  0.05910  0.18070  0.46025  1.0000 -0.5677115522
O   O19       1.0  0.31930  0.55910  0.71025  1.0000 -0.5677115522
O   O20       1.0  0.94090  0.81930  0.96025  1.0000 -0.5677115522
O   O21       1.0  0.18070  0.05910  0.53975  1.0000 -0.5677115522
O   O22       1.0  0.44090  0.68070  0.78975  1.0000 -0.5677115522
O   O23       1.0  0.81930  0.94090  0.03975  1.0000 -0.5677115522
O   O24       1.0  0.55910  0.31930  0.28975  1.0000 -0.5677115522
O   O25       1.0  0.68980  0.55860  0.24830  1.0000 -0.5677115522
O   O26       1.0  0.94140  0.18980  0.49830  1.0000 -0.5677115522
O   O27       1.0  0.31020  0.44140  0.74830  1.0000 -0.5677115522
O   O28       1.0  0.05860  0.81020  0.99830  1.0000 -0.5677115522
O   O29       1.0  0.18980  0.94140  0.50170  1.0000 -0.5677115522
O   O30       1.0  0.55860  0.68980  0.75170  1.0000 -0.5677115522
O   O31       1.0  0.81020  0.05860  0.00170  1.0000 -0.5677115522
O   O32       1.0  0.44140  0.31020  0.25170  1.0000 -0.5677115522
O   O33       1.0  0.78350  0.16050  0.20740  1.0000 -0.5794262714
O   O34       1.0  0.33950  0.28350  0.45740  1.0000 -0.5794262714
O   O35       1.0  0.21650  0.83950  0.70740  1.0000 -0.5794262714
O   O36       1.0  0.66050  0.71650  0.95740  1.0000 -0.5794262714
O   O37       1.0  0.28350  0.33950  0.54260  1.0000 -0.5794262714
O   O38       1.0  0.16050  0.78350  0.79260  1.0000 -0.5794262714
O   O39       1.0  0.71650  0.66050  0.04260  1.0000 -0.5794262714
O   O40       1.0  0.83950  0.21650  0.29260  1.0000 -0.5794262714
O   O41       1.0  0.66520  0.07740  0.24050  1.0000 -0.4960158184
O   O42       1.0  0.42260  0.16520  0.49050  1.0000 -0.4960158184
O   O43       1.0  0.33480  0.92260  0.74050  1.0000 -0.4960158184
O   O44       1.0  0.57740  0.83480  0.99050  1.0000 -0.4960158184
O   O45       1.0  0.16520  0.42260  0.50950  1.0000 -0.4960158184
O   O46       1.0  0.07740  0.66520  0.75950  1.0000 -0.4960158184
O   O47       1.0  0.83480  0.57740  0.00950  1.0000 -0.4960158184
O   O48       1.0  0.92260  0.33480  0.25950  1.0000 -0.4960158184
