# DDEC6 charges by PACMAN v1.1 (https://github.com/mtap-research/PACMAN-charge/)
data_2014[Mn][nan]3[FSR]11
_chemical_formula_sum              "Mn8 H24 C72 O48"
_cell_length_a       12.499
_cell_length_b       14.9287
_cell_length_c       16.5814
_cell_angle_alpha    90
_cell_angle_beta     90
_cell_angle_gamma    90

_symmetry_space_group_name_H-M    "P 1"
_symmetry_Int_Tables_number       1

loop_
  _symmetry_equiv_pos_as_xyz
  'x, y, z'

loop_
  _atom_site_type_symbol
  _atom_site_label
  _atom_site_symmetry_multiplicity
  _atom_site_fract_x
  _atom_site_fract_y
  _atom_site_fract_z
  _atom_site_occupancy
  _atom_site_charge
Mn  Mn1       1.0  0.51409  0.39590  0.58143  1.0000 1.0373626683
Mn  Mn2       1.0  0.48591  0.10410  0.08143  1.0000 1.0373626683
Mn  Mn3       1.0  0.98591  0.89590  0.41857  1.0000 1.0373626683
Mn  Mn4       1.0  0.01409  0.60410  0.91857  1.0000 1.0373626683
Mn  Mn5       1.0  0.48591  0.60410  0.41857  1.0000 1.0373626683
Mn  Mn6       1.0  0.51409  0.89590  0.91857  1.0000 1.0373626683
Mn  Mn7       1.0  0.01409  0.10410  0.58143  1.0000 1.0373626683
Mn  Mn8       1.0  0.98591  0.39590  0.08143  1.0000 1.0373626683
H   H1        1.0  0.74650  0.34240  0.01530  1.0000 0.1288655148
H   H2        1.0  0.25350  0.15760  0.51530  1.0000 0.1288655148
H   H3        1.0  0.75350  0.84240  0.98470  1.0000 0.1288655148
H   H4        1.0  0.24650  0.65760  0.48470  1.0000 0.1288655148
H   H5        1.0  0.25350  0.65760  0.98470  1.0000 0.1288655148
H   H6        1.0  0.74650  0.84240  0.48470  1.0000 0.1288655148
H   H7        1.0  0.24650  0.15760  0.01530  1.0000 0.1288655148
H   H8        1.0  0.75350  0.34240  0.51530  1.0000 0.1288655148
H   H9        1.0  0.52560  0.27550  0.84980  1.0000 0.1288655148
H   H10       1.0  0.47440  0.22450  0.34980  1.0000 0.1288655148
H   H11       1.0  0.97440  0.77550  0.15020  1.0000 0.1288655148
H   H12       1.0  0.02560  0.72450  0.65020  1.0000 0.1288655148
H   H13       1.0  0.47440  0.72450  0.15020  1.0000 0.1288655148
H   H14       1.0  0.52560  0.77550  0.65020  1.0000 0.1288655148
H   H15       1.0  0.02560  0.22450  0.84980  1.0000 0.1288655148
H   H16       1.0  0.97440  0.27550  0.34980  1.0000 0.1288655148
H   H17       1.0  0.76390  0.44340  0.79140  1.0000 0.1288655148
H   H18       1.0  0.23610  0.05660  0.29140  1.0000 0.1288655148
H   H19       1.0  0.73610  0.94340  0.20860  1.0000 0.1288655148
H   H20       1.0  0.26390  0.55660  0.70860  1.0000 0.1288655148
H   H21       1.0  0.23610  0.55660  0.20860  1.0000 0.1288655148
H   H22       1.0  0.76390  0.94340  0.70860  1.0000 0.1288655148
H   H23       1.0  0.26390  0.05660  0.79140  1.0000 0.1288655148
H   H24       1.0  0.73610  0.44340  0.29140  1.0000 0.1288655148
C   C1        1.0  0.71920  0.34702  0.96329  1.0000 -0.0936852326
C   C2        1.0  0.28080  0.15298  0.46329  1.0000 -0.0936852326
C   C3        1.0  0.78080  0.84702  0.03671  1.0000 -0.0936852326
C   C4        1.0  0.21920  0.65298  0.53671  1.0000 -0.0936852326
C   C5        1.0  0.28080  0.65298  0.03671  1.0000 -0.0936852326
C   C6        1.0  0.71920  0.84702  0.53671  1.0000 -0.0936852326
C   C7        1.0  0.21920  0.15298  0.96329  1.0000 -0.0936852326
C   C8        1.0  0.78080  0.34702  0.46329  1.0000 -0.0936852326
C   C9        1.0  0.57952  0.23146  0.99881  1.0000 0.5208255198
C   C10       1.0  0.42048  0.26854  0.49881  1.0000 0.5208255198
C   C11       1.0  0.92048  0.73146  0.00119  1.0000 0.5208255198
C   C12       1.0  0.07952  0.76854  0.50119  1.0000 0.5208255198
C   C13       1.0  0.42048  0.76854  0.00119  1.0000 0.5208255198
C   C14       1.0  0.57952  0.73146  0.50119  1.0000 0.5208255198
C   C15       1.0  0.07952  0.26854  0.99881  1.0000 0.5208255198
C   C16       1.0  0.92048  0.23146  0.49881  1.0000 0.5208255198
C   C17       1.0  0.58786  0.30598  0.86382  1.0000 -0.098600246
C   C18       1.0  0.41214  0.19402  0.36382  1.0000 -0.098600246
C   C19       1.0  0.91214  0.80598  0.13618  1.0000 -0.098600246
C   C20       1.0  0.08786  0.69402  0.63618  1.0000 -0.098600246
C   C21       1.0  0.41214  0.69402  0.13618  1.0000 -0.098600246
C   C22       1.0  0.58786  0.80598  0.63618  1.0000 -0.098600246
C   C23       1.0  0.08786  0.19402  0.86382  1.0000 -0.098600246
C   C24       1.0  0.91214  0.30598  0.36382  1.0000 -0.098600246
C   C25       1.0  0.59606  0.36592  0.72266  1.0000 0.5208255198
C   C26       1.0  0.40394  0.13408  0.22266  1.0000 0.5208255198
C   C27       1.0  0.90394  0.86592  0.27734  1.0000 0.5208255198
C   C28       1.0  0.09606  0.63408  0.77734  1.0000 0.5208255198
C   C29       1.0  0.40394  0.63408  0.27734  1.0000 0.5208255198
C   C30       1.0  0.59606  0.86592  0.77734  1.0000 0.5208255198
C   C31       1.0  0.09606  0.13408  0.72266  1.0000 0.5208255198
C   C32       1.0  0.90394  0.36592  0.22266  1.0000 0.5208255198
C   C33       1.0  0.62938  0.29737  0.94150  1.0000 -0.0018784124
C   C34       1.0  0.37062  0.20263  0.44150  1.0000 7.66092e-05
C   C35       1.0  0.87062  0.79737  0.05850  1.0000 -0.0018784124
C   C36       1.0  0.12938  0.70263  0.55850  1.0000 7.66092e-05
C   C37       1.0  0.37062  0.70263  0.05850  1.0000 7.66092e-05
C   C38       1.0  0.62938  0.79737  0.55850  1.0000 -0.0018784124
C   C39       1.0  0.12938  0.20263  0.94150  1.0000 7.66092e-05
C   C40       1.0  0.87062  0.29737  0.44150  1.0000 -0.0018784124
C   C41       1.0  0.86150  0.46131  0.93182  1.0000 0.5607146654
C   C42       1.0  0.13850  0.03869  0.43182  1.0000 0.5607146654
C   C43       1.0  0.63850  0.96131  0.06818  1.0000 0.5607146654
C   C44       1.0  0.36150  0.53869  0.56818  1.0000 0.5607146654
C   C45       1.0  0.13850  0.53869  0.06818  1.0000 0.5607146654
C   C46       1.0  0.86150  0.96131  0.56818  1.0000 0.5607146654
C   C47       1.0  0.36150  0.03869  0.93182  1.0000 0.5607146654
C   C48       1.0  0.63850  0.46131  0.43182  1.0000 0.5607146654
C   C49       1.0  0.72922  0.40786  0.82931  1.0000 -0.098600246
C   C50       1.0  0.27078  0.09214  0.32931  1.0000 -0.098600246
C   C51       1.0  0.77078  0.90786  0.17069  1.0000 -0.098600246
C   C52       1.0  0.22922  0.59214  0.67069  1.0000 -0.098600246
C   C53       1.0  0.27078  0.59214  0.17069  1.0000 -0.098600246
C   C54       1.0  0.72922  0.90786  0.67069  1.0000 -0.098600246
C   C55       1.0  0.22922  0.09214  0.82931  1.0000 -0.098600246
C   C56       1.0  0.77078  0.40786  0.32931  1.0000 -0.098600246
C   C57       1.0  0.76838  0.40353  0.90767  1.0000 -0.009350582
C   C58       1.0  0.23162  0.09647  0.40767  1.0000 -0.009350582
C   C59       1.0  0.73162  0.90353  0.09233  1.0000 -0.009350582
C   C60       1.0  0.26838  0.59647  0.59233  1.0000 -0.009350582
C   C61       1.0  0.23162  0.59647  0.09233  1.0000 -0.009350582
C   C62       1.0  0.76838  0.90353  0.59233  1.0000 -0.009350582
C   C63       1.0  0.26838  0.09647  0.90767  1.0000 -0.009350582
C   C64       1.0  0.73162  0.40353  0.40767  1.0000 -0.009350582
C   C65       1.0  0.63885  0.35977  0.80707  1.0000 -0.0188113516
C   C66       1.0  0.36115  0.14023  0.30707  1.0000 -0.0188113516
C   C67       1.0  0.86115  0.85977  0.19293  1.0000 -0.0188113516
C   C68       1.0  0.13885  0.64023  0.69293  1.0000 -0.0188113516
C   C69       1.0  0.36115  0.64023  0.19293  1.0000 -0.0188113516
C   C70       1.0  0.63885  0.85977  0.69293  1.0000 -0.0188113516
C   C71       1.0  0.13885  0.14023  0.80707  1.0000 -0.0188113516
C   C72       1.0  0.86115  0.35977  0.30707  1.0000 -0.0188113516
O   O1        1.0  0.48420  0.20823  0.98821  1.0000 -0.4666676935
O   O2        1.0  0.51580  0.29177  0.48821  1.0000 -0.4666676935
O   O3        1.0  0.01580  0.70823  0.01179  1.0000 -0.4666676935
O   O4        1.0  0.98420  0.79177  0.51179  1.0000 -0.4577983784
O   O5        1.0  0.51580  0.79177  0.01179  1.0000 -0.4577983784
O   O6        1.0  0.48420  0.70823  0.51179  1.0000 -0.4666676935
O   O7        1.0  0.98420  0.29177  0.98821  1.0000 -0.4666676935
O   O8        1.0  0.01580  0.20823  0.48821  1.0000 -0.4666676935
O   O9        1.0  0.63408  0.19846  0.05358  1.0000 -0.4131713775
O   O10       1.0  0.36592  0.30154  0.55358  1.0000 -0.4131713775
O   O11       1.0  0.86592  0.69846  0.94642  1.0000 -0.4131713775
O   O12       1.0  0.13408  0.80154  0.44642  1.0000 -0.4131713775
O   O13       1.0  0.36592  0.80154  0.94642  1.0000 -0.4131713775
O   O14       1.0  0.63408  0.69846  0.44642  1.0000 -0.4131713775
O   O15       1.0  0.13408  0.30154  0.05358  1.0000 -0.4131713775
O   O16       1.0  0.86592  0.19846  0.55358  1.0000 -0.4131713775
O   O17       1.0  0.64755  0.40799  0.67052  1.0000 -0.4325370805
O   O18       1.0  0.35245  0.09201  0.17052  1.0000 -0.4325370805
O   O19       1.0  0.85245  0.90799  0.32948  1.0000 -0.4325370805
O   O20       1.0  0.14755  0.59201  0.82948  1.0000 -0.4325370805
O   O21       1.0  0.35245  0.59201  0.32948  1.0000 -0.4325370805
O   O22       1.0  0.64755  0.90799  0.82948  1.0000 -0.4325370805
O   O23       1.0  0.14755  0.09201  0.67052  1.0000 -0.4325370805
O   O24       1.0  0.85245  0.40799  0.17052  1.0000 -0.4325370805
O   O25       1.0  0.91481  0.49855  0.87635  1.0000 -0.4543365505
O   O26       1.0  0.08519  0.00145  0.37635  1.0000 -0.4543365505
O   O27       1.0  0.58519  0.99855  0.12365  1.0000 -0.4577983784
O   O28       1.0  0.41481  0.50145  0.62365  1.0000 -0.4577983784
O   O29       1.0  0.08519  0.50145  0.12365  1.0000 -0.4577983784
O   O30       1.0  0.91481  0.99855  0.62365  1.0000 -0.4577983784
O   O31       1.0  0.41481  0.00145  0.87635  1.0000 -0.4543365505
O   O32       1.0  0.58519  0.49855  0.37635  1.0000 -0.4543365505
O   O33       1.0  0.88079  0.47235  0.00551  1.0000 -0.5061491844
O   O34       1.0  0.11921  0.02765  0.50551  1.0000 -0.5061491844
O   O35       1.0  0.61921  0.97235  0.99449  1.0000 -0.5061491844
O   O36       1.0  0.38079  0.52765  0.49449  1.0000 -0.5061491844
O   O37       1.0  0.11921  0.52765  0.99449  1.0000 -0.5061491844
O   O38       1.0  0.88079  0.97235  0.49449  1.0000 -0.5061491844
O   O39       1.0  0.38079  0.02765  0.00551  1.0000 -0.5061491844
O   O40       1.0  0.61921  0.47235  0.50551  1.0000 -0.5061491844
O   O41       1.0  0.50838  0.32941  0.70615  1.0000 -0.4354646918
O   O42       1.0  0.49162  0.17059  0.20615  1.0000 -0.4325370805
O   O43       1.0  0.99162  0.82941  0.29385  1.0000 -0.4354646918
O   O44       1.0  0.00838  0.67059  0.79385  1.0000 -0.4325370805
O   O45       1.0  0.49162  0.67059  0.29385  1.0000 -0.4325370805
O   O46       1.0  0.50838  0.82941  0.79385  1.0000 -0.4354646918
O   O47       1.0  0.00838  0.17059  0.70615  1.0000 -0.4325370805
O   O48       1.0  0.99162  0.32941  0.20615  1.0000 -0.4354646918
