# DDEC6 charges by PACMAN v1.1 (https://github.com/mtap-research/PACMAN-charge/)
data_2014[Cu][bcu]3[FSR]2
_chemical_formula_sum              "Cu6 H60 C60 N56 O4"
_cell_length_a       13.0662
_cell_length_b       14.7659
_cell_length_c       20.1389
_cell_angle_alpha    90
_cell_angle_beta     130.155
_cell_angle_gamma    90

_symmetry_space_group_name_H-M    "P 1"
_symmetry_Int_Tables_number       1

loop_
  _symmetry_equiv_pos_as_xyz
  'x, y, z'

loop_
  _atom_site_type_symbol
  _atom_site_label
  _atom_site_symmetry_multiplicity
  _atom_site_fract_x
  _atom_site_fract_y
  _atom_site_fract_z
  _atom_site_occupancy
  _atom_site_charge
Cu  Cu1       1.0  0.50000  0.50000  0.00000  1.0000 0.5950115586
Cu  Cu2       1.0  0.50000  0.00000  0.50000  1.0000 0.5950115586
Cu  Cu3       1.0  0.39623  0.28601  0.90877  1.0000 0.6141639615
Cu  Cu4       1.0  0.60377  0.78601  0.59123  1.0000 0.6141639615
Cu  Cu5       1.0  0.60377  0.71399  0.09123  1.0000 0.6141639615
Cu  Cu6       1.0  0.39623  0.21399  0.40877  1.0000 0.6141639615
H   H1        1.0  0.36860  0.16450  0.15320  1.0000 0.1386162922
H   H2        1.0  0.63140  0.66450  0.34680  1.0000 0.1386162922
H   H3        1.0  0.63140  0.83550  0.84680  1.0000 0.1386162922
H   H4        1.0  0.36860  0.33550  0.65320  1.0000 0.1386162922
H   H5        1.0  0.47340  0.41940  0.25040  1.0000 0.1386162922
H   H6        1.0  0.52660  0.91940  0.24960  1.0000 0.1386162922
H   H7        1.0  0.52660  0.58060  0.74960  1.0000 0.1386162922
H   H8        1.0  0.47340  0.08060  0.75040  1.0000 0.1386162922
H   H9        1.0  0.94030  0.31620  0.16500  1.0000 0.1386162922
H   H10       1.0  0.05970  0.81620  0.33500  1.0000 0.1386162922
H   H11       1.0  0.05970  0.68380  0.83500  1.0000 0.1386162922
H   H12       1.0  0.94030  0.18380  0.66500  1.0000 0.1386162922
H   H13       1.0  0.12780  0.22620  0.24190  1.0000 0.1013621511
H   H14       1.0  0.87220  0.72620  0.25810  1.0000 0.1013621511
H   H15       1.0  0.87220  0.77380  0.75810  1.0000 0.1013621511
H   H16       1.0  0.12780  0.27380  0.74190  1.0000 0.1013621511
H   H17       1.0  0.30220  0.37600  0.45150  1.0000 0.1013621511
H   H18       1.0  0.69780  0.87600  0.04850  1.0000 0.1013621511
H   H19       1.0  0.69780  0.62400  0.54850  1.0000 0.1013621511
H   H20       1.0  0.30220  0.12400  0.95150  1.0000 0.1013621511
H   H21       1.0  0.11850  0.47160  0.37970  1.0000 0.1386162922
H   H22       1.0  0.88150  0.97160  0.12030  1.0000 0.1386162922
H   H23       1.0  0.88150  0.52840  0.62030  1.0000 0.1386162922
H   H24       1.0  0.11850  0.02840  0.87970  1.0000 0.1386162922
H   H25       1.0  0.45420  0.37630  0.35230  1.0000 0.1100383469
H   H26       1.0  0.54580  0.87630  0.14770  1.0000 0.1100383469
H   H27       1.0  0.54580  0.62370  0.64770  1.0000 0.1100383469
H   H28       1.0  0.45420  0.12370  0.85230  1.0000 0.1100383469
H   H29       1.0  0.35870  0.12750  0.26080  1.0000 0.1100383469
H   H30       1.0  0.64130  0.62750  0.23920  1.0000 0.1100383469
H   H31       1.0  0.64130  0.87250  0.73920  1.0000 0.1100383469
H   H32       1.0  0.35870  0.37250  0.76080  1.0000 0.1100383469
H   H33       1.0  0.58230  0.02110  0.08060  1.0000 0.1386162922
H   H34       1.0  0.41770  0.52110  0.41940  1.0000 0.1386162922
H   H35       1.0  0.41770  0.97890  0.91940  1.0000 0.1386162922
H   H36       1.0  0.58230  0.47890  0.58060  1.0000 0.1386162922
H   H37       1.0  0.67340  0.01530  0.18400  1.0000 0.1296251584
H   H38       1.0  0.32660  0.51530  0.31600  1.0000 0.1296251584
H   H39       1.0  0.32660  0.98470  0.81600  1.0000 0.1296251584
H   H40       1.0  0.67340  0.48470  0.68400  1.0000 0.1296251584
H   H41       1.0  0.53480  0.06970  0.12780  1.0000 0.1386162922
H   H42       1.0  0.46520  0.56970  0.37220  1.0000 0.1296251584
H   H43       1.0  0.46520  0.93030  0.87220  1.0000 0.1296251584
H   H44       1.0  0.53480  0.43030  0.62780  1.0000 0.1296251584
H   H45       1.0  0.83860  0.21640  0.22640  1.0000 0.1296251584
H   H46       1.0  0.16140  0.71640  0.27360  1.0000 0.1296251584
H   H47       1.0  0.16140  0.78360  0.77360  1.0000 0.1296251584
H   H48       1.0  0.83860  0.28360  0.72640  1.0000 0.1296251584
H   H49       1.0  0.77060  0.17580  0.26350  1.0000 0.1386162922
H   H50       1.0  0.22940  0.67580  0.23650  1.0000 0.1386162922
H   H51       1.0  0.22940  0.82420  0.73650  1.0000 0.1386162922
H   H52       1.0  0.77060  0.32420  0.76350  1.0000 0.1386162922
H   H53       1.0  0.86340  0.11290  0.25690  1.0000 0.1386162922
H   H54       1.0  0.13660  0.61290  0.24310  1.0000 0.1386162922
H   H55       1.0  0.13660  0.88710  0.74310  1.0000 0.1386162922
H   H56       1.0  0.86340  0.38710  0.75690  1.0000 0.1386162922
H   H57       1.0  0.68210  0.23990  0.08290  1.0000 0.1013621511
H   H58       1.0  0.31790  0.73990  0.41710  1.0000 0.1013621511
H   H59       1.0  0.31790  0.76010  0.91710  1.0000 0.1013621511
H   H60       1.0  0.68210  0.26010  0.58290  1.0000 0.1013621511
C   C1        1.0  0.42689  0.32403  0.12214  1.0000 0.2160423326
C   C2        1.0  0.57311  0.82403  0.37786  1.0000 0.2160423326
C   C3        1.0  0.57311  0.67597  0.87786  1.0000 0.2160423326
C   C4        1.0  0.42689  0.17597  0.62214  1.0000 0.2160423326
C   C5        1.0  0.42150  0.29687  0.18970  1.0000 0.1013621511
C   C6        1.0  0.57850  0.79687  0.31030  1.0000 0.1013621511
C   C7        1.0  0.57850  0.70313  0.81030  1.0000 0.1013621511
C   C8        1.0  0.42150  0.20313  0.68970  1.0000 0.1013621511
C   C9        1.0  0.38706  0.20906  0.19366  1.0000 -0.1874434163
C   C10       1.0  0.61294  0.70906  0.30634  1.0000 -0.1874434163
C   C11       1.0  0.61294  0.79094  0.80634  1.0000 -0.1874434163
C   C12       1.0  0.38706  0.29094  0.69366  1.0000 -0.1874434163
C   C13       1.0  0.44790  0.35921  0.25060  1.0000 -0.1874434163
C   C14       1.0  0.55210  0.85921  0.24940  1.0000 -0.1874434163
C   C15       1.0  0.55210  0.64079  0.74940  1.0000 -0.1874434163
C   C16       1.0  0.44790  0.14079  0.75060  1.0000 -0.1874434163
C   C17       1.0  0.88747  0.46180  0.21377  1.0000 0.2160423326
C   C18       1.0  0.11253  0.96180  0.28623  1.0000 0.2160423326
C   C19       1.0  0.11253  0.53820  0.78623  1.0000 0.2160423326
C   C20       1.0  0.88747  0.03820  0.71377  1.0000 0.2160423326
C   C21       1.0  0.00801  0.40510  0.26371  1.0000 0.1013621511
C   C22       1.0  0.99199  0.90510  0.23629  1.0000 0.1013621511
C   C23       1.0  0.99199  0.59490  0.73629  1.0000 0.1013621511
C   C24       1.0  0.00801  0.09490  0.76371  1.0000 0.1013621511
C   C25       1.0  0.01377  0.33007  0.22387  1.0000 -0.18414079
C   C26       1.0  0.98623  0.83007  0.27613  1.0000 -0.18414079
C   C27       1.0  0.98623  0.66993  0.77613  1.0000 -0.18414079
C   C28       1.0  0.01377  0.16993  0.72387  1.0000 -0.18414079
C   C29       1.0  0.12574  0.27678  0.27014  1.0000 0.0738531912
C   C30       1.0  0.87426  0.77678  0.22986  1.0000 0.0738531912
C   C31       1.0  0.87426  0.72322  0.72986  1.0000 0.0738531912
C   C32       1.0  0.12574  0.22322  0.77014  1.0000 0.0738531912
C   C33       1.0  0.22757  0.36415  0.39237  1.0000 0.0863478447
C   C34       1.0  0.77243  0.86415  0.10763  1.0000 0.0863478447
C   C35       1.0  0.77243  0.63585  0.60763  1.0000 0.0863478447
C   C36       1.0  0.22757  0.13585  0.89237  1.0000 0.0863478447
C   C37       1.0  0.11820  0.42147  0.35000  1.0000 -0.1874434163
C   C38       1.0  0.88180  0.92147  0.15000  1.0000 -0.1874434163
C   C39       1.0  0.88180  0.57853  0.65000  1.0000 -0.1874434163
C   C40       1.0  0.11820  0.07853  0.85000  1.0000 -0.1874434163
C   C41       1.0  0.43674  0.33295  0.31124  1.0000 0.0800532235
C   C42       1.0  0.56326  0.83295  0.18876  1.0000 0.0800532235
C   C43       1.0  0.56326  0.66705  0.68876  1.0000 0.0800532235
C   C44       1.0  0.43674  0.16705  0.81124  1.0000 0.0800532235
C   C45       1.0  0.38022  0.18788  0.25742  1.0000 0.0800532235
C   C46       1.0  0.61978  0.68788  0.24258  1.0000 0.0800532235
C   C47       1.0  0.61978  0.81212  0.74258  1.0000 0.0800532235
C   C48       1.0  0.38022  0.31212  0.75742  1.0000 0.0800532235
C   C49       1.0  0.61250  0.05380  0.13290  1.0000 -0.3378915822
C   C50       1.0  0.38750  0.55380  0.36710  1.0000 -0.3378915822
C   C51       1.0  0.38750  0.94620  0.86710  1.0000 -0.3378915822
C   C52       1.0  0.61250  0.44620  0.63290  1.0000 -0.3378915822
C   C53       1.0  0.79800  0.16240  0.22930  1.0000 -0.3378915822
C   C54       1.0  0.20200  0.66240  0.27070  1.0000 -0.3378915822
C   C55       1.0  0.20200  0.83760  0.77070  1.0000 -0.3378915822
C   C56       1.0  0.79800  0.33760  0.72930  1.0000 -0.3378915822
C   C57       1.0  0.63700  0.18470  0.07340  1.0000 0.2761521379
C   C58       1.0  0.36300  0.68470  0.42660  1.0000 0.2761521379
C   C59       1.0  0.36300  0.81530  0.92660  1.0000 0.2761521379
C   C60       1.0  0.63700  0.31530  0.57340  1.0000 0.2761521379
N   N1        1.0  0.45299  0.40318  0.04754  1.0000 -0.0311028999
N   N2        1.0  0.54701  0.90318  0.45246  1.0000 -0.0311028999
N   N3        1.0  0.54701  0.59682  0.95246  1.0000 -0.0311028999
N   N4        1.0  0.45299  0.09682  0.54754  1.0000 -0.0311028999
N   N5        1.0  0.40851  0.32237  0.01059  1.0000 -0.0509083008
N   N6        1.0  0.59149  0.82237  0.48941  1.0000 -0.0509083008
N   N7        1.0  0.59149  0.67763  0.98941  1.0000 -0.0509083008
N   N8        1.0  0.40851  0.17763  0.51059  1.0000 -0.0509083008
N   N9        1.0  0.39111  0.27022  0.05652  1.0000 -0.270304553
N   N10       1.0  0.60889  0.77022  0.44348  1.0000 -0.270304553
N   N11       1.0  0.60889  0.72978  0.94348  1.0000 -0.270304553
N   N12       1.0  0.39111  0.22978  0.55652  1.0000 -0.270304553
N   N13       1.0  0.46523  0.40671  0.11814  1.0000 -0.2489809205
N   N14       1.0  0.53477  0.90671  0.38186  1.0000 -0.2489809205
N   N15       1.0  0.53477  0.59329  0.88186  1.0000 -0.2489809205
N   N16       1.0  0.46523  0.09329  0.61814  1.0000 -0.2489809205
N   N17       1.0  0.54242  0.37453  0.95120  1.0000 -0.5420099085
N   N18       1.0  0.45758  0.87453  0.54880  1.0000 -0.5420099085
N   N19       1.0  0.45758  0.62547  0.04880  1.0000 -0.5420099085
N   N20       1.0  0.54242  0.12547  0.45120  1.0000 -0.5420099085
N   N21       1.0  0.64181  0.34856  0.96595  1.0000 0.4187820295
N   N22       1.0  0.35819  0.84856  0.53405  1.0000 0.4187820295
N   N23       1.0  0.35819  0.65144  0.03405  1.0000 0.4187820295
N   N24       1.0  0.64181  0.15144  0.46595  1.0000 0.4187820295
N   N25       1.0  0.74000  0.32460  0.98240  1.0000 -0.3560197687
N   N26       1.0  0.26000  0.82460  0.51760  1.0000 -0.3532983299
N   N27       1.0  0.26000  0.67540  0.01760  1.0000 -0.3532983299
N   N28       1.0  0.74000  0.17540  0.48240  1.0000 -0.3532983299
N   N29       1.0  0.68935  0.50225  0.11446  1.0000 -0.0311028999
N   N30       1.0  0.31065  0.00225  0.38554  1.0000 -0.0311028999
N   N31       1.0  0.31065  0.49775  0.88554  1.0000 -0.0311028999
N   N32       1.0  0.68935  0.99775  0.61446  1.0000 -0.0311028999
N   N33       1.0  0.77134  0.43172  0.14163  1.0000 -0.270304553
N   N34       1.0  0.22866  0.93172  0.35837  1.0000 -0.270304553
N   N35       1.0  0.22866  0.56828  0.85837  1.0000 -0.270304553
N   N36       1.0  0.77134  0.06828  0.64163  1.0000 -0.270304553
N   N37       1.0  0.75343  0.57196  0.16779  1.0000 -0.0930658241
N   N38       1.0  0.24657  0.07196  0.33221  1.0000 -0.0930658241
N   N39       1.0  0.24657  0.42804  0.83221  1.0000 -0.0930658241
N   N40       1.0  0.75343  0.92804  0.66779  1.0000 -0.0930658241
N   N41       1.0  0.88065  0.54832  0.23214  1.0000 -0.2848203813
N   N42       1.0  0.11935  0.04832  0.26786  1.0000 -0.2848203813
N   N43       1.0  0.11935  0.45168  0.76786  1.0000 -0.2848203813
N   N44       1.0  0.88065  0.95168  0.73214  1.0000 -0.2848203813
N   N45       1.0  0.23286  0.29261  0.35366  1.0000 -0.2080539425
N   N46       1.0  0.76714  0.79261  0.14634  1.0000 -0.2080539425
N   N47       1.0  0.76714  0.70739  0.64634  1.0000 -0.2080539425
N   N48       1.0  0.23286  0.20739  0.85366  1.0000 -0.2080539425
N   N49       1.0  0.40254  0.24892  0.31484  1.0000 -0.2080539425
N   N50       1.0  0.59746  0.74892  0.18516  1.0000 -0.2080539425
N   N51       1.0  0.59746  0.75108  0.68516  1.0000 -0.2080539425
N   N52       1.0  0.40254  0.25108  0.81484  1.0000 -0.2080539425
N   N53       1.0  0.68162  0.13556  0.14202  1.0000 0.0252894864
N   N54       1.0  0.31838  0.63556  0.35798  1.0000 0.0252894864
N   N55       1.0  0.31838  0.86444  0.85798  1.0000 0.0252894864
N   N56       1.0  0.68162  0.36444  0.64202  1.0000 0.0252894864
O   O1        1.0  0.54146  0.16434  0.99810  1.0000 -0.4576692765
O   O2        1.0  0.45854  0.66434  0.50190  1.0000 -0.4576692765
O   O3        1.0  0.45854  0.83566  0.00190  1.0000 -0.4576692765
O   O4        1.0  0.54146  0.33566  0.49810  1.0000 -0.4576692765
