# DDEC6 charges by PACMAN v1.1 (https://github.com/mtap-research/PACMAN-charge/)
data_2014[Eu][nan]3[FSR]5
_chemical_formula_sum              "Eu4 H56 C68 N4 O28"
_cell_length_a       6.4633
_cell_length_b       17.072
_cell_length_c       23.816
_cell_angle_alpha    90
_cell_angle_beta     90.602
_cell_angle_gamma    90

_symmetry_space_group_name_H-M    "P 1"
_symmetry_Int_Tables_number       1

loop_
  _symmetry_equiv_pos_as_xyz
  'x, y, z'

loop_
  _atom_site_type_symbol
  _atom_site_label
  _atom_site_symmetry_multiplicity
  _atom_site_fract_x
  _atom_site_fract_y
  _atom_site_fract_z
  _atom_site_occupancy
  _atom_site_charge
Eu  Eu1       1.0  0.73811  0.93720  0.97723  1.0000 2.0978275679
Eu  Eu2       1.0  0.26189  0.43720  0.52277  1.0000 2.0978275679
Eu  Eu3       1.0  0.26189  0.06280  0.02277  1.0000 2.0978275679
Eu  Eu4       1.0  0.73811  0.56280  0.47723  1.0000 2.0978275679
H   H1        1.0  0.38760  0.21120  0.18420  1.0000 0.1315155208
H   H2        1.0  0.61240  0.71120  0.31580  1.0000 0.1315155208
H   H3        1.0  0.61240  0.78880  0.81580  1.0000 0.1315155208
H   H4        1.0  0.38760  0.28880  0.68420  1.0000 0.1315155208
H   H5        1.0  0.97290  0.16700  0.23090  1.0000 0.1177553353
H   H6        1.0  0.02710  0.66700  0.26910  1.0000 0.1177553353
H   H7        1.0  0.02710  0.83300  0.76910  1.0000 0.1177553353
H   H8        1.0  0.97290  0.33300  0.73090  1.0000 0.1177553353
H   H9        1.0  0.01280  0.08970  0.15230  1.0000 0.1177553353
H   H10       1.0  0.98720  0.58970  0.34770  1.0000 0.1177553353
H   H11       1.0  0.98720  0.91030  0.84770  1.0000 0.1177553353
H   H12       1.0  0.01280  0.41030  0.65230  1.0000 0.1177553353
H   H13       1.0  0.93160  0.29100  0.26790  1.0000 0.1385805848
H   H14       1.0  0.06840  0.79100  0.23210  1.0000 0.1385805848
H   H15       1.0  0.06840  0.70900  0.73210  1.0000 0.1385805848
H   H16       1.0  0.93160  0.20900  0.76790  1.0000 0.1385805848
H   H17       1.0  0.30030  0.29930  0.35580  1.0000 0.1093743846
H   H18       1.0  0.69970  0.79930  0.14420  1.0000 0.1093743846
H   H19       1.0  0.69970  0.70070  0.64420  1.0000 0.1093743846
H   H20       1.0  0.30030  0.20070  0.85580  1.0000 0.1093743846
H   H21       1.0  0.34850  0.21940  0.27960  1.0000 0.1177553353
H   H22       1.0  0.65150  0.71940  0.22040  1.0000 0.1177553353
H   H23       1.0  0.65150  0.78060  0.72040  1.0000 0.1177553353
H   H24       1.0  0.34850  0.28060  0.77960  1.0000 0.1177553353
H   H25       1.0  0.86320  0.77560  0.05790  1.0000 0.1093743846
H   H26       1.0  0.13680  0.27560  0.44210  1.0000 0.1093743846
H   H27       1.0  0.13680  0.22440  0.94210  1.0000 0.1093743846
H   H28       1.0  0.86320  0.72440  0.55790  1.0000 0.1093743846
H   H29       1.0  0.97750  0.67240  0.10220  1.0000 0.1315155208
H   H30       1.0  0.02250  0.17240  0.39780  1.0000 0.1315155208
H   H31       1.0  0.02250  0.32760  0.89780  1.0000 0.1315155208
H   H32       1.0  0.97750  0.82760  0.60220  1.0000 0.1315155208
H   H33       1.0  0.12330  0.61840  0.06690  1.0000 0.1385805848
H   H34       1.0  0.87670  0.11840  0.43310  1.0000 0.1385805848
H   H35       1.0  0.87670  0.38160  0.93310  1.0000 0.1385805848
H   H36       1.0  0.12330  0.88160  0.56690  1.0000 0.1385805848
H   H37       1.0  0.21810  0.67790  0.11030  1.0000 0.1315155208
H   H38       1.0  0.78190  0.17790  0.38970  1.0000 0.1315155208
H   H39       1.0  0.78190  0.32210  0.88970  1.0000 0.1315155208
H   H40       1.0  0.21810  0.82210  0.61030  1.0000 0.1315155208
H   H41       1.0  0.29450  0.77370  0.97920  1.0000 0.1564292453
H   H42       1.0  0.70550  0.27370  0.52080  1.0000 0.1564292453
H   H43       1.0  0.70550  0.22630  0.02080  1.0000 0.1564292453
H   H44       1.0  0.29450  0.72630  0.47920  1.0000 0.1564292453
H   H45       1.0  0.42170  0.74410  0.03140  1.0000 0.1315155208
H   H46       1.0  0.57830  0.24410  0.46860  1.0000 0.1315155208
H   H47       1.0  0.57830  0.25590  0.96860  1.0000 0.1315155208
H   H48       1.0  0.42170  0.75590  0.53140  1.0000 0.1315155208
H   H49       1.0  0.32860  0.68370  0.98850  1.0000 0.1385805848
H   H50       1.0  0.67140  0.18370  0.51150  1.0000 0.1385805848
H   H51       1.0  0.67140  0.31630  0.01150  1.0000 0.1385805848
H   H52       1.0  0.32860  0.81630  0.48850  1.0000 0.1385805848
H   H53       1.0  0.90940  0.41930  0.37070  1.0000 0.3554273091
H   H54       1.0  0.09060  0.91930  0.12930  1.0000 0.3554273091
H   H55       1.0  0.09060  0.58070  0.62930  1.0000 0.3554273091
H   H56       1.0  0.90940  0.08070  0.87070  1.0000 0.3554273091
C   C1        1.0  0.76510  0.05920  0.06870  1.0000 0.6551070355
C   C2        1.0  0.23490  0.55920  0.43130  1.0000 0.6518822653
C   C3        1.0  0.23490  0.94080  0.93130  1.0000 0.6518822653
C   C4        1.0  0.76510  0.44080  0.56870  1.0000 0.6551070355
C   C5        1.0  0.72830  0.10560  0.11750  1.0000 -0.216850803
C   C6        1.0  0.27170  0.60560  0.38250  1.0000 -0.216850803
C   C7        1.0  0.27170  0.89440  0.88250  1.0000 -0.216850803
C   C8        1.0  0.72830  0.39440  0.61750  1.0000 -0.216850803
C   C9        1.0  0.53230  0.14300  0.12750  1.0000 0.3990727805
C   C10       1.0  0.46770  0.64300  0.37250  1.0000 0.3990727805
C   C11       1.0  0.46770  0.85700  0.87250  1.0000 0.3990727805
C   C12       1.0  0.53230  0.35700  0.62750  1.0000 0.3990727805
C   C13       1.0  0.51370  0.18720  0.17690  1.0000 -0.277836398
C   C14       1.0  0.48630  0.68720  0.32310  1.0000 -0.277836398
C   C15       1.0  0.48630  0.81280  0.82310  1.0000 -0.277836398
C   C16       1.0  0.51370  0.31280  0.67690  1.0000 -0.277836398
C   C17       1.0  0.67350  0.19670  0.21530  1.0000 0.0992941514
C   C18       1.0  0.32650  0.69670  0.28470  1.0000 0.0992941514
C   C19       1.0  0.32650  0.80330  0.78470  1.0000 0.0992941514
C   C20       1.0  0.67350  0.30330  0.71530  1.0000 0.0992941514
C   C21       1.0  0.86340  0.16060  0.20560  1.0000 -0.2067401901
C   C22       1.0  0.13660  0.66060  0.29440  1.0000 -0.2067401901
C   C23       1.0  0.13660  0.83940  0.79440  1.0000 -0.2067401901
C   C24       1.0  0.86340  0.33940  0.70560  1.0000 -0.2067401901
C   C25       1.0  0.88730  0.11500  0.15780  1.0000 -0.0507448323
C   C26       1.0  0.11270  0.61500  0.34220  1.0000 -0.0507448323
C   C27       1.0  0.11270  0.88500  0.84220  1.0000 -0.0507448323
C   C28       1.0  0.88730  0.38500  0.65780  1.0000 -0.0507448323
C   C29       1.0  0.64380  0.24870  0.26520  1.0000 0.0992941514
C   C30       1.0  0.35620  0.74870  0.23480  1.0000 0.0992941514
C   C31       1.0  0.35620  0.75130  0.73480  1.0000 0.0992941514
C   C32       1.0  0.64380  0.25130  0.76520  1.0000 0.0992941514
C   C33       1.0  0.80340  0.29390  0.28520  1.0000 -0.2673432239
C   C34       1.0  0.19660  0.79390  0.21480  1.0000 -0.2673432239
C   C35       1.0  0.19660  0.70610  0.71480  1.0000 -0.2673432239
C   C36       1.0  0.80340  0.20610  0.78520  1.0000 -0.2673432239
C   C37       1.0  0.77840  0.34430  0.33080  1.0000 0.2900775738
C   C38       1.0  0.22160  0.84430  0.16920  1.0000 0.2900775738
C   C39       1.0  0.22160  0.65570  0.66920  1.0000 0.2900775738
C   C40       1.0  0.77840  0.15570  0.83080  1.0000 0.2900775738
C   C41       1.0  0.58790  0.34740  0.35800  1.0000 -0.1928561561
C   C42       1.0  0.41210  0.84740  0.14200  1.0000 -0.1928561561
C   C43       1.0  0.41210  0.65260  0.64200  1.0000 -0.1928561561
C   C44       1.0  0.58790  0.15260  0.85800  1.0000 -0.1928561561
C   C45       1.0  0.42760  0.29890  0.33800  1.0000 -0.0870772794
C   C46       1.0  0.57240  0.79890  0.16200  1.0000 -0.0870772794
C   C47       1.0  0.57240  0.70110  0.66200  1.0000 -0.0870772794
C   C48       1.0  0.42760  0.20110  0.83800  1.0000 -0.0870772794
C   C49       1.0  0.45670  0.25080  0.29230  1.0000 -0.182127171
C   C50       1.0  0.54330  0.75080  0.20770  1.0000 -0.182127171
C   C51       1.0  0.54330  0.74920  0.70770  1.0000 -0.182127171
C   C52       1.0  0.45670  0.24920  0.79230  1.0000 -0.182127171
C   C53       1.0  0.55360  0.39910  0.40650  1.0000 0.6518822653
C   C54       1.0  0.44640  0.89910  0.09350  1.0000 0.6518822653
C   C55       1.0  0.44640  0.60090  0.59350  1.0000 0.6518822653
C   C56       1.0  0.55360  0.10090  0.90650  1.0000 0.6518822653
C   C57       1.0  0.97400  0.77960  0.03360  1.0000 0.2268137874
C   C58       1.0  0.02600  0.27960  0.46640  1.0000 0.2268137874
C   C59       1.0  0.02600  0.22040  0.96640  1.0000 0.2240436517
C   C60       1.0  0.97400  0.72040  0.53360  1.0000 0.2268137874
C   C61       1.0  0.10800  0.66930  0.08350  1.0000 -0.3304023228
C   C62       1.0  0.89200  0.16930  0.41650  1.0000 -0.3304023228
C   C63       1.0  0.89200  0.33070  0.91650  1.0000 -0.3304023228
C   C64       1.0  0.10800  0.83070  0.58350  1.0000 -0.3304023228
C   C65       1.0  0.30670  0.73300  0.00680  1.0000 -0.3100871749
C   C66       1.0  0.69330  0.23300  0.49320  1.0000 -0.3100871749
C   C67       1.0  0.69330  0.26700  0.99320  1.0000 -0.3100871749
C   C68       1.0  0.30670  0.76700  0.50680  1.0000 -0.3100871749
N   N1        1.0  0.11700  0.72930  0.03950  1.0000 0.0334075309
N   N2        1.0  0.88300  0.22930  0.46050  1.0000 0.0334075309
N   N3        1.0  0.88300  0.27070  0.96050  1.0000 0.0334075309
N   N4        1.0  0.11700  0.77070  0.53950  1.0000 0.0334075309
O   O1        1.0  0.93690  0.02340  0.05990  1.0000 -0.736753837
O   O2        1.0  0.06310  0.52340  0.44010  1.0000 -0.736753837
O   O3        1.0  0.06310  0.97660  0.94010  1.0000 -0.736753837
O   O4        1.0  0.93690  0.47660  0.55990  1.0000 -0.736753837
O   O5        1.0  0.62410  0.04910  0.03080  1.0000 -0.7487570949
O   O6        1.0  0.37590  0.54910  0.46920  1.0000 -0.7487570949
O   O7        1.0  0.37590  0.95090  0.96920  1.0000 -0.7487570949
O   O8        1.0  0.62410  0.45090  0.53080  1.0000 -0.7487570949
O   O9        1.0  0.39890  0.38740  0.43720  1.0000 -0.6598538913
O   O10       1.0  0.60110  0.88740  0.06280  1.0000 -0.6598538913
O   O11       1.0  0.60110  0.61260  0.56280  1.0000 -0.6598538913
O   O12       1.0  0.39890  0.11260  0.93720  1.0000 -0.6598538913
O   O13       1.0  0.68440  0.45460  0.41460  1.0000 -0.6598538913
O   O14       1.0  0.31560  0.95460  0.08540  1.0000 -0.6598538913
O   O15       1.0  0.31560  0.54540  0.58540  1.0000 -0.6598538913
O   O16       1.0  0.68440  0.04540  0.91460  1.0000 -0.6598538913
O   O17       1.0  0.37330  0.13710  0.09310  1.0000 -0.6995537288
O   O18       1.0  0.62670  0.63710  0.40690  1.0000 -0.6995537288
O   O19       1.0  0.62670  0.86290  0.90690  1.0000 -0.6995537288
O   O20       1.0  0.37330  0.36290  0.59310  1.0000 -0.6995537288
O   O21       1.0  0.94350  0.38840  0.34610  1.0000 -0.4238221504
O   O22       1.0  0.05650  0.88840  0.15390  1.0000 -0.4238221504
O   O23       1.0  0.05650  0.61160  0.65390  1.0000 -0.4238221504
O   O24       1.0  0.94350  0.11160  0.84610  1.0000 -0.4238221504
O   O25       1.0  0.96670  0.83270  0.99930  1.0000 -0.5254869468
O   O26       1.0  0.03330  0.33270  0.50070  1.0000 -0.5254869468
O   O27       1.0  0.03330  0.16730  0.00070  1.0000 -0.5254869468
O   O28       1.0  0.96670  0.66730  0.49930  1.0000 -0.5254869468
