# DDEC6 charges by PACMAN v1.1 (https://github.com/mtap-research/PACMAN-charge/)
data_2014[Co][cds]3[FSR]1
_chemical_formula_sum              "Co4 H104 C140 N8 O32"
_cell_length_a       12.293
_cell_length_b       18.583
_cell_length_c       14.538
_cell_angle_alpha    90
_cell_angle_beta     97.063
_cell_angle_gamma    90

_symmetry_space_group_name_H-M    "P 1"
_symmetry_Int_Tables_number       1

loop_
  _symmetry_equiv_pos_as_xyz
  'x, y, z'

loop_
  _atom_site_type_symbol
  _atom_site_label
  _atom_site_symmetry_multiplicity
  _atom_site_fract_x
  _atom_site_fract_y
  _atom_site_fract_z
  _atom_site_occupancy
  _atom_site_charge
Co  Co1       1.0  0.50000  0.00000  0.00000  1.0000 0.9128165178
Co  Co2       1.0  0.50000  0.50000  0.50000  1.0000 0.9128165178
Co  Co3       1.0  0.00000  0.50000  0.50000  1.0000 0.8816846542
Co  Co4       1.0  0.00000  0.00000  0.00000  1.0000 0.8816846542
H   H1        1.0  0.56030  0.82300  0.70190  1.0000 0.1457931854
H   H2        1.0  0.43970  0.32300  0.79810  1.0000 0.1457931854
H   H3        1.0  0.43970  0.17700  0.29810  1.0000 0.1457931854
H   H4        1.0  0.56030  0.67700  0.20190  1.0000 0.1457931854
H   H5        1.0  0.38630  0.94590  0.39130  1.0000 0.1195481339
H   H6        1.0  0.61370  0.44590  0.10870  1.0000 0.1195481339
H   H7        1.0  0.61370  0.05410  0.60870  1.0000 0.1195481339
H   H8        1.0  0.38630  0.55410  0.89130  1.0000 0.1195481339
H   H9        1.0  0.48150  0.86400  0.31570  1.0000 0.1195481339
H   H10       1.0  0.51850  0.36400  0.18430  1.0000 0.1195481339
H   H11       1.0  0.51850  0.13600  0.68430  1.0000 0.1195481339
H   H12       1.0  0.48150  0.63600  0.81570  1.0000 0.1195481339
H   H13       1.0  0.58320  0.77270  0.39530  1.0000 0.1305710127
H   H14       1.0  0.41680  0.27270  0.10470  1.0000 0.1305710127
H   H15       1.0  0.41680  0.22730  0.60470  1.0000 0.1305710127
H   H16       1.0  0.58320  0.72730  0.89530  1.0000 0.1305710127
H   H17       1.0  0.60060  0.77060  0.55380  1.0000 0.1305710127
H   H18       1.0  0.39940  0.27060  0.94620  1.0000 0.1305710127
H   H19       1.0  0.39940  0.22940  0.44620  1.0000 0.1305710127
H   H20       1.0  0.60060  0.72940  0.05380  1.0000 0.1305710127
H   H21       1.0  0.26260  0.04100  0.57080  1.0000 0.1195481339
H   H22       1.0  0.73740  0.54100  0.92920  1.0000 0.1195481339
H   H23       1.0  0.73740  0.95900  0.42920  1.0000 0.1195481339
H   H24       1.0  0.26260  0.45900  0.07080  1.0000 0.1195481339
H   H25       1.0  0.33870  0.04690  0.49260  1.0000 0.1195481339
H   H26       1.0  0.66130  0.54690  0.00740  1.0000 0.1195481339
H   H27       1.0  0.66130  0.95310  0.50740  1.0000 0.1195481339
H   H28       1.0  0.33870  0.45310  0.99260  1.0000 0.1195481339
H   H29       1.0  0.97790  0.92090  0.27380  1.0000 0.1305710127
H   H30       1.0  0.02210  0.42090  0.22620  1.0000 0.1305710127
H   H31       1.0  0.02210  0.07910  0.72620  1.0000 0.1305710127
H   H32       1.0  0.97790  0.57910  0.77380  1.0000 0.1305710127
H   H33       1.0  0.16700  0.93470  0.61890  1.0000 0.1195481339
H   H34       1.0  0.83300  0.43470  0.88110  1.0000 0.1195481339
H   H35       1.0  0.83300  0.06530  0.38110  1.0000 0.1195481339
H   H36       1.0  0.16700  0.56530  0.11890  1.0000 0.1195481339
H   H37       1.0  0.02410  0.86720  0.65880  1.0000 0.1195481339
H   H38       1.0  0.97590  0.36720  0.84120  1.0000 0.1195481339
H   H39       1.0  0.97590  0.13280  0.34120  1.0000 0.1195481339
H   H40       1.0  0.02410  0.63280  0.15880  1.0000 0.1195481339
H   H41       1.0  0.88370  0.82890  0.54590  1.0000 0.1305710127
H   H42       1.0  0.11630  0.32890  0.95410  1.0000 0.1305710127
H   H43       1.0  0.11630  0.17110  0.45410  1.0000 0.1305710127
H   H44       1.0  0.88370  0.67110  0.04590  1.0000 0.1305710127
H   H45       1.0  0.88770  0.86060  0.39420  1.0000 0.1305710127
H   H46       1.0  0.11230  0.36060  0.10580  1.0000 0.1305710127
H   H47       1.0  0.11230  0.13940  0.60580  1.0000 0.1305710127
H   H48       1.0  0.88770  0.63940  0.89420  1.0000 0.1305710127
H   H49       1.0  0.35200  0.98480  0.15730  1.0000 0.1195481339
H   H50       1.0  0.64800  0.48480  0.34270  1.0000 0.1195481339
H   H51       1.0  0.64800  0.01520  0.84270  1.0000 0.1195481339
H   H52       1.0  0.35200  0.51520  0.65730  1.0000 0.1195481339
H   H53       1.0  0.26850  0.90050  0.23820  1.0000 0.1305710127
H   H54       1.0  0.73150  0.40050  0.26180  1.0000 0.1305710127
H   H55       1.0  0.73150  0.09950  0.76180  1.0000 0.1305710127
H   H56       1.0  0.26850  0.59950  0.73820  1.0000 0.1305710127
H   H57       1.0  0.34140  0.75230  0.05560  1.0000 0.1305710127
H   H58       1.0  0.65860  0.25230  0.44440  1.0000 0.1305710127
H   H59       1.0  0.65860  0.24770  0.94440  1.0000 0.1305710127
H   H60       1.0  0.34140  0.74770  0.55560  1.0000 0.1305710127
H   H61       1.0  0.42370  0.84080  0.97930  1.0000 0.1128181301
H   H62       1.0  0.57630  0.34080  0.52070  1.0000 0.1128181301
H   H63       1.0  0.57630  0.15920  0.02070  1.0000 0.1128181301
H   H64       1.0  0.42370  0.65920  0.47930  1.0000 0.1128181301
H   H65       1.0  0.25160  0.71110  0.18520  1.0000 0.1305710127
H   H66       1.0  0.74840  0.21110  0.31480  1.0000 0.1305710127
H   H67       1.0  0.74840  0.28890  0.81480  1.0000 0.1305710127
H   H68       1.0  0.25160  0.78890  0.68520  1.0000 0.1305710127
H   H69       1.0  0.21330  0.80830  0.31910  1.0000 0.1305710127
H   H70       1.0  0.78670  0.30830  0.18090  1.0000 0.1305710127
H   H71       1.0  0.78670  0.19170  0.68090  1.0000 0.1305710127
H   H72       1.0  0.21330  0.69170  0.81910  1.0000 0.1305710127
H   H73       1.0  0.10690  0.76330  0.44040  1.0000 0.1390979223
H   H74       1.0  0.89310  0.26330  0.05960  1.0000 0.1390979223
H   H75       1.0  0.89310  0.23670  0.55960  1.0000 0.1390979223
H   H76       1.0  0.10690  0.73670  0.94040  1.0000 0.1390979223
H   H77       1.0  0.03960  0.66980  0.51980  1.0000 0.1128181301
H   H78       1.0  0.96040  0.16980  0.98020  1.0000 0.1128181301
H   H79       1.0  0.96040  0.33020  0.48020  1.0000 0.1128181301
H   H80       1.0  0.03960  0.83020  0.01980  1.0000 0.1128181301
H   H81       1.0  0.15570  0.52990  0.35720  1.0000 0.1195481339
H   H82       1.0  0.84430  0.02990  0.14280  1.0000 0.1195481339
H   H83       1.0  0.84430  0.47010  0.64280  1.0000 0.1195481339
H   H84       1.0  0.15570  0.97010  0.85720  1.0000 0.1195481339
H   H85       1.0  0.22880  0.61870  0.27550  1.0000 0.1390979223
H   H86       1.0  0.77120  0.11870  0.22450  1.0000 0.1390979223
H   H87       1.0  0.77120  0.38130  0.72450  1.0000 0.1390979223
H   H88       1.0  0.22880  0.88130  0.77550  1.0000 0.1390979223
H   H89       1.0  0.61600  0.90910  0.96620  1.0000 0.2963565521
H   H90       1.0  0.38400  0.40910  0.53380  1.0000 0.2963565521
H   H91       1.0  0.38400  0.09090  0.03380  1.0000 0.2963565521
H   H92       1.0  0.61600  0.59090  0.46620  1.0000 0.2963565521
H   H93       1.0  0.69410  0.93940  0.02230  1.0000 0.3288720853
H   H94       1.0  0.30590  0.43940  0.47770  1.0000 0.3288720853
H   H95       1.0  0.30590  0.06060  0.97770  1.0000 0.3288720853
H   H96       1.0  0.69410  0.56060  0.52230  1.0000 0.3288720853
H   H97       1.0  0.16400  0.42500  0.54660  1.0000 0.321394556
H   H98       1.0  0.83600  0.92500  0.95340  1.0000 0.321394556
H   H99       1.0  0.83600  0.57500  0.45340  1.0000 0.321394556
H   H100      1.0  0.16400  0.07500  0.04660  1.0000 0.321394556
H   H101      1.0  0.13500  0.39790  0.46280  1.0000 0.3124576516
H   H102      1.0  0.86500  0.89790  0.03720  1.0000 0.3124576516
H   H103      1.0  0.86500  0.60210  0.53720  1.0000 0.3124576516
H   H104      1.0  0.13500  0.10210  0.96280  1.0000 0.3124576516
C   C1        1.0  0.46236  0.90632  0.71857  1.0000 -0.1095864169
C   C2        1.0  0.53764  0.40632  0.78143  1.0000 -0.1095864169
C   C3        1.0  0.53764  0.09368  0.28143  1.0000 -0.1095864169
C   C4        1.0  0.46236  0.59368  0.21857  1.0000 -0.1095864169
C   C5        1.0  0.51467  0.85689  0.66977  1.0000 -0.1314728714
C   C6        1.0  0.48533  0.35689  0.83023  1.0000 -0.1314728714
C   C7        1.0  0.48533  0.14311  0.33023  1.0000 -0.1314728714
C   C8        1.0  0.51467  0.64311  0.16977  1.0000 -0.1314728714
C   C9        1.0  0.50111  0.85594  0.57163  1.0000 0.0601431092
C   C10       1.0  0.49889  0.35594  0.92837  1.0000 0.0601431092
C   C11       1.0  0.49889  0.14406  0.42837  1.0000 0.0601431092
C   C12       1.0  0.50111  0.64406  0.07163  1.0000 0.0601431092
C   C13       1.0  0.43073  0.90866  0.52337  1.0000 0.0402692471
C   C14       1.0  0.56927  0.40866  0.97663  1.0000 0.0402692471
C   C15       1.0  0.56927  0.09134  0.47663  1.0000 0.0402692471
C   C16       1.0  0.43073  0.59134  0.02337  1.0000 0.0402692471
C   C17       1.0  0.37121  0.95750  0.57328  1.0000 -0.0113942052
C   C18       1.0  0.62879  0.45750  0.92672  1.0000 -0.0113942052
C   C19       1.0  0.62879  0.04250  0.42672  1.0000 -0.0113942052
C   C20       1.0  0.37121  0.54250  0.07328  1.0000 -0.0113942052
C   C21       1.0  0.38873  0.95637  0.66916  1.0000 0.2290729664
C   C22       1.0  0.61127  0.45637  0.83084  1.0000 0.2290729664
C   C23       1.0  0.61127  0.04363  0.33084  1.0000 0.2290729664
C   C24       1.0  0.38873  0.54363  0.16916  1.0000 0.2290729664
C   C25       1.0  0.42757  0.91074  0.42507  1.0000 -0.122457311
C   C26       1.0  0.57243  0.41074  0.07493  1.0000 -0.122457311
C   C27       1.0  0.57243  0.08926  0.57493  1.0000 -0.122457311
C   C28       1.0  0.42757  0.58926  0.92507  1.0000 -0.122457311
C   C29       1.0  0.48473  0.86140  0.37985  1.0000 -0.0726336531
C   C30       1.0  0.51527  0.36140  0.12015  1.0000 -0.0726336531
C   C31       1.0  0.51527  0.13860  0.62015  1.0000 -0.0726336531
C   C32       1.0  0.48473  0.63860  0.87985  1.0000 -0.0726336531
C   C33       1.0  0.54802  0.80708  0.42760  1.0000 -0.0848275564
C   C34       1.0  0.45198  0.30708  0.07240  1.0000 -0.0848275564
C   C35       1.0  0.45198  0.19292  0.57240  1.0000 -0.0848275564
C   C36       1.0  0.54802  0.69292  0.92760  1.0000 -0.0848275564
C   C37       1.0  0.55697  0.80549  0.52168  1.0000 -0.122457311
C   C38       1.0  0.44303  0.30549  0.97832  1.0000 -0.122457311
C   C39       1.0  0.44303  0.19451  0.47832  1.0000 -0.122457311
C   C40       1.0  0.55697  0.69451  0.02168  1.0000 -0.122457311
C   C41       1.0  0.29483  0.01372  0.52406  1.0000 -0.2604590237
C   C42       1.0  0.70517  0.51372  0.97594  1.0000 -0.2604590237
C   C43       1.0  0.70517  0.98628  0.47594  1.0000 -0.2604590237
C   C44       1.0  0.29483  0.48628  0.02406  1.0000 -0.2604590237
C   C45       1.0  0.20210  0.98605  0.45364  1.0000 -0.0113942052
C   C46       1.0  0.79790  0.48605  0.04636  1.0000 -0.0113942052
C   C47       1.0  0.79790  0.01395  0.54636  1.0000 -0.0113942052
C   C48       1.0  0.20210  0.51395  0.95364  1.0000 -0.0113942052
C   C49       1.0  0.19500  0.00922  0.36205  1.0000 0.2290729664
C   C50       1.0  0.80500  0.50922  0.13795  1.0000 0.2290729664
C   C51       1.0  0.80500  0.99078  0.63795  1.0000 0.2290729664
C   C52       1.0  0.19500  0.49078  0.86205  1.0000 0.2290729664
C   C53       1.0  0.11046  0.98375  0.29309  1.0000 -0.122457311
C   C54       1.0  0.88954  0.48375  0.20691  1.0000 -0.122457311
C   C55       1.0  0.88954  0.01625  0.70691  1.0000 -0.122457311
C   C56       1.0  0.11046  0.51625  0.79309  1.0000 -0.122457311
C   C57       1.0  0.03171  0.93830  0.31882  1.0000 -0.1561159558
C   C58       1.0  0.96829  0.43830  0.18118  1.0000 -0.1561159558
C   C59       1.0  0.96829  0.06170  0.68118  1.0000 -0.1561159558
C   C60       1.0  0.03171  0.56170  0.81882  1.0000 -0.1561159558
C   C61       1.0  0.03036  0.91738  0.41160  1.0000 0.0601431092
C   C62       1.0  0.96964  0.41738  0.08840  1.0000 0.0601431092
C   C63       1.0  0.96964  0.08262  0.58840  1.0000 0.0601431092
C   C64       1.0  0.03036  0.58262  0.91160  1.0000 0.0601431092
C   C65       1.0  0.11741  0.94097  0.48030  1.0000 0.0402692471
C   C66       1.0  0.88259  0.44097  0.01970  1.0000 0.0402692471
C   C67       1.0  0.88259  0.05903  0.51970  1.0000 0.0402692471
C   C68       1.0  0.11741  0.55903  0.98030  1.0000 0.0402692471
C   C69       1.0  0.11174  0.92043  0.57305  1.0000 -0.1314728714
C   C70       1.0  0.88826  0.42043  0.92695  1.0000 -0.1314728714
C   C71       1.0  0.88826  0.07957  0.42695  1.0000 -0.1314728714
C   C72       1.0  0.11174  0.57957  0.07305  1.0000 -0.1314728714
C   C73       1.0  0.02603  0.87970  0.59710  1.0000 -0.0876424081
C   C74       1.0  0.97397  0.37970  0.90290  1.0000 -0.0876424081
C   C75       1.0  0.97397  0.12030  0.40290  1.0000 -0.0876424081
C   C76       1.0  0.02603  0.62030  0.09710  1.0000 -0.0876424081
C   C77       1.0  0.94105  0.85667  0.52922  1.0000 -0.0876424081
C   C78       1.0  0.05895  0.35667  0.97078  1.0000 -0.0876424081
C   C79       1.0  0.05895  0.14333  0.47078  1.0000 -0.0876424081
C   C80       1.0  0.94105  0.64333  0.02922  1.0000 -0.0876424081
C   C81       1.0  0.94391  0.87559  0.43883  1.0000 -0.1314728714
C   C82       1.0  0.05609  0.37559  0.06117  1.0000 -0.1314728714
C   C83       1.0  0.05609  0.12441  0.56117  1.0000 -0.1314728714
C   C84       1.0  0.94391  0.62441  0.93883  1.0000 -0.1314728714
C   C85       1.0  0.49230  0.90917  0.82196  1.0000 0.5722245358
C   C86       1.0  0.50770  0.40917  0.67804  1.0000 0.5722245358
C   C87       1.0  0.50770  0.09083  0.17804  1.0000 0.5722245358
C   C88       1.0  0.49230  0.59083  0.32196  1.0000 0.5722245358
C   C89       1.0  0.10662  0.00648  0.19378  1.0000 0.5722245358
C   C90       1.0  0.89338  0.50648  0.30622  1.0000 0.5722245358
C   C91       1.0  0.89338  0.99352  0.80622  1.0000 0.5722245358
C   C92       1.0  0.10662  0.49352  0.69378  1.0000 0.5722245358
C   C93       1.0  0.35097  0.93730  0.13706  1.0000 0.1010106847
C   C94       1.0  0.64903  0.43730  0.36294  1.0000 0.1010106847
C   C95       1.0  0.64903  0.06270  0.86294  1.0000 0.1010106847
C   C96       1.0  0.35097  0.56270  0.63706  1.0000 0.1010106847
C   C97       1.0  0.30083  0.88662  0.18644  1.0000 -0.1690374084
C   C98       1.0  0.69917  0.38662  0.31356  1.0000 -0.1690374084
C   C99       1.0  0.69917  0.11338  0.81356  1.0000 -0.1690374084
C   C100      1.0  0.30083  0.61338  0.68644  1.0000 -0.1690374084
C   C101      1.0  0.29812  0.81482  0.15963  1.0000 0.1639200941
C   C102      1.0  0.70188  0.31482  0.34037  1.0000 0.1639200941
C   C103      1.0  0.70188  0.18518  0.84037  1.0000 0.1639200941
C   C104      1.0  0.29812  0.68518  0.65963  1.0000 0.1639200941
C   C105      1.0  0.34391  0.79901  0.07858  1.0000 -0.1929482512
C   C106      1.0  0.65609  0.29901  0.42142  1.0000 -0.1929482512
C   C107      1.0  0.65609  0.20099  0.92142  1.0000 -0.1929482512
C   C108      1.0  0.34391  0.70099  0.57858  1.0000 -0.1929482512
C   C109      1.0  0.39302  0.85297  0.03259  1.0000 0.1010106847
C   C110      1.0  0.60698  0.35297  0.46741  1.0000 0.1010106847
C   C111      1.0  0.60698  0.14703  0.96741  1.0000 0.1010106847
C   C112      1.0  0.39302  0.64703  0.53259  1.0000 0.1010106847
C   C113      1.0  0.25321  0.75669  0.21164  1.0000 -0.1314728714
C   C114      1.0  0.74679  0.25669  0.28836  1.0000 -0.1314728714
C   C115      1.0  0.74679  0.24331  0.78836  1.0000 -0.1314728714
C   C116      1.0  0.25321  0.74331  0.71164  1.0000 -0.1314728714
C   C117      1.0  0.21427  0.76250  0.29330  1.0000 -0.1314728714
C   C118      1.0  0.78573  0.26250  0.20670  1.0000 -0.1314728714
C   C119      1.0  0.78573  0.23750  0.70670  1.0000 -0.1314728714
C   C120      1.0  0.21427  0.73750  0.79330  1.0000 -0.1314728714
C   C121      1.0  0.17318  0.70337  0.34548  1.0000 0.1639200941
C   C122      1.0  0.82682  0.20337  0.15452  1.0000 0.1639200941
C   C123      1.0  0.82682  0.29663  0.65452  1.0000 0.1639200941
C   C124      1.0  0.17318  0.79663  0.84548  1.0000 0.1639200941
C   C125      1.0  0.11709  0.71622  0.42137  1.0000 -0.1929482512
C   C126      1.0  0.88291  0.21622  0.07863  1.0000 -0.1929482512
C   C127      1.0  0.88291  0.28378  0.57863  1.0000 -0.1929482512
C   C128      1.0  0.11709  0.78378  0.92137  1.0000 -0.1929482512
C   C129      1.0  0.07617  0.65933  0.46905  1.0000 0.085688046
C   C130      1.0  0.92383  0.15933  0.03095  1.0000 0.085688046
C   C131      1.0  0.92383  0.34067  0.53095  1.0000 0.085688046
C   C132      1.0  0.07617  0.84067  0.96905  1.0000 0.085688046
C   C133      1.0  0.14488  0.57744  0.37363  1.0000 0.1010106847
C   C134      1.0  0.85512  0.07744  0.12637  1.0000 0.1010106847
C   C135      1.0  0.85512  0.42256  0.62637  1.0000 0.1010106847
C   C136      1.0  0.14488  0.92256  0.87363  1.0000 0.1010106847
C   C137      1.0  0.18884  0.63074  0.32359  1.0000 -0.1690374084
C   C138      1.0  0.81116  0.13074  0.17641  1.0000 -0.1690374084
C   C139      1.0  0.81116  0.36926  0.67641  1.0000 -0.1690374084
C   C140      1.0  0.18884  0.86926  0.82359  1.0000 -0.1690374084
N   N1        1.0  0.39889  0.92172  0.06052  1.0000 -0.2405533559
N   N2        1.0  0.60111  0.42172  0.43948  1.0000 -0.2405533559
N   N3        1.0  0.60111  0.07828  0.93948  1.0000 -0.2405533559
N   N4        1.0  0.39889  0.57828  0.56052  1.0000 -0.2405533559
N   N5        1.0  0.08694  0.59019  0.44530  1.0000 -0.2604590237
N   N6        1.0  0.91306  0.09019  0.05470  1.0000 -0.2604590237
N   N7        1.0  0.91306  0.40981  0.55470  1.0000 -0.2604590237
N   N8        1.0  0.08694  0.90981  0.94530  1.0000 -0.2604590237
O   O1        1.0  0.44679  0.95817  0.86611  1.0000 -0.5505856938
O   O2        1.0  0.55321  0.45817  0.63389  1.0000 -0.5505856938
O   O3        1.0  0.55321  0.04183  0.13389  1.0000 -0.5505856938
O   O4        1.0  0.44679  0.54183  0.36611  1.0000 -0.5505856938
O   O5        1.0  0.62860  0.92575  0.01896  1.0000 -0.6498552032
O   O6        1.0  0.37140  0.42575  0.48104  1.0000 -0.6498552032
O   O7        1.0  0.37140  0.07425  0.98104  1.0000 -0.6498552032
O   O8        1.0  0.62860  0.57425  0.51896  1.0000 -0.6498552032
O   O9        1.0  0.56159  0.86559  0.85913  1.0000 -0.5425680943
O   O10       1.0  0.43841  0.36559  0.64087  1.0000 -0.5425680943
O   O11       1.0  0.43841  0.13441  0.14087  1.0000 -0.5425680943
O   O12       1.0  0.56159  0.63441  0.35913  1.0000 -0.5425680943
O   O13       1.0  0.14417  0.43503  0.49455  1.0000 -0.6210894353
O   O14       1.0  0.85583  0.93503  0.00545  1.0000 -0.6210894353
O   O15       1.0  0.85583  0.56497  0.50545  1.0000 -0.6210894353
O   O16       1.0  0.14417  0.06497  0.99455  1.0000 -0.6210894353
O   O17       1.0  0.16545  0.05981  0.17615  1.0000 -0.4747638397
O   O18       1.0  0.83455  0.55981  0.32385  1.0000 -0.4747638397
O   O19       1.0  0.83455  0.94019  0.82385  1.0000 -0.4747638397
O   O20       1.0  0.16545  0.44019  0.67615  1.0000 -0.4747638397
O   O21       1.0  0.04591  0.97120  0.13437  1.0000 -0.58940304
O   O22       1.0  0.95409  0.47120  0.36563  1.0000 -0.58940304
O   O23       1.0  0.95409  0.02880  0.86563  1.0000 -0.58940304
O   O24       1.0  0.04591  0.52880  0.63437  1.0000 -0.58940304
O   O25       1.0  0.33364  0.00460  0.71843  1.0000 -0.459921702
O   O26       1.0  0.66636  0.50460  0.78157  1.0000 -0.459921702
O   O27       1.0  0.66636  0.99540  0.28157  1.0000 -0.459921702
O   O28       1.0  0.33364  0.49540  0.21843  1.0000 -0.459921702
O   O29       1.0  0.27201  0.05591  0.33797  1.0000 -0.4378580816
O   O30       1.0  0.72799  0.55591  0.16203  1.0000 -0.4378580816
O   O31       1.0  0.72799  0.94409  0.66203  1.0000 -0.4378580816
O   O32       1.0  0.27201  0.44409  0.83797  1.0000 -0.4378580816
