# DDEC6 charges by PACMAN v1.1 (https://github.com/mtap-research/PACMAN-charge/)
data_2014[Co][nan]3[FSR]12
_chemical_formula_sum              "Co12 H96 C120 N8 O40"
_cell_length_a       17.5207
_cell_length_b       17.5207
_cell_length_c       15.1261
_cell_angle_alpha    90
_cell_angle_beta     90
_cell_angle_gamma    90

_symmetry_space_group_name_H-M    "P 1"
_symmetry_Int_Tables_number       1

loop_
  _symmetry_equiv_pos_as_xyz
  'x, y, z'

loop_
  _atom_site_type_symbol
  _atom_site_label
  _atom_site_symmetry_multiplicity
  _atom_site_fract_x
  _atom_site_fract_y
  _atom_site_fract_z
  _atom_site_occupancy
  _atom_site_charge
Co  Co1       1.0  0.14093  0.89933  0.96933  1.0000 0.9083854026
Co  Co2       1.0  0.85907  0.10067  0.96933  1.0000 0.9083854026
Co  Co3       1.0  0.10067  0.14093  0.03067  1.0000 0.9083854026
Co  Co4       1.0  0.89933  0.85907  0.03067  1.0000 0.9083854026
Co  Co5       1.0  0.85907  0.89933  0.46933  1.0000 0.9083854026
Co  Co6       1.0  0.14093  0.10067  0.46933  1.0000 0.9083854026
Co  Co7       1.0  0.89933  0.14093  0.53067  1.0000 0.9083854026
Co  Co8       1.0  0.10067  0.85907  0.53067  1.0000 0.9083854026
Co  Co9       1.0  0.14836  0.85164  0.75000  1.0000 0.9662287822
Co  Co10      1.0  0.85164  0.14836  0.75000  1.0000 0.9662287822
Co  Co11      1.0  0.14836  0.14836  0.25000  1.0000 0.9662287822
Co  Co12      1.0  0.85164  0.85164  0.25000  1.0000 0.9662287822
H   H1        1.0  0.10980  0.01760  0.77350  1.0000 0.0994002177
H   H2        1.0  0.89020  0.98240  0.77350  1.0000 0.0994002177
H   H3        1.0  0.98240  0.10980  0.22650  1.0000 0.0994002177
H   H4        1.0  0.01760  0.89020  0.22650  1.0000 0.0994002177
H   H5        1.0  0.89020  0.01760  0.27350  1.0000 0.0994002177
H   H6        1.0  0.10980  0.98240  0.27350  1.0000 0.0994002177
H   H7        1.0  0.01760  0.10980  0.72650  1.0000 0.0994002177
H   H8        1.0  0.98240  0.89020  0.72650  1.0000 0.0994002177
H   H9        1.0  0.24020  0.99900  0.74050  1.0000 0.1299344874
H   H10       1.0  0.75980  0.00100  0.74050  1.0000 0.1299344874
H   H11       1.0  0.00100  0.24020  0.25950  1.0000 0.1299344874
H   H12       1.0  0.99900  0.75980  0.25950  1.0000 0.1299344874
H   H13       1.0  0.75980  0.99900  0.24050  1.0000 0.1299344874
H   H14       1.0  0.24020  0.00100  0.24050  1.0000 0.1299344874
H   H15       1.0  0.99900  0.24020  0.75950  1.0000 0.1299344874
H   H16       1.0  0.00100  0.75980  0.75950  1.0000 0.1299344874
H   H17       1.0  0.22860  0.08170  0.78350  1.0000 0.1473016283
H   H18       1.0  0.77140  0.91830  0.78350  1.0000 0.1473016283
H   H19       1.0  0.91830  0.22860  0.21650  1.0000 0.1473016283
H   H20       1.0  0.08170  0.77140  0.21650  1.0000 0.1473016283
H   H21       1.0  0.77140  0.08170  0.28350  1.0000 0.1473016283
H   H22       1.0  0.22860  0.91830  0.28350  1.0000 0.1473016283
H   H23       1.0  0.08170  0.22860  0.71650  1.0000 0.1473016283
H   H24       1.0  0.91830  0.77140  0.71650  1.0000 0.1473016283
H   H25       1.0  0.26230  0.01340  0.84180  1.0000 0.1357380702
H   H26       1.0  0.73770  0.98660  0.84180  1.0000 0.1357380702
H   H27       1.0  0.98660  0.26230  0.15820  1.0000 0.1357380702
H   H28       1.0  0.01340  0.73770  0.15820  1.0000 0.1357380702
H   H29       1.0  0.73770  0.01340  0.34180  1.0000 0.1357380702
H   H30       1.0  0.26230  0.98660  0.34180  1.0000 0.1357380702
H   H31       1.0  0.01340  0.26230  0.65820  1.0000 0.1357380702
H   H32       1.0  0.98660  0.73770  0.65820  1.0000 0.1357380702
H   H33       1.0  0.12150  0.66800  0.04270  1.0000 0.1299344874
H   H34       1.0  0.87850  0.33200  0.04270  1.0000 0.1299344874
H   H35       1.0  0.33200  0.12150  0.95730  1.0000 0.1299344874
H   H36       1.0  0.66800  0.87850  0.95730  1.0000 0.1299344874
H   H37       1.0  0.87850  0.66800  0.54270  1.0000 0.1299344874
H   H38       1.0  0.12150  0.33200  0.54270  1.0000 0.1299344874
H   H39       1.0  0.66800  0.12150  0.45730  1.0000 0.1299344874
H   H40       1.0  0.33200  0.87850  0.45730  1.0000 0.1299344874
H   H41       1.0  0.10060  0.54040  0.07780  1.0000 0.1183519826
H   H42       1.0  0.89940  0.45960  0.07780  1.0000 0.1183519826
H   H43       1.0  0.45960  0.10060  0.92220  1.0000 0.1183519826
H   H44       1.0  0.54040  0.89940  0.92220  1.0000 0.1183519826
H   H45       1.0  0.89940  0.54040  0.57780  1.0000 0.1183519826
H   H46       1.0  0.10060  0.45960  0.57780  1.0000 0.1183519826
H   H47       1.0  0.54040  0.10060  0.42220  1.0000 0.1183519826
H   H48       1.0  0.45960  0.89940  0.42220  1.0000 0.1183519826
H   H49       1.0  0.12580  0.48400  0.81970  1.0000 0.1183519826
H   H50       1.0  0.87420  0.51600  0.81970  1.0000 0.1183519826
H   H51       1.0  0.51600  0.12580  0.18030  1.0000 0.1183519826
H   H52       1.0  0.48400  0.87420  0.18030  1.0000 0.1183519826
H   H53       1.0  0.87420  0.48400  0.31970  1.0000 0.1183519826
H   H54       1.0  0.12580  0.51600  0.31970  1.0000 0.1183519826
H   H55       1.0  0.48400  0.12580  0.68030  1.0000 0.1183519826
H   H56       1.0  0.51600  0.87420  0.68030  1.0000 0.1183519826
H   H57       1.0  0.14000  0.61300  0.78440  1.0000 0.1183519826
H   H58       1.0  0.86000  0.38700  0.78440  1.0000 0.1183519826
H   H59       1.0  0.38700  0.14000  0.21560  1.0000 0.1183519826
H   H60       1.0  0.61300  0.86000  0.21560  1.0000 0.1183519826
H   H61       1.0  0.86000  0.61300  0.28440  1.0000 0.1183519826
H   H62       1.0  0.14000  0.38700  0.28440  1.0000 0.1183519826
H   H63       1.0  0.61300  0.14000  0.71560  1.0000 0.1183519826
H   H64       1.0  0.38700  0.86000  0.71560  1.0000 0.1183519826
H   H65       1.0  0.04630  0.38360  0.86540  1.0000 0.1299344874
H   H66       1.0  0.95370  0.61640  0.86540  1.0000 0.1299344874
H   H67       1.0  0.61640  0.04630  0.13460  1.0000 0.1299344874
H   H68       1.0  0.38360  0.95370  0.13460  1.0000 0.1299344874
H   H69       1.0  0.95370  0.38360  0.36540  1.0000 0.1299344874
H   H70       1.0  0.04630  0.61640  0.36540  1.0000 0.1299344874
H   H71       1.0  0.38360  0.04630  0.63460  1.0000 0.1299344874
H   H72       1.0  0.61640  0.95370  0.63460  1.0000 0.1299344874
H   H73       1.0  0.04510  0.25440  0.89780  1.0000 0.1110911949
H   H74       1.0  0.95490  0.74560  0.89780  1.0000 0.1110911949
H   H75       1.0  0.74560  0.04510  0.10220  1.0000 0.1110911949
H   H76       1.0  0.25440  0.95490  0.10220  1.0000 0.1110911949
H   H77       1.0  0.95490  0.25440  0.39780  1.0000 0.1110911949
H   H78       1.0  0.04510  0.74560  0.39780  1.0000 0.1110911949
H   H79       1.0  0.25440  0.04510  0.60220  1.0000 0.1110911949
H   H80       1.0  0.74560  0.95490  0.60220  1.0000 0.1110911949
H   H81       1.0  0.15100  0.29010  0.12220  1.0000 0.1110911949
H   H82       1.0  0.84900  0.70990  0.12220  1.0000 0.1110911949
H   H83       1.0  0.70990  0.15100  0.87780  1.0000 0.1110911949
H   H84       1.0  0.29010  0.84900  0.87780  1.0000 0.1110911949
H   H85       1.0  0.84900  0.29010  0.62220  1.0000 0.1110911949
H   H86       1.0  0.15100  0.70990  0.62220  1.0000 0.1110911949
H   H87       1.0  0.29010  0.15100  0.37780  1.0000 0.1110911949
H   H88       1.0  0.70990  0.84900  0.37780  1.0000 0.1110911949
H   H89       1.0  0.15810  0.41950  0.09390  1.0000 0.1299344874
H   H90       1.0  0.84190  0.58050  0.09390  1.0000 0.1299344874
H   H91       1.0  0.58050  0.15810  0.90610  1.0000 0.1299344874
H   H92       1.0  0.41950  0.84190  0.90610  1.0000 0.1299344874
H   H93       1.0  0.84190  0.41950  0.59390  1.0000 0.1299344874
H   H94       1.0  0.15810  0.58050  0.59390  1.0000 0.1299344874
H   H95       1.0  0.41950  0.15810  0.40610  1.0000 0.1299344874
H   H96       1.0  0.58050  0.84190  0.40610  1.0000 0.1299344874
C   C1        1.0  0.12550  0.05070  0.90260  1.0000 0.5473869434
C   C2        1.0  0.87450  0.94930  0.90260  1.0000 0.5473869434
C   C3        1.0  0.94930  0.12550  0.09740  1.0000 0.5473869434
C   C4        1.0  0.05070  0.87450  0.09740  1.0000 0.5473869434
C   C5        1.0  0.87450  0.05070  0.40260  1.0000 0.5473869434
C   C6        1.0  0.12550  0.94930  0.40260  1.0000 0.5473869434
C   C7        1.0  0.05070  0.12550  0.59740  1.0000 0.5473869434
C   C8        1.0  0.94930  0.87450  0.59740  1.0000 0.5473869434
C   C9        1.0  0.14590  0.00450  0.82240  1.0000 0.1110911949
C   C10       1.0  0.85410  0.99550  0.82240  1.0000 0.1110911949
C   C11       1.0  0.99550  0.14590  0.17760  1.0000 0.1110911949
C   C12       1.0  0.00450  0.85410  0.17760  1.0000 0.1110911949
C   C13       1.0  0.85410  0.00450  0.32240  1.0000 0.1110911949
C   C14       1.0  0.14590  0.99550  0.32240  1.0000 0.1110911949
C   C15       1.0  0.00450  0.14590  0.67760  1.0000 0.1110911949
C   C16       1.0  0.99550  0.85410  0.67760  1.0000 0.1110911949
C   C17       1.0  0.22640  0.02660  0.79460  1.0000 -0.4752950081
C   C18       1.0  0.77360  0.97340  0.79460  1.0000 -0.4752950081
C   C19       1.0  0.97340  0.22640  0.20540  1.0000 -0.4752950081
C   C20       1.0  0.02660  0.77360  0.20540  1.0000 -0.4752950081
C   C21       1.0  0.77360  0.02660  0.29460  1.0000 -0.4752950081
C   C22       1.0  0.22640  0.97340  0.29460  1.0000 -0.4752950081
C   C23       1.0  0.02660  0.22640  0.70540  1.0000 -0.4752950081
C   C24       1.0  0.97340  0.77360  0.70540  1.0000 -0.4752950081
C   C25       1.0  0.14100  0.73540  0.88880  1.0000 0.5769295385
C   C26       1.0  0.85900  0.26460  0.88880  1.0000 0.5769295385
C   C27       1.0  0.26460  0.14100  0.11120  1.0000 0.5769295385
C   C28       1.0  0.73540  0.85900  0.11120  1.0000 0.5769295385
C   C29       1.0  0.85900  0.73540  0.38880  1.0000 0.5769295385
C   C30       1.0  0.14100  0.26460  0.38880  1.0000 0.5769295385
C   C31       1.0  0.73540  0.14100  0.61120  1.0000 0.5769295385
C   C32       1.0  0.26460  0.85900  0.61120  1.0000 0.5769295385
C   C33       1.0  0.13100  0.65250  0.91090  1.0000 -0.0318273273
C   C34       1.0  0.86900  0.34750  0.91090  1.0000 -0.0318273273
C   C35       1.0  0.34750  0.13100  0.08910  1.0000 -0.0318273273
C   C36       1.0  0.65250  0.86900  0.08910  1.0000 -0.0318273273
C   C37       1.0  0.86900  0.65250  0.41090  1.0000 -0.0318273273
C   C38       1.0  0.13100  0.34750  0.41090  1.0000 -0.0318273273
C   C39       1.0  0.65250  0.13100  0.58910  1.0000 -0.0318273273
C   C40       1.0  0.34750  0.86900  0.58910  1.0000 -0.0318273273
C   C41       1.0  0.12100  0.63070  0.99720  1.0000 -0.0959077124
C   C42       1.0  0.87900  0.36930  0.99720  1.0000 -0.0959077124
C   C43       1.0  0.36930  0.12100  0.00280  1.0000 -0.0959077124
C   C44       1.0  0.63070  0.87900  0.00280  1.0000 -0.0959077124
C   C45       1.0  0.87900  0.63070  0.49720  1.0000 -0.0959077124
C   C46       1.0  0.12100  0.36930  0.49720  1.0000 -0.0959077124
C   C47       1.0  0.63070  0.12100  0.50280  1.0000 -0.0959077124
C   C48       1.0  0.36930  0.87900  0.50280  1.0000 -0.0959077124
C   C49       1.0  0.11010  0.55460  0.01820  1.0000 -0.1532573925
C   C50       1.0  0.88990  0.44540  0.01820  1.0000 -0.1552777001
C   C51       1.0  0.44540  0.11010  0.98180  1.0000 -0.1552777001
C   C52       1.0  0.55460  0.88990  0.98180  1.0000 -0.1552777001
C   C53       1.0  0.88990  0.55460  0.51820  1.0000 -0.1552777001
C   C54       1.0  0.11010  0.44540  0.51820  1.0000 -0.1552777001
C   C55       1.0  0.55460  0.11010  0.48180  1.0000 -0.1552777001
C   C56       1.0  0.44540  0.88990  0.48180  1.0000 -0.1552777001
C   C57       1.0  0.11300  0.49810  0.95210  1.0000 0.0676041236
C   C58       1.0  0.88700  0.50190  0.95210  1.0000 0.0676041236
C   C59       1.0  0.50190  0.11300  0.04790  1.0000 0.0676041236
C   C60       1.0  0.49810  0.88700  0.04790  1.0000 0.0676041236
C   C61       1.0  0.88700  0.49810  0.45210  1.0000 0.0676041236
C   C62       1.0  0.11300  0.50190  0.45210  1.0000 0.0676041236
C   C63       1.0  0.49810  0.11300  0.54790  1.0000 0.0676041236
C   C64       1.0  0.50190  0.88700  0.54790  1.0000 0.0676041236
C   C65       1.0  0.12410  0.52120  0.86530  1.0000 -0.1532573925
C   C66       1.0  0.87590  0.47880  0.86530  1.0000 -0.1532573925
C   C67       1.0  0.47880  0.12410  0.13470  1.0000 -0.1532573925
C   C68       1.0  0.52120  0.87590  0.13470  1.0000 -0.1532573925
C   C69       1.0  0.87590  0.52120  0.36530  1.0000 -0.1532573925
C   C70       1.0  0.12410  0.47880  0.36530  1.0000 -0.1532573925
C   C71       1.0  0.52120  0.12410  0.63470  1.0000 -0.1532573925
C   C72       1.0  0.47880  0.87590  0.63470  1.0000 -0.1532573925
C   C73       1.0  0.13280  0.59790  0.84420  1.0000 -0.1079849917
C   C74       1.0  0.86720  0.40210  0.84420  1.0000 -0.1079849917
C   C75       1.0  0.40210  0.13280  0.15580  1.0000 -0.1079849917
C   C76       1.0  0.59790  0.86720  0.15580  1.0000 -0.1079849917
C   C77       1.0  0.86720  0.59790  0.34420  1.0000 -0.1079849917
C   C78       1.0  0.13280  0.40210  0.34420  1.0000 -0.1079849917
C   C79       1.0  0.59790  0.13280  0.65580  1.0000 -0.1079849917
C   C80       1.0  0.40210  0.86720  0.65580  1.0000 -0.1079849917
C   C81       1.0  0.10550  0.41600  0.97480  1.0000 0.1110911949
C   C82       1.0  0.89450  0.58400  0.97480  1.0000 0.1110911949
C   C83       1.0  0.58400  0.10550  0.02520  1.0000 0.1110911949
C   C84       1.0  0.41600  0.89450  0.02520  1.0000 0.1110911949
C   C85       1.0  0.89450  0.41600  0.47480  1.0000 0.1110911949
C   C86       1.0  0.10550  0.58400  0.47480  1.0000 0.1110911949
C   C87       1.0  0.41600  0.10550  0.52520  1.0000 0.1110911949
C   C88       1.0  0.58400  0.89450  0.52520  1.0000 0.1110911949
C   C89       1.0  0.06970  0.36560  0.91810  1.0000 -0.1922359857
C   C90       1.0  0.93030  0.63440  0.91810  1.0000 -0.1922359857
C   C91       1.0  0.63440  0.06970  0.08190  1.0000 -0.1922359857
C   C92       1.0  0.36560  0.93030  0.08190  1.0000 -0.1922359857
C   C93       1.0  0.93030  0.36560  0.41810  1.0000 -0.1922359857
C   C94       1.0  0.06970  0.63440  0.41810  1.0000 -0.1922359857
C   C95       1.0  0.36560  0.06970  0.58190  1.0000 -0.1922359857
C   C96       1.0  0.63440  0.93030  0.58190  1.0000 -0.1922359857
C   C97       1.0  0.06810  0.28850  0.93870  1.0000 0.0994002177
C   C98       1.0  0.93190  0.71150  0.93870  1.0000 0.0994002177
C   C99       1.0  0.71150  0.06810  0.06130  1.0000 0.0994002177
C   C100      1.0  0.28850  0.93190  0.06130  1.0000 0.0994002177
C   C101      1.0  0.93190  0.28850  0.43870  1.0000 0.0994002177
C   C102      1.0  0.06810  0.71150  0.43870  1.0000 0.0994002177
C   C103      1.0  0.28850  0.06810  0.56130  1.0000 0.0994002177
C   C104      1.0  0.71150  0.93190  0.56130  1.0000 0.0994002177
C   C105      1.0  0.13000  0.30920  0.06870  1.0000 0.0796836419
C   C106      1.0  0.87000  0.69080  0.06870  1.0000 0.0796836419
C   C107      1.0  0.69080  0.13000  0.93130  1.0000 0.0796836419
C   C108      1.0  0.30920  0.87000  0.93130  1.0000 0.0796836419
C   C109      1.0  0.87000  0.30920  0.56870  1.0000 0.0796836419
C   C110      1.0  0.13000  0.69080  0.56870  1.0000 0.0796836419
C   C111      1.0  0.30920  0.13000  0.43130  1.0000 0.0796836419
C   C112      1.0  0.69080  0.87000  0.43130  1.0000 0.0796836419
C   C113      1.0  0.13470  0.38660  0.05200  1.0000 -0.1922359857
C   C114      1.0  0.86530  0.61340  0.05200  1.0000 -0.1922359857
C   C115      1.0  0.61340  0.13470  0.94800  1.0000 -0.1922359857
C   C116      1.0  0.38660  0.86530  0.94800  1.0000 -0.1922359857
C   C117      1.0  0.86530  0.38660  0.55200  1.0000 -0.1922359857
C   C118      1.0  0.13470  0.61340  0.55200  1.0000 -0.1922359857
C   C119      1.0  0.38660  0.13470  0.44800  1.0000 -0.1922359857
C   C120      1.0  0.61340  0.86530  0.44800  1.0000 -0.1922359857
N   N1        1.0  0.09710  0.26000  0.01280  1.0000 -0.2419440458
N   N2        1.0  0.90290  0.74000  0.01280  1.0000 -0.2419440458
N   N3        1.0  0.74000  0.09710  0.98720  1.0000 -0.2419440458
N   N4        1.0  0.26000  0.90290  0.98720  1.0000 -0.2419440458
N   N5        1.0  0.90290  0.26000  0.51280  1.0000 -0.2419440458
N   N6        1.0  0.09710  0.74000  0.51280  1.0000 -0.2419440458
N   N7        1.0  0.26000  0.09710  0.48720  1.0000 -0.2419440458
N   N8        1.0  0.74000  0.90290  0.48720  1.0000 -0.2419440458
O   O1        1.0  0.11350  0.12163  0.89640  1.0000 -0.5156077156
O   O2        1.0  0.88650  0.87837  0.89640  1.0000 -0.5156077156
O   O3        1.0  0.87837  0.11350  0.10360  1.0000 -0.5156077156
O   O4        1.0  0.12163  0.88650  0.10360  1.0000 -0.5156077156
O   O5        1.0  0.88650  0.12163  0.39640  1.0000 -0.5156077156
O   O6        1.0  0.11350  0.87837  0.39640  1.0000 -0.5156077156
O   O7        1.0  0.12163  0.11350  0.60360  1.0000 -0.5156077156
O   O8        1.0  0.87837  0.88650  0.60360  1.0000 -0.5156077156
O   O9        1.0  0.12223  0.01782  0.97720  1.0000 -0.5415634522
O   O10       1.0  0.87777  0.98218  0.97720  1.0000 -0.5415634522
O   O11       1.0  0.98218  0.12223  0.02280  1.0000 -0.5415634522
O   O12       1.0  0.01782  0.87777  0.02280  1.0000 -0.5415634522
O   O13       1.0  0.87777  0.01782  0.47720  1.0000 -0.5415634522
O   O14       1.0  0.12223  0.98218  0.47720  1.0000 -0.5415634522
O   O15       1.0  0.01782  0.12223  0.52280  1.0000 -0.5415634522
O   O16       1.0  0.98218  0.87777  0.52280  1.0000 -0.5415634522
O   O17       1.0  0.13949  0.92585  0.84150  1.0000 -0.6292955885
O   O18       1.0  0.86051  0.07415  0.84150  1.0000 -0.6292955885
O   O19       1.0  0.07415  0.13949  0.15850  1.0000 -0.6292955885
O   O20       1.0  0.92585  0.86051  0.15850  1.0000 -0.6292955885
O   O21       1.0  0.86051  0.92585  0.34150  1.0000 -0.6292955885
O   O22       1.0  0.13949  0.07415  0.34150  1.0000 -0.6292955885
O   O23       1.0  0.92585  0.13949  0.65850  1.0000 -0.6292955885
O   O24       1.0  0.07415  0.86051  0.65850  1.0000 -0.6292955885
O   O25       1.0  0.14810  0.75099  0.80700  1.0000 -0.5815615663
O   O26       1.0  0.85190  0.24901  0.80700  1.0000 -0.5815615663
O   O27       1.0  0.24901  0.14810  0.19300  1.0000 -0.5815615663
O   O28       1.0  0.75099  0.85190  0.19300  1.0000 -0.5815615663
O   O29       1.0  0.85190  0.75099  0.30700  1.0000 -0.5815615663
O   O30       1.0  0.14810  0.24901  0.30700  1.0000 -0.5815615663
O   O31       1.0  0.75099  0.14810  0.69300  1.0000 -0.5815615663
O   O32       1.0  0.24901  0.85190  0.69300  1.0000 -0.5815615663
O   O33       1.0  0.14188  0.78275  0.95110  1.0000 -0.5503609189
O   O34       1.0  0.85812  0.21725  0.95110  1.0000 -0.5503609189
O   O35       1.0  0.21725  0.14188  0.04890  1.0000 -0.5503609189
O   O36       1.0  0.78275  0.85812  0.04890  1.0000 -0.5503609189
O   O37       1.0  0.85812  0.78275  0.45110  1.0000 -0.5503609189
O   O38       1.0  0.14188  0.21725  0.45110  1.0000 -0.5503609189
O   O39       1.0  0.78275  0.14188  0.54890  1.0000 -0.5503609189
O   O40       1.0  0.21725  0.85812  0.54890  1.0000 -0.5503609189
