# DDEC6 charges by PACMAN v1.1 (https://github.com/mtap-research/PACMAN-charge/)
data_2014[Mg][nan]3[FSR]7
_chemical_formula_sum              "Mg4 H32 C52 N4 O20"
_cell_length_a       12.4028
_cell_length_b       12.4028
_cell_length_c       12.857
_cell_angle_alpha    65.4285
_cell_angle_beta     114.571
_cell_angle_gamma    88.627

_symmetry_space_group_name_H-M    "P 1"
_symmetry_Int_Tables_number       1

loop_
  _symmetry_equiv_pos_as_xyz
  'x, y, z'

loop_
  _atom_site_type_symbol
  _atom_site_label
  _atom_site_symmetry_multiplicity
  _atom_site_fract_x
  _atom_site_fract_y
  _atom_site_fract_z
  _atom_site_occupancy
  _atom_site_charge
Mg  Mg1       1.0  0.50000  0.00000  0.50000  1.0000 1.3535361136
Mg  Mg2       1.0  0.00000  0.50000  0.00000  1.0000 1.3535361136
Mg  Mg3       1.0  0.30517  0.30517  0.25000  1.0000 1.3586206282
Mg  Mg4       1.0  0.69483  0.69483  0.75000  1.0000 1.3586206282
H   H1        1.0  0.55610  0.46950  0.40220  1.0000 0.1309233973
H   H2        1.0  0.46950  0.55610  0.09780  1.0000 0.1309233973
H   H3        1.0  0.44390  0.53050  0.59780  1.0000 0.1309233973
H   H4        1.0  0.53050  0.44390  0.90220  1.0000 0.1309233973
H   H5        1.0  0.66460  0.57740  0.50090  1.0000 0.1232331018
H   H6        1.0  0.57740  0.66460  0.99910  1.0000 0.1232331018
H   H7        1.0  0.33540  0.42260  0.49910  1.0000 0.1232331018
H   H8        1.0  0.42260  0.33540  0.00090  1.0000 0.1232331018
H   H9        1.0  0.85320  0.26740  0.82800  1.0000 0.1113034314
H   H10       1.0  0.26740  0.85320  0.67200  1.0000 0.1113034314
H   H11       1.0  0.14680  0.73260  0.17200  1.0000 0.1113034314
H   H12       1.0  0.73260  0.14680  0.32800  1.0000 0.1113034314
H   H13       1.0  0.73810  0.15950  0.73200  1.0000 0.1113034314
H   H14       1.0  0.15950  0.73810  0.76800  1.0000 0.1113034314
H   H15       1.0  0.26190  0.84050  0.26800  1.0000 0.1113034314
H   H16       1.0  0.84050  0.26190  0.23200  1.0000 0.1113034314
H   H17       1.0  0.22250  0.20910  0.48100  1.0000 0.1503550852
H   H18       1.0  0.20910  0.22250  0.01900  1.0000 0.1503550852
H   H19       1.0  0.77750  0.79090  0.51900  1.0000 0.1503550852
H   H20       1.0  0.79090  0.77750  0.98100  1.0000 0.1503550852
H   H21       1.0  0.07290  0.15130  0.53670  1.0000 0.1370547558
H   H22       1.0  0.15130  0.07290  0.96330  1.0000 0.1370547558
H   H23       1.0  0.92710  0.84870  0.46330  1.0000 0.1370547558
H   H24       1.0  0.84870  0.92710  0.03670  1.0000 0.1370547558
H   H25       1.0  0.05910  0.90370  0.41180  1.0000 0.1370547558
H   H26       1.0  0.90370  0.05910  0.08820  1.0000 0.1370547558
H   H27       1.0  0.94090  0.09630  0.58820  1.0000 0.1370547558
H   H28       1.0  0.09630  0.94090  0.91180  1.0000 0.1370547558
H   H29       1.0  0.21310  0.96350  0.36150  1.0000 0.1309233973
H   H30       1.0  0.96350  0.21310  0.13850  1.0000 0.1309233973
H   H31       1.0  0.78690  0.03650  0.63850  1.0000 0.1309233973
H   H32       1.0  0.03650  0.78690  0.86150  1.0000 0.1309233973
C   C1        1.0  0.63360  0.30360  0.55730  1.0000 -0.0187632759
C   C2        1.0  0.30360  0.63360  0.94270  1.0000 -0.0187632759
C   C3        1.0  0.36640  0.69640  0.44270  1.0000 -0.0187632759
C   C4        1.0  0.69640  0.36640  0.05730  1.0000 -0.0187632759
C   C5        1.0  0.61420  0.42840  0.48900  1.0000 -0.0968862777
C   C6        1.0  0.42840  0.61420  0.01100  1.0000 -0.0968862777
C   C7        1.0  0.38580  0.57160  0.51100  1.0000 -0.0968862777
C   C8        1.0  0.57160  0.38580  0.98900  1.0000 -0.0968862777
C   C9        1.0  0.67990  0.49310  0.54800  1.0000 -0.0945296293
C   C10       1.0  0.49310  0.67990  0.95200  1.0000 -0.0945296293
C   C11       1.0  0.32010  0.50690  0.45200  1.0000 -0.0945296293
C   C12       1.0  0.50690  0.32010  0.04800  1.0000 -0.0945296293
C   C13       1.0  0.76802  0.43402  0.67560  1.0000 -0.0187632759
C   C14       1.0  0.43402  0.76802  0.82440  1.0000 -0.0187632759
C   C15       1.0  0.23198  0.56598  0.32440  1.0000 -0.0187632759
C   C16       1.0  0.56598  0.23198  0.17560  1.0000 -0.0187632759
C   C17       1.0  0.79130  0.30870  0.74290  1.0000 -0.1088556093
C   C18       1.0  0.30870  0.79130  0.75710  1.0000 -0.1088556093
C   C19       1.0  0.20870  0.69130  0.25710  1.0000 -0.1088556093
C   C20       1.0  0.69130  0.20870  0.24290  1.0000 -0.1088556093
C   C21       1.0  0.72320  0.24380  0.68480  1.0000 -0.1225484242
C   C22       1.0  0.24380  0.72320  0.81520  1.0000 -0.1225484242
C   C23       1.0  0.27680  0.75620  0.31520  1.0000 -0.1225484242
C   C24       1.0  0.75620  0.27680  0.18480  1.0000 -0.1225484242
C   C25       1.0  0.55260  0.23600  0.49510  1.0000 0.6222318853
C   C26       1.0  0.23600  0.55260  0.00490  1.0000 0.6222318853
C   C27       1.0  0.44740  0.76400  0.50490  1.0000 0.6222318853
C   C28       1.0  0.76400  0.44740  0.99510  1.0000 0.6222318853
C   C29       1.0  0.83056  0.50556  0.74380  1.0000 0.6288646454
C   C30       1.0  0.50556  0.83056  0.75620  1.0000 0.6288646454
C   C31       1.0  0.16944  0.49444  0.25620  1.0000 0.6288646454
C   C32       1.0  0.49444  0.16944  0.24380  1.0000 0.6288646454
C   C33       1.0  0.18950  0.14650  0.46800  1.0000 -0.0074850372
C   C34       1.0  0.14650  0.18950  0.03200  1.0000 -0.0074850372
C   C35       1.0  0.81050  0.85350  0.53200  1.0000 -0.0074850372
C   C36       1.0  0.85350  0.81050  0.96800  1.0000 -0.0074850372
C   C37       1.0  0.09970  0.11230  0.50070  1.0000 -0.1794057978
C   C38       1.0  0.11230  0.09970  0.99930  1.0000 -0.1794057978
C   C39       1.0  0.90030  0.88770  0.49930  1.0000 -0.1794057978
C   C40       1.0  0.88770  0.90030  0.00070  1.0000 -0.1794057978
C   C41       1.0  0.04780  0.02020  0.48120  1.0000 0.0902217807
C   C42       1.0  0.02020  0.04780  0.01880  1.0000 0.0902217807
C   C43       1.0  0.95220  0.97980  0.51880  1.0000 0.0902217807
C   C44       1.0  0.97980  0.95220  0.98120  1.0000 0.0902217807
C   C45       1.0  0.09190  0.96550  0.42740  1.0000 -0.2015310866
C   C46       1.0  0.96550  0.09190  0.07260  1.0000 -0.2015310866
C   C47       1.0  0.90810  0.03450  0.57260  1.0000 -0.2015310866
C   C48       1.0  0.03450  0.90810  0.92740  1.0000 -0.2015310866
C   C49       1.0  0.18370  0.00150  0.39670  1.0000 -0.0321957297
C   C50       1.0  0.00150  0.18370  0.10330  1.0000 -0.0321957297
C   C51       1.0  0.81630  0.99850  0.60330  1.0000 -0.0321957297
C   C52       1.0  0.99850  0.81630  0.89670  1.0000 -0.0321957297
N   N1        1.0  0.23046  0.09066  0.41740  1.0000 0.3284199382
N   N2        1.0  0.09066  0.23046  0.08260  1.0000 0.3284199382
N   N3        1.0  0.76954  0.90934  0.58260  1.0000 0.3284199382
N   N4        1.0  0.90934  0.76954  0.91740  1.0000 0.3284199382
O   O1        1.0  0.57255  0.12163  0.56290  1.0000 -0.6504392778
O   O2        1.0  0.12163  0.57255  0.93710  1.0000 -0.6504392778
O   O3        1.0  0.42745  0.87837  0.43710  1.0000 -0.6504392778
O   O4        1.0  0.87837  0.42745  0.06290  1.0000 -0.6504392778
O   O5        1.0  0.47107  0.29877  0.38070  1.0000 -0.6329606926
O   O6        1.0  0.29877  0.47107  0.11930  1.0000 -0.6329606926
O   O7        1.0  0.52893  0.70123  0.61930  1.0000 -0.6329606926
O   O8        1.0  0.70123  0.52893  0.88070  1.0000 -0.6329606926
O   O9        1.0  0.92221  0.45011  0.85330  1.0000 -0.6232292359
O   O10       1.0  0.45011  0.92221  0.64670  1.0000 -0.6232292359
O   O11       1.0  0.07779  0.54989  0.14670  1.0000 -0.6232292359
O   O12       1.0  0.54989  0.07779  0.35330  1.0000 -0.6232292359
O   O13       1.0  0.78277  0.61863  0.68590  1.0000 -0.6669778978
O   O14       1.0  0.61863  0.78277  0.81410  1.0000 -0.6669778978
O   O15       1.0  0.21723  0.38137  0.31410  1.0000 -0.6669778978
O   O16       1.0  0.38137  0.21723  0.18590  1.0000 -0.6669778978
O   O17       1.0  0.31863  0.12387  0.38680  1.0000 -0.6033967291
O   O18       1.0  0.12387  0.31863  0.11320  1.0000 -0.6033967291
O   O19       1.0  0.68137  0.87613  0.61320  1.0000 -0.6033967291
O   O20       1.0  0.87613  0.68137  0.88680  1.0000 -0.6033967291
