# DDEC6 charges by PACMAN v1.1 (https://github.com/mtap-research/PACMAN-charge/)
data_2014[SmU][nan]3[FSR]1
_chemical_formula_sum              "Sm2 U3 H26 C30 O40"
_cell_length_a       10.67
_cell_length_b       11.4911
_cell_length_c       13.4448
_cell_angle_alpha    69.159
_cell_angle_beta     78.913
_cell_angle_gamma    63.132

_symmetry_space_group_name_H-M    "P 1"
_symmetry_Int_Tables_number       1

loop_
  _symmetry_equiv_pos_as_xyz
  'x, y, z'

loop_
  _atom_site_type_symbol
  _atom_site_label
  _atom_site_symmetry_multiplicity
  _atom_site_fract_x
  _atom_site_fract_y
  _atom_site_fract_z
  _atom_site_occupancy
  _atom_site_charge
Sm  Sm1       1.0  0.60537  0.22611  0.75293  1.0000 2.1862654606
Sm  Sm2       1.0  0.39463  0.77389  0.24707  1.0000 2.1862654606
U   U1        1.0  0.62675  0.71024  0.83613  1.0000 2.3814931233
U   U2        1.0  0.37325  0.28976  0.16387  1.0000 2.3814931233
U   U3        1.0  0.00000  0.50000  0.50000  1.0000 2.3814931233
H   H1        1.0  0.09900  0.36030  0.95670  1.0000 0.1400341311
H   H2        1.0  0.90100  0.63970  0.04330  1.0000 0.1400341311
H   H3        1.0  0.16530  0.10580  0.73490  1.0000 0.1309597114
H   H4        1.0  0.83470  0.89420  0.26510  1.0000 0.1309597114
H   H5        1.0  0.70980  0.99990  0.41540  1.0000 0.1309597114
H   H6        1.0  0.29020  0.00010  0.58460  1.0000 0.1309597114
H   H7        1.0  0.75540  0.92660  0.85380  1.0000 0.4119006911
H   H8        1.0  0.24460  0.07340  0.14620  1.0000 0.4119006911
H   H9        1.0  0.86080  0.98660  0.85290  1.0000 0.4263156445
H   H10       1.0  0.13920  0.01340  0.14710  1.0000 0.421748499
H   H11       1.0  0.43740  0.48510  0.81070  1.0000 0.4263156445
H   H12       1.0  0.56260  0.51490  0.18930  1.0000 0.4263156445
H   H13       1.0  0.57690  0.41490  0.87070  1.0000 0.4373609343
H   H14       1.0  0.42310  0.58510  0.12930  1.0000 0.4373609343
H   H15       1.0  0.31770  0.45890  0.69360  1.0000 0.421748499
H   H16       1.0  0.68230  0.54110  0.30640  1.0000 0.421748499
H   H17       1.0  0.33640  0.35820  0.63330  1.0000 0.4263156445
H   H18       1.0  0.66360  0.64180  0.36670  1.0000 0.4263156445
H   H19       1.0  0.53260  0.48640  0.57230  1.0000 0.4012139211
H   H20       1.0  0.46740  0.51360  0.42770  1.0000 0.4012139211
H   H21       1.0  0.69320  0.43140  0.58630  1.0000 0.421748499
H   H22       1.0  0.30680  0.56860  0.41370  1.0000 0.421748499
H   H23       1.0  0.67030  0.17540  0.54640  1.0000 0.4012139211
H   H24       1.0  0.32970  0.82460  0.45360  1.0000 0.4012139211
H   H25       1.0  0.80920  0.08530  0.60800  1.0000 0.4263156445
H   H26       1.0  0.19080  0.91470  0.39200  1.0000 0.4263156445
C   C1        1.0  0.00240  0.34070  0.85080  1.0000 -0.0230176538
C   C2        1.0  0.99760  0.65930  0.14920  1.0000 -0.0230176538
C   C3        1.0  0.11430  0.31370  0.90830  1.0000 -0.1086622706
C   C4        1.0  0.88570  0.68630  0.09170  1.0000 -0.1086622706
C   C5        1.0  0.24920  0.21650  0.89250  1.0000 -0.0806672057
C   C6        1.0  0.75080  0.78350  0.10750  1.0000 -0.0806672057
C   C7        1.0  0.26950  0.14050  0.82490  1.0000 -0.0289473762
C   C8        1.0  0.73050  0.85950  0.17510  1.0000 -0.0289473762
C   C9        1.0  0.15330  0.16150  0.77510  1.0000 -0.1523287377
C   C10       1.0  0.84670  0.83850  0.22490  1.0000 -0.1523287377
C   C11       1.0  0.02090  0.26390  0.78470  1.0000 -0.0355027603
C   C12       1.0  0.97910  0.73610  0.21530  1.0000 -0.0355027603
C   C13       1.0  0.62550  0.00000  0.45010  1.0000 -0.1330990723
C   C14       1.0  0.37450  0.00000  0.54990  1.0000 -0.1330990723
C   C15       1.0  0.61860  0.87470  0.50710  1.0000 -0.0355027603
C   C16       1.0  0.38140  0.12530  0.49290  1.0000 -0.0355027603
C   C17       1.0  0.49000  0.87500  0.55640  1.0000 -0.0516505918
C   C18       1.0  0.51000  0.12500  0.44360  1.0000 -0.0516505918
C   C19       1.0  0.86680  0.46260  0.85720  1.0000 0.5582678834
C   C20       1.0  0.13320  0.53740  0.14280  1.0000 0.5582678834
C   C21       1.0  0.36120  0.19490  0.95790  1.0000 0.6544003406
C   C22       1.0  0.63880  0.80510  0.04210  1.0000 0.6544003406
C   C23       1.0  0.41040  0.03810  0.79970  1.0000 0.619599692
C   C24       1.0  0.58960  0.96190  0.20030  1.0000 0.619599692
C   C25       1.0  0.90280  0.28680  0.72420  1.0000 0.6666799107
C   C26       1.0  0.09720  0.71320  0.27580  1.0000 0.6666799107
C   C27       1.0  0.47130  0.74490  0.62120  1.0000 0.619599692
C   C28       1.0  0.52870  0.25510  0.37880  1.0000 0.619599692
C   C29       1.0  0.74630  0.74630  0.50990  1.0000 0.5582678834
C   C30       1.0  0.25370  0.25370  0.49010  1.0000 0.5582678834
O   O1        1.0  0.54000  0.63130  0.94260  1.0000 -0.6509413303
O   O2        1.0  0.46000  0.36870  0.05740  1.0000 -0.6509413303
O   O3        1.0  0.71840  0.78740  0.73080  1.0000 -0.6652934631
O   O4        1.0  0.28160  0.21260  0.26920  1.0000 -0.6652934631
O   O5        1.0  0.07030  0.50190  0.60900  1.0000 -0.6853419026
O   O6        1.0  0.92970  0.49810  0.39100  1.0000 -0.6847522935
O   O7        1.0  0.85360  0.53440  0.91280  1.0000 -0.5564166388
O   O8        1.0  0.14640  0.46560  0.08720  1.0000 -0.5564166388
O   O9        1.0  0.76740  0.49260  0.80080  1.0000 -0.5790321311
O   O10       1.0  0.23260  0.50740  0.19920  1.0000 -0.5790321311
O   O11       1.0  0.82470  0.22850  0.76910  1.0000 -0.6509413303
O   O12       1.0  0.17530  0.77150  0.23090  1.0000 -0.6509413303
O   O13       1.0  0.89140  0.36130  0.62600  1.0000 -0.6122731721
O   O14       1.0  0.10860  0.63870  0.37400  1.0000 -0.6122731721
O   O15       1.0  0.41970  0.91710  0.82200  1.0000 -0.6122731721
O   O16       1.0  0.58030  0.08290  0.17800  1.0000 -0.6122731721
O   O17       1.0  0.50400  0.07190  0.75690  1.0000 -0.6122731721
O   O18       1.0  0.49600  0.92810  0.24310  1.0000 -0.6122731721
O   O19       1.0  0.48180  0.17460  0.91890  1.0000 -0.6509413303
O   O20       1.0  0.51820  0.82540  0.08110  1.0000 -0.6509413303
O   O21       1.0  0.32400  0.20110  0.05200  1.0000 -0.6257574638
O   O22       1.0  0.67600  0.79890  0.94800  1.0000 -0.6257574638
O   O23       1.0  0.50590  0.69440  0.71690  1.0000 -0.6122731721
O   O24       1.0  0.49410  0.30560  0.28310  1.0000 -0.6122731721
O   O25       1.0  0.41560  0.70130  0.57870  1.0000 -0.5308538756
O   O26       1.0  0.58440  0.29870  0.42130  1.0000 -0.5308538756
O   O27       1.0  0.73610  0.63280  0.53560  1.0000 -0.596780189
O   O28       1.0  0.26390  0.36720  0.46440  1.0000 -0.596780189
O   O29       1.0  0.86260  0.74990  0.47860  1.0000 -0.5509955069
O   O30       1.0  0.13740  0.25010  0.52140  1.0000 -0.5509955069
O   O31       1.0  0.77640  0.99910  0.83740  1.0000 -0.8387936196
O   O32       1.0  0.22360  0.00090  0.16260  1.0000 -0.8387936196
O   O33       1.0  0.52250  0.41510  0.82700  1.0000 -0.8387936196
O   O34       1.0  0.47750  0.58490  0.17300  1.0000 -0.8387936196
O   O35       1.0  0.36980  0.38060  0.67710  1.0000 -0.8387936196
O   O36       1.0  0.63020  0.61940  0.32290  1.0000 -0.8387936196
O   O37       1.0  0.61160  0.42260  0.60650  1.0000 -0.8387936196
O   O38       1.0  0.38840  0.57740  0.39350  1.0000 -0.8387936196
O   O39       1.0  0.71830  0.14550  0.60520  1.0000 -0.8387936196
O   O40       1.0  0.28170  0.85450  0.39480  1.0000 -0.8387936196
