# DDEC6 charges by PACMAN v1.1 (https://github.com/mtap-research/PACMAN-charge/)
data_2014[Zn][hms]3[FSR]1
_chemical_formula_sum              "Zn2 H44 C68 N8 O8"
_cell_length_a       11.4424
_cell_length_b       15.1352
_cell_length_c       15.2141
_cell_angle_alpha    112.002
_cell_angle_beta     96.433
_cell_angle_gamma    98.574

_symmetry_space_group_name_H-M    "P 1"
_symmetry_Int_Tables_number       1

loop_
  _symmetry_equiv_pos_as_xyz
  'x, y, z'

loop_
  _atom_site_type_symbol
  _atom_site_label
  _atom_site_symmetry_multiplicity
  _atom_site_fract_x
  _atom_site_fract_y
  _atom_site_fract_z
  _atom_site_occupancy
  _atom_site_charge
Zn  Zn1       1.0  0.64960  0.86101  0.26904  1.0000 0.7137602121
Zn  Zn2       1.0  0.35040  0.13899  0.73096  1.0000 0.7137602121
H   H1        1.0  0.67260  0.33480  0.36250  1.0000 0.1101773236
H   H2        1.0  0.64960  0.76380  0.80690  1.0000 0.1101773236
H   H3        1.0  0.55630  0.53790  0.93860  1.0000 0.1301543787
H   H4        1.0  0.61810  0.70630  0.65090  1.0000 0.1175496727
H   H5        1.0  0.68520  0.17300  0.30350  1.0000 0.1301543787
H   H6        1.0  0.20620  0.70980  0.20430  1.0000 0.1395079419
H   H7        1.0  0.67810  0.33650  0.62530  1.0000 0.1101773236
H   H8        1.0  0.09900  0.96080  0.39870  1.0000 0.1395079419
H   H9        1.0  0.67610  0.48510  0.42220  1.0000 0.1175496727
H   H10       1.0  0.01750  0.72990  0.15150  1.0000 0.1395079419
H   H11       1.0  0.27010  0.00050  0.33850  1.0000 0.1395079419
H   H12       1.0  0.62880  0.79350  0.56860  1.0000 0.1301543787
H   H13       1.0  0.69770  0.17620  0.56740  1.0000 0.1101773236
H   H14       1.0  0.57670  0.48740  0.77920  1.0000 0.1101773236
H   H15       1.0  0.63520  0.81390  0.96770  1.0000 0.1175496727
H   H16       1.0  0.40860  0.72080  0.21140  1.0000 0.1175496727
H   H17       1.0  0.47040  0.00350  0.33333  1.0000 0.1034713722
H   H18       1.0  0.89880  0.95690  0.39290  1.0000 0.1101773236
H   H19       1.0  0.65630  0.56560  0.34140  1.0000 0.1301543787
H   H20       1.0  0.62760  0.88070  0.47670  1.0000 0.1101773236
H   H21       1.0  0.65450  0.65770  0.25500  1.0000 0.1175496727
H   H22       1.0  0.82150  0.73750  0.15250  1.0000 0.1101773236
H   H23       1.0  0.32740  0.66520  0.63750  1.0000 0.1101773236
H   H24       1.0  0.35040  0.23620  0.19310  1.0000 0.1101773236
H   H25       1.0  0.44370  0.46210  0.06140  1.0000 0.1301543787
H   H26       1.0  0.38190  0.29370  0.34910  1.0000 0.1175496727
H   H27       1.0  0.31480  0.82700  0.69650  1.0000 0.1301543787
H   H28       1.0  0.79380  0.29020  0.79570  1.0000 0.1395079419
H   H29       1.0  0.32190  0.66350  0.37470  1.0000 0.1101773236
H   H30       1.0  0.90100  0.03920  0.60130  1.0000 0.1395079419
H   H31       1.0  0.32390  0.51490  0.57780  1.0000 0.1175496727
H   H32       1.0  0.98250  0.27010  0.84850  1.0000 0.1395079419
H   H33       1.0  0.72990  0.99950  0.66150  1.0000 0.1395079419
H   H34       1.0  0.37120  0.20650  0.43140  1.0000 0.1301543787
H   H35       1.0  0.30230  0.82380  0.43260  1.0000 0.1101773236
H   H36       1.0  0.42330  0.51260  0.22080  1.0000 0.1101773236
H   H37       1.0  0.36480  0.18610  0.03230  1.0000 0.1175496727
H   H38       1.0  0.59140  0.27920  0.78860  1.0000 0.1175496727
H   H39       1.0  0.52960  0.99650  0.66667  1.0000 0.1034713722
H   H40       1.0  0.10120  0.04310  0.60710  1.0000 0.1101773236
H   H41       1.0  0.34370  0.43440  0.65860  1.0000 0.1301543787
H   H42       1.0  0.37240  0.11930  0.52330  1.0000 0.1101773236
H   H43       1.0  0.34550  0.34230  0.74500  1.0000 0.1175496727
H   H44       1.0  0.17850  0.26250  0.84750  1.0000 0.1101773236
C   C1        1.0  0.67670  0.30300  0.40420  1.0000 -0.1523678452
C   C2        1.0  0.63210  0.71780  0.83290  1.0000 -0.1523678452
C   C3        1.0  0.57640  0.58380  0.91290  1.0000 -0.0899441391
C   C4        1.0  0.62940  0.64300  0.62120  1.0000 -0.2427123264
C   C5        1.0  0.68570  0.20610  0.36890  1.0000 -0.1108766198
C   C6        1.0  0.25810  0.77040  0.23190  1.0000 -0.1934582815
C   C7        1.0  0.08460  0.85200  0.27040  1.0000 0.1101773236
C   C8        1.0  0.67350  0.35310  0.50040  1.0000 0.0418209601
C   C9        1.0  0.68080  0.30430  0.56040  1.0000 -0.1341909915
C   C10       1.0  0.64550  0.60790  0.52530  1.0000 0.1175496727
C   C11       1.0  0.61550  0.61870  0.77470  1.0000 0.0418209601
C   C12       1.0  0.66040  0.45690  0.54070  1.0000 0.2099105269
C   C13       1.0  0.21380  0.85520  0.26990  1.0000 0.1101773236
C   C14       1.0  0.04450  0.91540  0.34500  1.0000 -0.2003007532
C   C15       1.0  0.66300  0.51170  0.48530  1.0000 -0.2427123264
C   C16       1.0  0.99680  0.78080  0.20030  1.0000 -0.2003007532
C   C17       1.0  0.64470  0.66720  0.46760  1.0000 0.1101773236
C   C18       1.0  0.29590  0.94250  0.31030  1.0000 -0.1832401007
C   C19       1.0  0.59490  0.68160  0.96980  1.0000 -0.0258327872
C   C20       1.0  0.63490  0.76350  0.50410  1.0000 -0.2084775307
C   C21       1.0  0.69220  0.20780  0.52560  1.0000 -0.1177344062
C   C22       1.0  0.63000  0.58450  0.67190  1.0000 0.2032267749
C   C23       1.0  0.58800  0.55380  0.81660  1.0000 -0.1375801191
C   C24       1.0  0.62260  0.74770  0.92950  1.0000 -0.1032244489
C   C25       1.0  0.38010  0.77800  0.23590  1.0000 0.0889886916
C   C26       1.0  0.70390  0.05240  0.39440  1.0000 0.5259778649
C   C27       1.0  0.69550  0.15840  0.42920  1.0000 -0.0199299008
C   C28       1.0  0.41680  0.94370  0.30860  1.0000 0.0889886916
C   C29       1.0  0.92280  0.91210  0.34090  1.0000 0.0889886916
C   C30       1.0  0.59160  0.71430  0.07630  1.0000 0.5388604849
C   C31       1.0  0.65100  0.63050  0.37180  1.0000 -0.1934582815
C   C32       1.0  0.63400  0.81590  0.44840  1.0000 0.0729035437
C   C33       1.0  0.64960  0.68640  0.31990  1.0000 0.0729035437
C   C34       1.0  0.87860  0.78520  0.20270  1.0000 0.0729035437
C   C35       1.0  0.32330  0.69700  0.59580  1.0000 -0.1523678452
C   C36       1.0  0.36790  0.28220  0.16710  1.0000 -0.1523678452
C   C37       1.0  0.42360  0.41620  0.08710  1.0000 -0.0899441391
C   C38       1.0  0.37060  0.35700  0.37880  1.0000 -0.2427123264
C   C39       1.0  0.31430  0.79390  0.63110  1.0000 -0.1108766198
C   C40       1.0  0.74190  0.22960  0.76810  1.0000 -0.1934582815
C   C41       1.0  0.91540  0.14800  0.72960  1.0000 0.1101773236
C   C42       1.0  0.32650  0.64690  0.49960  1.0000 0.0418209601
C   C43       1.0  0.31920  0.69570  0.43960  1.0000 -0.1341909915
C   C44       1.0  0.35450  0.39210  0.47470  1.0000 0.1175496727
C   C45       1.0  0.38450  0.38130  0.22530  1.0000 0.0418209601
C   C46       1.0  0.33960  0.54310  0.45930  1.0000 0.2099105269
C   C47       1.0  0.78620  0.14480  0.73010  1.0000 0.1101773236
C   C48       1.0  0.95550  0.08460  0.65500  1.0000 -0.2003007532
C   C49       1.0  0.33700  0.48830  0.51470  1.0000 -0.2427123264
C   C50       1.0  0.00320  0.21920  0.79970  1.0000 -0.2003007532
C   C51       1.0  0.35530  0.33280  0.53240  1.0000 0.1101773236
C   C52       1.0  0.70410  0.05750  0.68970  1.0000 -0.1832401007
C   C53       1.0  0.40510  0.31840  0.03020  1.0000 -0.0258327872
C   C54       1.0  0.36510  0.23650  0.49590  1.0000 -0.2084775307
C   C55       1.0  0.30780  0.79220  0.47440  1.0000 -0.1177344062
C   C56       1.0  0.37000  0.41550  0.32810  1.0000 0.2032267749
C   C57       1.0  0.41200  0.44620  0.18340  1.0000 -0.1375801191
C   C58       1.0  0.37740  0.25230  0.07050  1.0000 -0.1032244489
C   C59       1.0  0.61990  0.22200  0.76410  1.0000 0.0889886916
C   C60       1.0  0.29610  0.94760  0.60560  1.0000 0.5259778649
C   C61       1.0  0.30450  0.84160  0.57080  1.0000 -0.0199299008
C   C62       1.0  0.58320  0.05630  0.69140  1.0000 0.0889886916
C   C63       1.0  0.07720  0.08790  0.65910  1.0000 0.0889886916
C   C64       1.0  0.40840  0.28570  0.92370  1.0000 0.5388604849
C   C65       1.0  0.34900  0.36950  0.62820  1.0000 -0.1934582815
C   C66       1.0  0.36600  0.18410  0.55160  1.0000 0.0729035437
C   C67       1.0  0.35040  0.31360  0.68010  1.0000 0.0729035437
C   C68       1.0  0.12140  0.21480  0.79730  1.0000 0.0729035437
N   N1        1.0  0.64440  0.49233  0.63182  1.0000 -0.3111201972
N   N2        1.0  0.46000  0.86229  0.27282  1.0000 -0.2150693238
N   N3        1.0  0.64170  0.77924  0.35578  1.0000 -0.2267901003
N   N4        1.0  0.83920  0.85120  0.27010  1.0000 -0.2084775307
N   N5        1.0  0.35560  0.50767  0.36818  1.0000 -0.3111201972
N   N6        1.0  0.54000  0.13771  0.72718  1.0000 -0.2150693238
N   N7        1.0  0.35830  0.22076  0.64422  1.0000 -0.2267901003
N   N8        1.0  0.16080  0.14880  0.72990  1.0000 -0.2084775307
O   O1        1.0  0.68450  0.00518  0.30315  1.0000 -0.5220558494
O   O2        1.0  0.62020  0.80539  0.12493  1.0000 -0.5341963619
O   O3        1.0  0.56120  0.65310  0.10908  1.0000 -0.5649817437
O   O4        1.0  0.72590  0.01675  0.45350  1.0000 -0.569023177
O   O5        1.0  0.31550  0.99482  0.69685  1.0000 -0.5220558494
O   O6        1.0  0.37980  0.19461  0.87507  1.0000 -0.5341963619
O   O7        1.0  0.43880  0.34690  0.89092  1.0000 -0.5649817437
O   O8        1.0  0.27410  0.98325  0.54650  1.0000 -0.569023177
