# DDEC6 charges by PACMAN v1.1 (https://github.com/mtap-research/PACMAN-charge/)
data_2014[Ni][nan]3[FSR]2
_chemical_formula_sum              "Ni12 H204 C216 N24 O66"
_cell_length_a       22.3872
_cell_length_b       22.3872
_cell_length_c       22.3872
_cell_angle_alpha    113.678
_cell_angle_beta     113.678
_cell_angle_gamma    113.678

_symmetry_space_group_name_H-M    "P 1"
_symmetry_Int_Tables_number       1

loop_
  _symmetry_equiv_pos_as_xyz
  'x, y, z'

loop_
  _atom_site_type_symbol
  _atom_site_label
  _atom_site_symmetry_multiplicity
  _atom_site_fract_x
  _atom_site_fract_y
  _atom_site_fract_z
  _atom_site_occupancy
  _atom_site_charge
Ni  Ni1       1.0  0.61259  0.31762  0.50141  1.0000 0.7823976131
Ni  Ni2       1.0  0.31762  0.50141  0.61259  1.0000 0.7823976131
Ni  Ni3       1.0  0.50141  0.61259  0.31762  1.0000 0.7823976131
Ni  Ni4       1.0  0.38741  0.68238  0.49859  1.0000 0.7823976131
Ni  Ni5       1.0  0.68238  0.49859  0.38741  1.0000 0.7823976131
Ni  Ni6       1.0  0.49859  0.38741  0.68238  1.0000 0.7823976131
Ni  Ni7       1.0  0.52751  0.95115  0.08032  1.0000 0.7117389095
Ni  Ni8       1.0  0.95115  0.08032  0.52751  1.0000 0.7117389095
Ni  Ni9       1.0  0.08032  0.52751  0.95115  1.0000 0.7117389095
Ni  Ni10      1.0  0.47249  0.04885  0.91968  1.0000 0.7117389095
Ni  Ni11      1.0  0.04885  0.91968  0.47249  1.0000 0.7117389095
Ni  Ni12      1.0  0.91968  0.47249  0.04885  1.0000 0.7117389095
H   H1        1.0  0.49400  0.29970  0.50790  1.0000 0.3502668616
H   H2        1.0  0.29970  0.50790  0.49400  1.0000 0.3502668616
H   H3        1.0  0.50790  0.49400  0.29970  1.0000 0.3502668616
H   H4        1.0  0.50600  0.70030  0.49210  1.0000 0.3502668616
H   H5        1.0  0.70030  0.49210  0.50600  1.0000 0.3502668616
H   H6        1.0  0.49210  0.50600  0.70030  1.0000 0.3502668616
H   H7        1.0  0.46370  0.23550  0.42780  1.0000 0.3298685801
H   H8        1.0  0.23550  0.42780  0.46370  1.0000 0.3298685801
H   H9        1.0  0.42780  0.46370  0.23550  1.0000 0.3298685801
H   H10       1.0  0.53630  0.76450  0.57220  1.0000 0.3298685801
H   H11       1.0  0.76450  0.57220  0.53630  1.0000 0.3298685801
H   H12       1.0  0.57220  0.53630  0.76450  1.0000 0.3298685801
H   H13       1.0  0.57280  0.39570  0.45340  1.0000 0.3661235523
H   H14       1.0  0.39570  0.45340  0.57280  1.0000 0.3661235523
H   H15       1.0  0.45340  0.57280  0.39570  1.0000 0.3661235523
H   H16       1.0  0.42720  0.60430  0.54660  1.0000 0.3661235523
H   H17       1.0  0.60430  0.54660  0.42720  1.0000 0.3661235523
H   H18       1.0  0.54660  0.42720  0.60430  1.0000 0.3661235523
H   H19       1.0  0.61780  0.43850  0.54110  1.0000 0.343162805
H   H20       1.0  0.43850  0.54110  0.61780  1.0000 0.343162805
H   H21       1.0  0.54110  0.61780  0.43850  1.0000 0.343162805
H   H22       1.0  0.38220  0.56150  0.45890  1.0000 0.343162805
H   H23       1.0  0.56150  0.45890  0.38220  1.0000 0.343162805
H   H24       1.0  0.45890  0.38220  0.56150  1.0000 0.343162805
H   H25       1.0  0.63840  0.08420  0.11460  1.0000 0.3502668616
H   H26       1.0  0.08420  0.11460  0.63840  1.0000 0.3502668616
H   H27       1.0  0.11460  0.63840  0.08420  1.0000 0.3502668616
H   H28       1.0  0.36160  0.91580  0.88540  1.0000 0.3502668616
H   H29       1.0  0.91580  0.88540  0.36160  1.0000 0.3502668616
H   H30       1.0  0.88540  0.36160  0.91580  1.0000 0.3502668616
H   H31       1.0  0.57600  0.08490  0.11150  1.0000 0.3635903698
H   H32       1.0  0.08490  0.11150  0.57600  1.0000 0.3635903698
H   H33       1.0  0.11150  0.57600  0.08490  1.0000 0.3635903698
H   H34       1.0  0.42400  0.91510  0.88850  1.0000 0.3635903698
H   H35       1.0  0.91510  0.88850  0.42400  1.0000 0.3635903698
H   H36       1.0  0.88850  0.42400  0.91510  1.0000 0.3635903698
H   H37       1.0  0.35530  0.10940  0.17120  1.0000 0.1103075424
H   H38       1.0  0.10940  0.17120  0.35530  1.0000 0.1103075424
H   H39       1.0  0.17120  0.35530  0.10940  1.0000 0.1103075424
H   H40       1.0  0.64470  0.89060  0.82880  1.0000 0.1103075424
H   H41       1.0  0.89060  0.82880  0.64470  1.0000 0.1103075424
H   H42       1.0  0.82880  0.64470  0.89060  1.0000 0.1103075424
H   H43       1.0  0.40410  0.20640  0.16220  1.0000 0.1103075424
H   H44       1.0  0.20640  0.16220  0.40410  1.0000 0.1103075424
H   H45       1.0  0.16220  0.40410  0.20640  1.0000 0.1103075424
H   H46       1.0  0.59590  0.79360  0.83780  1.0000 0.1103075424
H   H47       1.0  0.79360  0.83780  0.59590  1.0000 0.1103075424
H   H48       1.0  0.83780  0.59590  0.79360  1.0000 0.1103075424
H   H49       1.0  0.42670  0.05040  0.19240  1.0000 0.0862161999
H   H50       1.0  0.05040  0.19240  0.42670  1.0000 0.0862161999
H   H51       1.0  0.19240  0.42670  0.05040  1.0000 0.0862161999
H   H52       1.0  0.57330  0.94960  0.80760  1.0000 0.0862161999
H   H53       1.0  0.94960  0.80760  0.57330  1.0000 0.0862161999
H   H54       1.0  0.80760  0.57330  0.94960  1.0000 0.0862161999
H   H55       1.0  0.32230  0.00420  0.05350  1.0000 0.1103075424
H   H56       1.0  0.00420  0.05350  0.32230  1.0000 0.1103075424
H   H57       1.0  0.05350  0.32230  0.00420  1.0000 0.1103075424
H   H58       1.0  0.67770  0.99580  0.94650  1.0000 0.1103075424
H   H59       1.0  0.99580  0.94650  0.67770  1.0000 0.1103075424
H   H60       1.0  0.94650  0.67770  0.99580  1.0000 0.1103075424
H   H61       1.0  0.36070  0.09750  0.03550  1.0000 0.1103075424
H   H62       1.0  0.09750  0.03550  0.36070  1.0000 0.1103075424
H   H63       1.0  0.03550  0.36070  0.09750  1.0000 0.1103075424
H   H64       1.0  0.63930  0.90250  0.96450  1.0000 0.1103075424
H   H65       1.0  0.90250  0.96450  0.63930  1.0000 0.1103075424
H   H66       1.0  0.96450  0.63930  0.90250  1.0000 0.1103075424
H   H67       1.0  0.51380  0.24070  0.15140  1.0000 0.0815649547
H   H68       1.0  0.24070  0.15140  0.51380  1.0000 0.0815649547
H   H69       1.0  0.15140  0.51380  0.24070  1.0000 0.0815649547
H   H70       1.0  0.48620  0.75930  0.84860  1.0000 0.0815649547
H   H71       1.0  0.75930  0.84860  0.48620  1.0000 0.0815649547
H   H72       1.0  0.84860  0.48620  0.75930  1.0000 0.0815649547
H   H73       1.0  0.57580  0.14460  0.25930  1.0000 0.0999703982
H   H74       1.0  0.14460  0.25930  0.57580  1.0000 0.0999703982
H   H75       1.0  0.25930  0.57580  0.14460  1.0000 0.0999703982
H   H76       1.0  0.42420  0.85540  0.74070  1.0000 0.0999703982
H   H77       1.0  0.85540  0.74070  0.42420  1.0000 0.0999703982
H   H78       1.0  0.74070  0.42420  0.85540  1.0000 0.0999703982
H   H79       1.0  0.62020  0.24030  0.23530  1.0000 0.1103075424
H   H80       1.0  0.24030  0.23530  0.62020  1.0000 0.1103075424
H   H81       1.0  0.23530  0.62020  0.24030  1.0000 0.1103075424
H   H82       1.0  0.37980  0.75970  0.76470  1.0000 0.1103075424
H   H83       1.0  0.75970  0.76470  0.37980  1.0000 0.1103075424
H   H84       1.0  0.76470  0.37980  0.75970  1.0000 0.1103075424
H   H85       1.0  0.48000  0.12330  0.39230  1.0000 0.1103075424
H   H86       1.0  0.12330  0.39230  0.48000  1.0000 0.1103075424
H   H87       1.0  0.39230  0.48000  0.12330  1.0000 0.1103075424
H   H88       1.0  0.52000  0.87670  0.60770  1.0000 0.1103075424
H   H89       1.0  0.87670  0.60770  0.52000  1.0000 0.1103075424
H   H90       1.0  0.60770  0.52000  0.87670  1.0000 0.1103075424
H   H91       1.0  0.46410  0.01250  0.38700  1.0000 0.131070326
H   H92       1.0  0.01250  0.38700  0.46410  1.0000 0.131070326
H   H93       1.0  0.38700  0.46410  0.01250  1.0000 0.131070326
H   H94       1.0  0.53590  0.98750  0.61300  1.0000 0.131070326
H   H95       1.0  0.98750  0.61300  0.53590  1.0000 0.131070326
H   H96       1.0  0.61300  0.53590  0.98750  1.0000 0.131070326
H   H97       1.0  0.71440  0.19540  0.62160  1.0000 0.131070326
H   H98       1.0  0.19540  0.62160  0.71440  1.0000 0.131070326
H   H99       1.0  0.62160  0.71440  0.19540  1.0000 0.131070326
H   H100      1.0  0.28560  0.80460  0.37840  1.0000 0.131070326
H   H101      1.0  0.80460  0.37840  0.28560  1.0000 0.131070326
H   H102      1.0  0.37840  0.28560  0.80460  1.0000 0.131070326
H   H103      1.0  0.72610  0.30180  0.61840  1.0000 0.1103075424
H   H104      1.0  0.30180  0.61840  0.72610  1.0000 0.1103075424
H   H105      1.0  0.61840  0.72610  0.30180  1.0000 0.1103075424
H   H106      1.0  0.27390  0.69820  0.38160  1.0000 0.1103075424
H   H107      1.0  0.69820  0.38160  0.27390  1.0000 0.1103075424
H   H108      1.0  0.38160  0.27390  0.69820  1.0000 0.1103075424
H   H109      1.0  0.63630  0.04040  0.54660  1.0000 0.1189189014
H   H110      1.0  0.04040  0.54660  0.63630  1.0000 0.1189189014
H   H111      1.0  0.54660  0.63630  0.04040  1.0000 0.1189189014
H   H112      1.0  0.36370  0.95960  0.45340  1.0000 0.1189189014
H   H113      1.0  0.95960  0.45340  0.36370  1.0000 0.1189189014
H   H114      1.0  0.45340  0.36370  0.95960  1.0000 0.1189189014
H   H115      1.0  0.46700  0.91770  0.38440  1.0000 0.1189189014
H   H116      1.0  0.91770  0.38440  0.46700  1.0000 0.1189189014
H   H117      1.0  0.38440  0.46700  0.91770  1.0000 0.1189189014
H   H118      1.0  0.53300  0.08230  0.61560  1.0000 0.1189189014
H   H119      1.0  0.08230  0.61560  0.53300  1.0000 0.1189189014
H   H120      1.0  0.61560  0.53300  0.08230  1.0000 0.1189189014
H   H121      1.0  0.39750  0.76760  0.28840  1.0000 0.1370187503
H   H122      1.0  0.76760  0.28840  0.39750  1.0000 0.1370187503
H   H123      1.0  0.28840  0.39750  0.76760  1.0000 0.1370187503
H   H124      1.0  0.60250  0.23240  0.71160  1.0000 0.1370187503
H   H125      1.0  0.23240  0.71160  0.60250  1.0000 0.1370187503
H   H126      1.0  0.71160  0.60250  0.23240  1.0000 0.1370187503
H   H127      1.0  0.39870  0.65640  0.25170  1.0000 0.0999703982
H   H128      1.0  0.65640  0.25170  0.39870  1.0000 0.0999703982
H   H129      1.0  0.25170  0.39870  0.65640  1.0000 0.0999703982
H   H130      1.0  0.60130  0.34360  0.74830  1.0000 0.0999703982
H   H131      1.0  0.34360  0.74830  0.60130  1.0000 0.0999703982
H   H132      1.0  0.74830  0.60130  0.34360  1.0000 0.0999703982
H   H133      1.0  0.62870  0.81340  0.48660  1.0000 0.1103075424
H   H134      1.0  0.81340  0.48660  0.62870  1.0000 0.1103075424
H   H135      1.0  0.48660  0.62870  0.81340  1.0000 0.1103075424
H   H136      1.0  0.37130  0.18660  0.51340  1.0000 0.1103075424
H   H137      1.0  0.18660  0.51340  0.37130  1.0000 0.1103075424
H   H138      1.0  0.51340  0.37130  0.18660  1.0000 0.1103075424
H   H139      1.0  0.63590  0.93100  0.53010  1.0000 0.131070326
H   H140      1.0  0.93100  0.53010  0.63590  1.0000 0.131070326
H   H141      1.0  0.53010  0.63590  0.93100  1.0000 0.131070326
H   H142      1.0  0.36410  0.06900  0.46990  1.0000 0.131070326
H   H143      1.0  0.06900  0.46990  0.36410  1.0000 0.131070326
H   H144      1.0  0.46990  0.36410  0.06900  1.0000 0.131070326
H   H145      1.0  0.52670  0.81110  0.06770  1.0000 0.0999703982
H   H146      1.0  0.81110  0.06770  0.52670  1.0000 0.0999703982
H   H147      1.0  0.06770  0.52670  0.81110  1.0000 0.0999703982
H   H148      1.0  0.47330  0.18890  0.93230  1.0000 0.0999703982
H   H149      1.0  0.18890  0.93230  0.47330  1.0000 0.0999703982
H   H150      1.0  0.93230  0.47330  0.18890  1.0000 0.0999703982
H   H151      1.0  0.42890  0.65980  0.98020  1.0000 0.1189189014
H   H152      1.0  0.65980  0.98020  0.42890  1.0000 0.1189189014
H   H153      1.0  0.98020  0.42890  0.65980  1.0000 0.1189189014
H   H154      1.0  0.57110  0.34020  0.01980  1.0000 0.1189189014
H   H155      1.0  0.34020  0.01980  0.57110  1.0000 0.1189189014
H   H156      1.0  0.01980  0.57110  0.34020  1.0000 0.1189189014
H   H157      1.0  0.22990  0.65160  0.85950  1.0000 0.131070326
H   H158      1.0  0.65160  0.85950  0.22990  1.0000 0.131070326
H   H159      1.0  0.85950  0.22990  0.65160  1.0000 0.131070326
H   H160      1.0  0.77010  0.34840  0.14050  1.0000 0.131070326
H   H161      1.0  0.34840  0.14050  0.77010  1.0000 0.131070326
H   H162      1.0  0.14050  0.77010  0.34840  1.0000 0.131070326
H   H163      1.0  0.33430  0.80350  0.95030  1.0000 0.1189189014
H   H164      1.0  0.80350  0.95030  0.33430  1.0000 0.1189189014
H   H165      1.0  0.95030  0.33430  0.80350  1.0000 0.1189189014
H   H166      1.0  0.66570  0.19650  0.04970  1.0000 0.1189189014
H   H167      1.0  0.19650  0.04970  0.66570  1.0000 0.1189189014
H   H168      1.0  0.04970  0.66570  0.19650  1.0000 0.1189189014
H   H169      1.0  0.27040  0.51750  0.87360  1.0000 0.1103075424
H   H170      1.0  0.51750  0.87360  0.27040  1.0000 0.1103075424
H   H171      1.0  0.87360  0.27040  0.51750  1.0000 0.1103075424
H   H172      1.0  0.72960  0.48250  0.12640  1.0000 0.1103075424
H   H173      1.0  0.48250  0.12640  0.72960  1.0000 0.1103075424
H   H174      1.0  0.12640  0.72960  0.48250  1.0000 0.1103075424
H   H175      1.0  0.16230  0.51080  0.74720  1.0000 0.1103075424
H   H176      1.0  0.51080  0.74720  0.16230  1.0000 0.1103075424
H   H177      1.0  0.74720  0.16230  0.51080  1.0000 0.1103075424
H   H178      1.0  0.83770  0.48920  0.25280  1.0000 0.1103075424
H   H179      1.0  0.48920  0.25280  0.83770  1.0000 0.1103075424
H   H180      1.0  0.25280  0.83770  0.48920  1.0000 0.1103075424
H   H181      1.0  0.06440  0.36250  0.59440  1.0000 0.131070326
H   H182      1.0  0.36250  0.59440  0.06440  1.0000 0.131070326
H   H183      1.0  0.59440  0.06440  0.36250  1.0000 0.131070326
H   H184      1.0  0.93560  0.63750  0.40560  1.0000 0.131070326
H   H185      1.0  0.63750  0.40560  0.93560  1.0000 0.131070326
H   H186      1.0  0.40560  0.93560  0.63750  1.0000 0.131070326
H   H187      1.0  0.97350  0.21130  0.50410  1.0000 0.1103075424
H   H188      1.0  0.21130  0.50410  0.97350  1.0000 0.1103075424
H   H189      1.0  0.50410  0.97350  0.21130  1.0000 0.1103075424
H   H190      1.0  0.02650  0.78870  0.49590  1.0000 0.1103075424
H   H191      1.0  0.78870  0.49590  0.02650  1.0000 0.1103075424
H   H192      1.0  0.49590  0.02650  0.78870  1.0000 0.1103075424
H   H193      1.0  0.04640  0.23060  0.70800  1.0000 0.1189189014
H   H194      1.0  0.23060  0.70800  0.04640  1.0000 0.1189189014
H   H195      1.0  0.70800  0.04640  0.23060  1.0000 0.1189189014
H   H196      1.0  0.95360  0.76940  0.29200  1.0000 0.1189189014
H   H197      1.0  0.76940  0.29200  0.95360  1.0000 0.1189189014
H   H198      1.0  0.29200  0.95360  0.76940  1.0000 0.1189189014
H   H199      1.0  0.14290  0.38250  0.80460  1.0000 0.131070326
H   H200      1.0  0.38250  0.80460  0.14290  1.0000 0.131070326
H   H201      1.0  0.80460  0.14290  0.38250  1.0000 0.131070326
H   H202      1.0  0.85710  0.61750  0.19540  1.0000 0.131070326
H   H203      1.0  0.61750  0.19540  0.85710  1.0000 0.131070326
H   H204      1.0  0.19540  0.85710  0.61750  1.0000 0.131070326
C   C1        1.0  0.42083  0.14861  0.21256  1.0000 -0.1693260544
C   C2        1.0  0.14861  0.21256  0.42083  1.0000 -0.1693260544
C   C3        1.0  0.21256  0.42083  0.14861  1.0000 -0.1693260544
C   C4        1.0  0.57917  0.85139  0.78744  1.0000 -0.1693260544
C   C5        1.0  0.85139  0.78744  0.57917  1.0000 -0.1693260544
C   C6        1.0  0.78744  0.57917  0.85139  1.0000 -0.1693260544
C   C7        1.0  0.45638  0.21753  0.20379  1.0000 -0.1693260544
C   C8        1.0  0.21753  0.20379  0.45638  1.0000 -0.1693260544
C   C9        1.0  0.20379  0.45638  0.21753  1.0000 -0.1693260544
C   C10       1.0  0.54362  0.78247  0.79621  1.0000 -0.1693260544
C   C11       1.0  0.78247  0.79621  0.54362  1.0000 -0.1693260544
C   C12       1.0  0.79621  0.54362  0.78247  1.0000 -0.1693260544
C   C13       1.0  0.44155  0.09027  0.18058  1.0000 0.0173103364
C   C14       1.0  0.09027  0.18058  0.44155  1.0000 0.0173103364
C   C15       1.0  0.18058  0.44155  0.09027  1.0000 0.0173103364
C   C16       1.0  0.55845  0.90973  0.81942  1.0000 0.0173103364
C   C17       1.0  0.90973  0.81942  0.55845  1.0000 0.0173103364
C   C18       1.0  0.81942  0.55845  0.90973  1.0000 0.0173103364
C   C19       1.0  0.38483  0.03641  0.08086  1.0000 -0.1693260544
C   C20       1.0  0.03641  0.08086  0.38483  1.0000 -0.1693260544
C   C21       1.0  0.08086  0.38483  0.03641  1.0000 -0.1693260544
C   C22       1.0  0.61517  0.96359  0.91914  1.0000 -0.1693260544
C   C23       1.0  0.96359  0.91914  0.61517  1.0000 -0.1693260544
C   C24       1.0  0.91914  0.61517  0.96359  1.0000 -0.1693260544
C   C25       1.0  0.41152  0.10199  0.06599  1.0000 -0.1613399732
C   C26       1.0  0.10199  0.06599  0.41152  1.0000 -0.1613399732
C   C27       1.0  0.06599  0.41152  0.10199  1.0000 -0.1613399732
C   C28       1.0  0.58848  0.89801  0.93401  1.0000 -0.1613399732
C   C29       1.0  0.89801  0.93401  0.58848  1.0000 -0.1613399732
C   C30       1.0  0.93401  0.58848  0.89801  1.0000 -0.1613399732
C   C31       1.0  0.49082  0.19757  0.15811  1.0000 0.0173103364
C   C32       1.0  0.19757  0.15811  0.49082  1.0000 0.0173103364
C   C33       1.0  0.15811  0.49082  0.19757  1.0000 0.0173103364
C   C34       1.0  0.50918  0.80243  0.84189  1.0000 0.0173103364
C   C35       1.0  0.80243  0.84189  0.50918  1.0000 0.0173103364
C   C36       1.0  0.84189  0.50918  0.80243  1.0000 0.0173103364
C   C37       1.0  0.53684  0.14749  0.22487  1.0000 -0.1249032515
C   C38       1.0  0.14749  0.22487  0.53684  1.0000 -0.1249032515
C   C39       1.0  0.22487  0.53684  0.14749  1.0000 -0.1249032515
C   C40       1.0  0.46316  0.85251  0.77513  1.0000 -0.1249032515
C   C41       1.0  0.85251  0.77513  0.46316  1.0000 -0.1249032515
C   C42       1.0  0.77513  0.46316  0.85251  1.0000 -0.1249032515
C   C43       1.0  0.56217  0.20191  0.21232  1.0000 -0.1315000403
C   C44       1.0  0.20191  0.21232  0.56217  1.0000 -0.1315000403
C   C45       1.0  0.21232  0.56217  0.20191  1.0000 -0.1315000403
C   C46       1.0  0.43783  0.79809  0.78768  1.0000 -0.1315000403
C   C47       1.0  0.79809  0.78768  0.43783  1.0000 -0.1315000403
C   C48       1.0  0.78768  0.43783  0.79809  1.0000 -0.1315000403
C   C49       1.0  0.45444  0.18640  0.30436  1.0000 0.6002922308
C   C50       1.0  0.18640  0.30436  0.45444  1.0000 0.6002922308
C   C51       1.0  0.30436  0.45444  0.18640  1.0000 0.6002922308
C   C52       1.0  0.54556  0.81360  0.69564  1.0000 0.6002922308
C   C53       1.0  0.81360  0.69564  0.54556  1.0000 0.6002922308
C   C54       1.0  0.69564  0.54556  0.81360  1.0000 0.6002922308
C   C55       1.0  0.52259  0.31420  0.28781  1.0000 0.6002922308
C   C56       1.0  0.31420  0.28781  0.52259  1.0000 0.6002922308
C   C57       1.0  0.28781  0.52259  0.31420  1.0000 0.6002922308
C   C58       1.0  0.47741  0.68580  0.71219  1.0000 0.6002922308
C   C59       1.0  0.68580  0.71219  0.47741  1.0000 0.6002922308
C   C60       1.0  0.71219  0.47741  0.68580  1.0000 0.6002922308
C   C61       1.0  0.38903  0.96794  0.03503  1.0000 0.6002922308
C   C62       1.0  0.96794  0.03503  0.38903  1.0000 0.6002922308
C   C63       1.0  0.03503  0.38903  0.96794  1.0000 0.6002922308
C   C64       1.0  0.61097  0.03206  0.96497  1.0000 0.6002922308
C   C65       1.0  0.03206  0.96497  0.61097  1.0000 0.6002922308
C   C66       1.0  0.96497  0.61097  0.03206  1.0000 0.6002922308
C   C67       1.0  0.43621  0.08420  0.01139  1.0000 0.5783549797
C   C68       1.0  0.08420  0.01139  0.43621  1.0000 0.5783549797
C   C69       1.0  0.01139  0.43621  0.08420  1.0000 0.5783549797
C   C70       1.0  0.56379  0.91580  0.98861  1.0000 0.5783549797
C   C71       1.0  0.91580  0.98861  0.56379  1.0000 0.5783549797
C   C72       1.0  0.98861  0.56379  0.91580  1.0000 0.5783549797
C   C73       1.0  0.52903  0.13788  0.43819  1.0000 0.0999703982
C   C74       1.0  0.13788  0.43819  0.52903  1.0000 0.0999703982
C   C75       1.0  0.43819  0.52903  0.13788  1.0000 0.0999703982
C   C76       1.0  0.47097  0.86212  0.56181  1.0000 0.0999703982
C   C77       1.0  0.86212  0.56181  0.47097  1.0000 0.0999703982
C   C78       1.0  0.56181  0.47097  0.86212  1.0000 0.0999703982
C   C79       1.0  0.51892  0.07144  0.43494  1.0000 -0.2117051994
C   C80       1.0  0.07144  0.43494  0.51892  1.0000 -0.2117051994
C   C81       1.0  0.43494  0.51892  0.07144  1.0000 -0.2117051994
C   C82       1.0  0.48108  0.92856  0.56506  1.0000 -0.2117051994
C   C83       1.0  0.92856  0.56506  0.48108  1.0000 -0.2117051994
C   C84       1.0  0.56506  0.48108  0.92856  1.0000 -0.2117051994
C   C85       1.0  0.58879  0.09016  0.50175  1.0000 0.153260208
C   C86       1.0  0.09016  0.50175  0.58879  1.0000 0.153260208
C   C87       1.0  0.50175  0.58879  0.09016  1.0000 0.153260208
C   C88       1.0  0.41121  0.90984  0.49825  1.0000 0.153260208
C   C89       1.0  0.90984  0.49825  0.41121  1.0000 0.153260208
C   C90       1.0  0.49825  0.41121  0.90984  1.0000 0.153260208
C   C91       1.0  0.66622  0.17866  0.57252  1.0000 -0.2211386791
C   C92       1.0  0.17866  0.57252  0.66622  1.0000 -0.2211386791
C   C93       1.0  0.57252  0.66622  0.17866  1.0000 -0.2211386791
C   C94       1.0  0.33378  0.82134  0.42748  1.0000 -0.2211386791
C   C95       1.0  0.82134  0.42748  0.33378  1.0000 -0.2211386791
C   C96       1.0  0.42748  0.33378  0.82134  1.0000 -0.2211386791
C   C97       1.0  0.67241  0.24213  0.57066  1.0000 0.0815649547
C   C98       1.0  0.24213  0.57066  0.67241  1.0000 0.0815649547
C   C99       1.0  0.57066  0.67241  0.24213  1.0000 0.0815649547
C   C100      1.0  0.32759  0.75787  0.42934  1.0000 0.0815649547
C   C101      1.0  0.75787  0.42934  0.32759  1.0000 0.0815649547
C   C102      1.0  0.42934  0.32759  0.75787  1.0000 0.0815649547
C   C103      1.0  0.58670  0.02184  0.49716  1.0000 -0.1780621755
C   C104      1.0  0.02184  0.49716  0.58670  1.0000 -0.1780621755
C   C105      1.0  0.49716  0.58670  0.02184  1.0000 -0.1780621755
C   C106      1.0  0.41330  0.97816  0.50284  1.0000 -0.1780621755
C   C107      1.0  0.97816  0.50284  0.41330  1.0000 -0.1780621755
C   C108      1.0  0.50284  0.41330  0.97816  1.0000 -0.1780621755
C   C109      1.0  0.51993  0.93540  0.42837  1.0000 -0.1613399732
C   C110      1.0  0.93540  0.42837  0.51993  1.0000 -0.1613399732
C   C111      1.0  0.42837  0.51993  0.93540  1.0000 -0.1613399732
C   C112      1.0  0.48007  0.06460  0.57163  1.0000 -0.1613399732
C   C113      1.0  0.06460  0.57163  0.48007  1.0000 -0.1613399732
C   C114      1.0  0.57163  0.48007  0.06460  1.0000 -0.1613399732
C   C115      1.0  0.51871  0.86435  0.41274  1.0000 0.153260208
C   C116      1.0  0.86435  0.41274  0.51871  1.0000 0.153260208
C   C117      1.0  0.41274  0.51871  0.86435  1.0000 0.153260208
C   C118      1.0  0.48129  0.13565  0.58726  1.0000 0.153260208
C   C119      1.0  0.13565  0.58726  0.48129  1.0000 0.153260208
C   C120      1.0  0.58726  0.48129  0.13565  1.0000 0.153260208
C   C121      1.0  0.44702  0.77952  0.33016  1.0000 -0.2033713467
C   C122      1.0  0.77952  0.33016  0.44702  1.0000 -0.2033713467
C   C123      1.0  0.33016  0.44702  0.77952  1.0000 -0.2033713467
C   C124      1.0  0.55298  0.22048  0.66984  1.0000 -0.2033713467
C   C125      1.0  0.22048  0.66984  0.55298  1.0000 -0.2033713467
C   C126      1.0  0.66984  0.55298  0.22048  1.0000 -0.2033713467
C   C127      1.0  0.44775  0.71307  0.30888  1.0000 0.0999703982
C   C128      1.0  0.71307  0.30888  0.44775  1.0000 0.0999703982
C   C129      1.0  0.30888  0.44775  0.71307  1.0000 0.0999703982
C   C130      1.0  0.55225  0.28693  0.69112  1.0000 0.0999703982
C   C131      1.0  0.28693  0.69112  0.55225  1.0000 0.0999703982
C   C132      1.0  0.69112  0.55225  0.28693  1.0000 0.0999703982
C   C133      1.0  0.58173  0.80462  0.44545  1.0000 0.0999703982
C   C134      1.0  0.80462  0.44545  0.58173  1.0000 0.0999703982
C   C135      1.0  0.44545  0.58173  0.80462  1.0000 0.0999703982
C   C136      1.0  0.41827  0.19538  0.55455  1.0000 0.0999703982
C   C137      1.0  0.19538  0.55455  0.41827  1.0000 0.0999703982
C   C138      1.0  0.55455  0.41827  0.19538  1.0000 0.0999703982
C   C139      1.0  0.58669  0.87542  0.47199  1.0000 -0.2033713467
C   C140      1.0  0.87542  0.47199  0.58669  1.0000 -0.2033713467
C   C141      1.0  0.47199  0.58669  0.87542  1.0000 -0.2033713467
C   C142      1.0  0.41331  0.12458  0.52801  1.0000 -0.2033713467
C   C143      1.0  0.12458  0.52801  0.41331  1.0000 -0.2033713467
C   C144      1.0  0.52801  0.41331  0.12458  1.0000 -0.2033713467
C   C145      1.0  0.46564  0.77795  0.02451  1.0000 0.0862161999
C   C146      1.0  0.77795  0.02451  0.46564  1.0000 0.0862161999
C   C147      1.0  0.02451  0.46564  0.77795  1.0000 0.0862161999
C   C148      1.0  0.53436  0.22205  0.97549  1.0000 0.0862161999
C   C149      1.0  0.22205  0.97549  0.53436  1.0000 0.0862161999
C   C150      1.0  0.97549  0.53436  0.22205  1.0000 0.0862161999
C   C151      1.0  0.40754  0.68752  0.97234  1.0000 -0.2117051994
C   C152      1.0  0.68752  0.97234  0.40754  1.0000 -0.2117051994
C   C153      1.0  0.97234  0.40754  0.68752  1.0000 -0.2117051994
C   C154      1.0  0.59246  0.31248  0.02766  1.0000 -0.2117051994
C   C155      1.0  0.31248  0.02766  0.59246  1.0000 -0.2117051994
C   C156      1.0  0.02766  0.59246  0.31248  1.0000 -0.2117051994
C   C157      1.0  0.31764  0.63736  0.90840  1.0000 0.158072139
C   C158      1.0  0.63736  0.90840  0.31764  1.0000 0.158072139
C   C159      1.0  0.90840  0.31764  0.63736  1.0000 0.158072139
C   C160      1.0  0.68236  0.36264  0.09160  1.0000 0.158072139
C   C161      1.0  0.36264  0.09160  0.68236  1.0000 0.158072139
C   C162      1.0  0.09160  0.68236  0.36264  1.0000 0.158072139
C   C163      1.0  0.29064  0.68277  0.90139  1.0000 -0.2033713467
C   C164      1.0  0.68277  0.90139  0.29064  1.0000 -0.2033713467
C   C165      1.0  0.90139  0.29064  0.68277  1.0000 -0.2033713467
C   C166      1.0  0.70936  0.31723  0.09861  1.0000 -0.2033713467
C   C167      1.0  0.31723  0.09861  0.70936  1.0000 -0.2033713467
C   C168      1.0  0.09861  0.70936  0.31723  1.0000 -0.2033713467
C   C169      1.0  0.35324  0.77342  0.95604  1.0000 0.0999703982
C   C170      1.0  0.77342  0.95604  0.35324  1.0000 0.0999703982
C   C171      1.0  0.95604  0.35324  0.77342  1.0000 0.0999703982
C   C172      1.0  0.64676  0.22658  0.04396  1.0000 0.0999703982
C   C173      1.0  0.22658  0.04396  0.64676  1.0000 0.0999703982
C   C174      1.0  0.04396  0.64676  0.22658  1.0000 0.0999703982
C   C175      1.0  0.25538  0.54201  0.85121  1.0000 -0.1613399732
C   C176      1.0  0.54201  0.85121  0.25538  1.0000 -0.1613399732
C   C177      1.0  0.85121  0.25538  0.54201  1.0000 -0.1613399732
C   C178      1.0  0.74462  0.45799  0.14879  1.0000 -0.1613399732
C   C179      1.0  0.45799  0.14879  0.74462  1.0000 -0.1613399732
C   C180      1.0  0.14879  0.74462  0.45799  1.0000 -0.1613399732
C   C181      1.0  0.17829  0.48637  0.76914  1.0000 -0.1693260544
C   C182      1.0  0.48637  0.76914  0.17829  1.0000 -0.1693260544
C   C183      1.0  0.76914  0.17829  0.48637  1.0000 -0.1693260544
C   C184      1.0  0.82171  0.51363  0.23086  1.0000 -0.1693260544
C   C185      1.0  0.51363  0.23086  0.82171  1.0000 -0.1693260544
C   C186      1.0  0.23086  0.82171  0.51363  1.0000 -0.1693260544
C   C187      1.0  0.11711  0.39048  0.71111  1.0000 0.153260208
C   C188      1.0  0.39048  0.71111  0.11711  1.0000 0.153260208
C   C189      1.0  0.71111  0.11711  0.39048  1.0000 0.153260208
C   C190      1.0  0.88289  0.60952  0.28889  1.0000 0.153260208
C   C191      1.0  0.60952  0.28889  0.88289  1.0000 0.153260208
C   C192      1.0  0.28889  0.88289  0.60952  1.0000 0.153260208
C   C193      1.0  0.06320  0.33673  0.61927  1.0000 -0.2117051994
C   C194      1.0  0.33673  0.61927  0.06320  1.0000 -0.2117051994
C   C195      1.0  0.61927  0.06320  0.33673  1.0000 -0.2117051994
C   C196      1.0  0.93680  0.66327  0.38073  1.0000 -0.2117051994
C   C197      1.0  0.66327  0.38073  0.93680  1.0000 -0.2117051994
C   C198      1.0  0.38073  0.93680  0.66327  1.0000 -0.2117051994
C   C199      1.0  0.00868  0.24671  0.56581  1.0000 0.0862161999
C   C200      1.0  0.24671  0.56581  0.00868  1.0000 0.0862161999
C   C201      1.0  0.56581  0.00868  0.24671  1.0000 0.0862161999
C   C202      1.0  0.99132  0.75329  0.43419  1.0000 0.0862161999
C   C203      1.0  0.75329  0.43419  0.99132  1.0000 0.0862161999
C   C204      1.0  0.43419  0.99132  0.75329  1.0000 0.0862161999
C   C205      1.0  0.05202  0.25841  0.68537  1.0000 0.0815649547
C   C206      1.0  0.25841  0.68537  0.05202  1.0000 0.0815649547
C   C207      1.0  0.68537  0.05202  0.25841  1.0000 0.0815649547
C   C208      1.0  0.94798  0.74159  0.31463  1.0000 0.0815649547
C   C209      1.0  0.74159  0.31463  0.94798  1.0000 0.0815649547
C   C210      1.0  0.31463  0.94798  0.74159  1.0000 0.0815649547
C   C211      1.0  0.10921  0.34886  0.74323  1.0000 -0.1948029124
C   C212      1.0  0.34886  0.74323  0.10921  1.0000 -0.1948029124
C   C213      1.0  0.74323  0.10921  0.34886  1.0000 -0.1948029124
C   C214      1.0  0.89079  0.65114  0.25677  1.0000 -0.1948029124
C   C215      1.0  0.65114  0.25677  0.89079  1.0000 -0.1948029124
C   C216      1.0  0.25677  0.89079  0.65114  1.0000 -0.1948029124
N   N1        1.0  0.60497  0.22238  0.50335  1.0000 -0.2294587354
N   N2        1.0  0.22238  0.50335  0.60497  1.0000 -0.2294587354
N   N3        1.0  0.50335  0.60497  0.22238  1.0000 -0.2294587354
N   N4        1.0  0.39503  0.77762  0.49665  1.0000 -0.2294587354
N   N5        1.0  0.77762  0.49665  0.39503  1.0000 -0.2294587354
N   N6        1.0  0.49665  0.39503  0.77762  1.0000 -0.2294587354
N   N7        1.0  0.51408  0.72443  0.36469  1.0000 -0.2211386791
N   N8        1.0  0.72443  0.36469  0.51408  1.0000 -0.2211386791
N   N9        1.0  0.36469  0.51408  0.72443  1.0000 -0.2211386791
N   N10       1.0  0.48592  0.27557  0.63531  1.0000 -0.2211386791
N   N11       1.0  0.27557  0.63531  0.48592  1.0000 -0.2211386791
N   N12       1.0  0.63531  0.48592  0.27557  1.0000 -0.2211386791
N   N13       1.0  0.43949  0.82033  0.01668  1.0000 -0.2294587354
N   N14       1.0  0.82033  0.01668  0.43949  1.0000 -0.2294587354
N   N15       1.0  0.01668  0.43949  0.82033  1.0000 -0.2294587354
N   N16       1.0  0.56051  0.17967  0.98332  1.0000 -0.2294587354
N   N17       1.0  0.17967  0.98332  0.56051  1.0000 -0.2294587354
N   N18       1.0  0.98332  0.56051  0.17967  1.0000 -0.2294587354
N   N19       1.0  0.00346  0.20738  0.59776  1.0000 -0.2211386791
N   N20       1.0  0.20738  0.59776  0.00346  1.0000 -0.2211386791
N   N21       1.0  0.59776  0.00346  0.20738  1.0000 -0.2211386791
N   N22       1.0  0.99654  0.79262  0.40224  1.0000 -0.2211386791
N   N23       1.0  0.79262  0.40224  0.99654  1.0000 -0.2211386791
N   N24       1.0  0.40224  0.99654  0.79262  1.0000 -0.2211386791
O   O1        1.0  0.53531  0.23608  0.36659  1.0000 -0.5627161941
O   O2        1.0  0.23608  0.36659  0.53531  1.0000 -0.5627161941
O   O3        1.0  0.36659  0.53531  0.23608  1.0000 -0.5627161941
O   O4        1.0  0.46469  0.76392  0.63341  1.0000 -0.5627161941
O   O5        1.0  0.76392  0.63341  0.46469  1.0000 -0.5627161941
O   O6        1.0  0.63341  0.46469  0.76392  1.0000 -0.5627161941
O   O7        1.0  0.39743  0.16039  0.31028  1.0000 -0.5627161941
O   O8        1.0  0.16039  0.31028  0.39743  1.0000 -0.5627161941
O   O9        1.0  0.31028  0.39743  0.16039  1.0000 -0.5627161941
O   O10       1.0  0.60257  0.83961  0.68972  1.0000 -0.5627161941
O   O11       1.0  0.83961  0.68972  0.60257  1.0000 -0.5627161941
O   O12       1.0  0.68972  0.60257  0.83961  1.0000 -0.5627161941
O   O13       1.0  0.49964  0.33818  0.32899  1.0000 -0.5489849397
O   O14       1.0  0.33818  0.32899  0.49964  1.0000 -0.5489849397
O   O15       1.0  0.32899  0.49964  0.33818  1.0000 -0.5489849397
O   O16       1.0  0.50036  0.66182  0.67101  1.0000 -0.5489849397
O   O17       1.0  0.66182  0.67101  0.50036  1.0000 -0.5489849397
O   O18       1.0  0.67101  0.50036  0.66182  1.0000 -0.5489849397
O   O19       1.0  0.59288  0.36491  0.30679  1.0000 -0.5663740186
O   O20       1.0  0.36491  0.30679  0.59288  1.0000 -0.5663740186
O   O21       1.0  0.30679  0.59288  0.36491  1.0000 -0.5663740186
O   O22       1.0  0.40712  0.63509  0.69321  1.0000 -0.5663740186
O   O23       1.0  0.63509  0.69321  0.40712  1.0000 -0.5663740186
O   O24       1.0  0.69321  0.40712  0.63509  1.0000 -0.5663740186
O   O25       1.0  0.39239  0.06525  0.93865  1.0000 -0.5489849397
O   O26       1.0  0.06525  0.93865  0.39239  1.0000 -0.5489849397
O   O27       1.0  0.93865  0.39239  0.06525  1.0000 -0.5489849397
O   O28       1.0  0.60761  0.93475  0.06135  1.0000 -0.5489849397
O   O29       1.0  0.93475  0.06135  0.60761  1.0000 -0.5489849397
O   O30       1.0  0.06135  0.60761  0.93475  1.0000 -0.5489849397
O   O31       1.0  0.50066  0.08896  0.03755  1.0000 -0.5148228157
O   O32       1.0  0.08896  0.03755  0.50066  1.0000 -0.5148228157
O   O33       1.0  0.03755  0.50066  0.08896  1.0000 -0.5148228157
O   O34       1.0  0.49934  0.91104  0.96245  1.0000 -0.5148228157
O   O35       1.0  0.91104  0.96245  0.49934  1.0000 -0.5148228157
O   O36       1.0  0.96245  0.49934  0.91104  1.0000 -0.5148228157
O   O37       1.0  0.33379  0.91323  0.95286  1.0000 -0.5627161941
O   O38       1.0  0.91323  0.95286  0.33379  1.0000 -0.5627161941
O   O39       1.0  0.95286  0.33379  0.91323  1.0000 -0.5627161941
O   O40       1.0  0.66621  0.08677  0.04714  1.0000 -0.5627161941
O   O41       1.0  0.08677  0.04714  0.66621  1.0000 -0.5627161941
O   O42       1.0  0.04714  0.66621  0.08677  1.0000 -0.5627161941
O   O43       1.0  0.44784  0.97188  0.08322  1.0000 -0.577043866
O   O44       1.0  0.97188  0.08322  0.44784  1.0000 -0.577043866
O   O45       1.0  0.08322  0.44784  0.97188  1.0000 -0.577043866
O   O46       1.0  0.55216  0.02812  0.91678  1.0000 -0.577043866
O   O47       1.0  0.02812  0.91678  0.55216  1.0000 -0.577043866
O   O48       1.0  0.91678  0.55216  0.02812  1.0000 -0.577043866
O   O49       1.0  0.50029  0.26554  0.48288  1.0000 -0.667738353
O   O50       1.0  0.26554  0.48288  0.50029  1.0000 -0.667738353
O   O51       1.0  0.48288  0.50029  0.26554  1.0000 -0.667738353
O   O52       1.0  0.49971  0.73446  0.51712  1.0000 -0.667738353
O   O53       1.0  0.73446  0.51712  0.49971  1.0000 -0.667738353
O   O54       1.0  0.51712  0.49971  0.73446  1.0000 -0.667738353
O   O55       1.0  0.61438  0.41082  0.49867  1.0000 -0.6467109569
O   O56       1.0  0.41082  0.49867  0.61438  1.0000 -0.6467109569
O   O57       1.0  0.49867  0.61438  0.41082  1.0000 -0.6467109569
O   O58       1.0  0.38562  0.58918  0.50133  1.0000 -0.6467109569
O   O59       1.0  0.58918  0.50133  0.38562  1.0000 -0.6467109569
O   O60       1.0  0.50133  0.38562  0.58918  1.0000 -0.6467109569
O   O61       1.0  0.61500  0.08333  0.13653  1.0000 -0.6467109569
O   O62       1.0  0.08333  0.13653  0.61500  1.0000 -0.6467109569
O   O63       1.0  0.13653  0.61500  0.08333  1.0000 -0.6467109569
O   O64       1.0  0.38500  0.91667  0.86347  1.0000 -0.6467109569
O   O65       1.0  0.91667  0.86347  0.38500  1.0000 -0.6467109569
O   O66       1.0  0.86347  0.38500  0.91667  1.0000 -0.6467109569
