# DDEC6 charges by PACMAN v1.1 (https://github.com/mtap-research/PACMAN-charge/)
data_2014[Zn][nan]3[FSR]33
_chemical_formula_sum              "Zn6 H60 C144 O48"
_cell_length_a       18.5037
_cell_length_b       18.5037
_cell_length_c       18.5037
_cell_angle_alpha    101.739
_cell_angle_beta     101.739
_cell_angle_gamma    101.739

_symmetry_space_group_name_H-M    "P 1"
_symmetry_Int_Tables_number       1

loop_
  _symmetry_equiv_pos_as_xyz
  'x, y, z'

loop_
  _atom_site_type_symbol
  _atom_site_label
  _atom_site_symmetry_multiplicity
  _atom_site_fract_x
  _atom_site_fract_y
  _atom_site_fract_z
  _atom_site_occupancy
  _atom_site_charge
Zn  Zn1       1.0  0.85307  0.64579  0.25081  1.0000 0.9376202201
Zn  Zn2       1.0  0.64579  0.25081  0.85307  1.0000 0.9376202201
Zn  Zn3       1.0  0.25081  0.85307  0.64579  1.0000 0.9376202201
Zn  Zn4       1.0  0.14693  0.35421  0.74919  1.0000 0.9376202201
Zn  Zn5       1.0  0.35421  0.74919  0.14693  1.0000 0.9376202201
Zn  Zn6       1.0  0.74919  0.14693  0.35421  1.0000 0.9376202201
H   H1        1.0  0.85580  0.34380  0.72180  1.0000 0.1482088579
H   H2        1.0  0.34380  0.72180  0.85580  1.0000 0.1482088579
H   H3        1.0  0.72180  0.85580  0.34380  1.0000 0.1482088579
H   H4        1.0  0.14420  0.65620  0.27820  1.0000 0.1482088579
H   H5        1.0  0.65620  0.27820  0.14420  1.0000 0.1482088579
H   H6        1.0  0.27820  0.14420  0.65620  1.0000 0.1482088579
H   H7        1.0  0.80170  0.29390  0.90620  1.0000 0.1305416959
H   H8        1.0  0.29390  0.90620  0.80170  1.0000 0.1305416959
H   H9        1.0  0.90620  0.80170  0.29390  1.0000 0.1305416959
H   H10       1.0  0.19830  0.70610  0.09380  1.0000 0.1305416959
H   H11       1.0  0.70610  0.09380  0.19830  1.0000 0.1305416959
H   H12       1.0  0.09380  0.19830  0.70610  1.0000 0.1305416959
H   H13       1.0  0.99230  0.25730  0.85720  1.0000 0.1305416959
H   H14       1.0  0.25730  0.85720  0.99230  1.0000 0.1305416959
H   H15       1.0  0.85720  0.99230  0.25730  1.0000 0.1305416959
H   H16       1.0  0.00770  0.74270  0.14280  1.0000 0.1305416959
H   H17       1.0  0.74270  0.14280  0.00770  1.0000 0.1305416959
H   H18       1.0  0.14280  0.00770  0.74270  1.0000 0.1305416959
H   H19       1.0  0.87070  0.32070  0.02340  1.0000 0.1373862985
H   H20       1.0  0.32070  0.02340  0.87070  1.0000 0.1373862985
H   H21       1.0  0.02340  0.87070  0.32070  1.0000 0.1373862985
H   H22       1.0  0.12930  0.67930  0.97660  1.0000 0.1373862985
H   H23       1.0  0.67930  0.97660  0.12930  1.0000 0.1373862985
H   H24       1.0  0.97660  0.12930  0.67930  1.0000 0.1373862985
H   H25       1.0  0.97400  0.20880  0.15590  1.0000 0.1305416959
H   H26       1.0  0.20880  0.15590  0.97400  1.0000 0.1305416959
H   H27       1.0  0.15590  0.97400  0.20880  1.0000 0.1305416959
H   H28       1.0  0.02600  0.79120  0.84410  1.0000 0.1305416959
H   H29       1.0  0.79120  0.84410  0.02600  1.0000 0.1305416959
H   H30       1.0  0.84410  0.02600  0.79120  1.0000 0.1305416959
H   H31       1.0  0.97570  0.16940  0.93590  1.0000 0.1211774412
H   H32       1.0  0.16940  0.93590  0.97570  1.0000 0.1211774412
H   H33       1.0  0.93590  0.97570  0.16940  1.0000 0.1211774412
H   H34       1.0  0.02430  0.83060  0.06410  1.0000 0.1211774412
H   H35       1.0  0.83060  0.06410  0.02430  1.0000 0.1211774412
H   H36       1.0  0.06410  0.02430  0.83060  1.0000 0.1211774412
H   H37       1.0  0.08810  0.14000  0.98220  1.0000 0.1211774412
H   H38       1.0  0.14000  0.98220  0.08810  1.0000 0.1211774412
H   H39       1.0  0.98220  0.08810  0.14000  1.0000 0.1211774412
H   H40       1.0  0.91190  0.86000  0.01780  1.0000 0.1211774412
H   H41       1.0  0.86000  0.01780  0.91190  1.0000 0.1211774412
H   H42       1.0  0.01780  0.91190  0.86000  1.0000 0.1211774412
H   H43       1.0  0.90050  0.40980  0.12950  1.0000 0.1373862985
H   H44       1.0  0.40980  0.12950  0.90050  1.0000 0.1373862985
H   H45       1.0  0.12950  0.90050  0.40980  1.0000 0.1373862985
H   H46       1.0  0.09950  0.59020  0.87050  1.0000 0.1373862985
H   H47       1.0  0.59020  0.87050  0.09950  1.0000 0.1373862985
H   H48       1.0  0.87050  0.09950  0.59020  1.0000 0.1373862985
H   H49       1.0  0.83610  0.42420  0.32140  1.0000 0.1482088579
H   H50       1.0  0.42420  0.32140  0.83610  1.0000 0.1482088579
H   H51       1.0  0.32140  0.83610  0.42420  1.0000 0.1482088579
H   H52       1.0  0.16390  0.57580  0.67860  1.0000 0.1482088579
H   H53       1.0  0.57580  0.67860  0.16390  1.0000 0.1482088579
H   H54       1.0  0.67860  0.16390  0.57580  1.0000 0.1482088579
H   H55       1.0  0.87910  0.23190  0.22020  1.0000 0.1305416959
H   H56       1.0  0.23190  0.22020  0.87910  1.0000 0.1305416959
H   H57       1.0  0.22020  0.87910  0.23190  1.0000 0.1305416959
H   H58       1.0  0.12090  0.76810  0.77980  1.0000 0.1305416959
H   H59       1.0  0.76810  0.77980  0.12090  1.0000 0.1305416959
H   H60       1.0  0.77980  0.12090  0.76810  1.0000 0.1305416959
C   C1        1.0  0.98798  0.30980  0.73372  1.0000 0.5509618397
C   C2        1.0  0.30980  0.73372  0.98798  1.0000 0.5509618397
C   C3        1.0  0.73372  0.98798  0.30980  1.0000 0.5509618397
C   C4        1.0  0.01202  0.69020  0.26628  1.0000 0.5509618397
C   C5        1.0  0.69020  0.26628  0.01202  1.0000 0.5509618397
C   C6        1.0  0.26628  0.01202  0.69020  1.0000 0.5509618397
C   C7        1.0  0.93197  0.30091  0.78170  1.0000 0.0023075226
C   C8        1.0  0.30091  0.78170  0.93197  1.0000 0.0023075226
C   C9        1.0  0.78170  0.93197  0.30091  1.0000 0.0023075226
C   C10       1.0  0.06803  0.69909  0.21830  1.0000 0.0023075226
C   C11       1.0  0.69909  0.21830  0.06803  1.0000 0.0023075226
C   C12       1.0  0.21830  0.06803  0.69909  1.0000 0.0023075226
C   C13       1.0  0.86671  0.32584  0.76515  1.0000 -0.0963331559
C   C14       1.0  0.32584  0.76515  0.86671  1.0000 -0.0963331559
C   C15       1.0  0.76515  0.86671  0.32584  1.0000 -0.0963331559
C   C16       1.0  0.13329  0.67416  0.23485  1.0000 -0.0963331559
C   C17       1.0  0.67416  0.23485  0.13329  1.0000 -0.0963331559
C   C18       1.0  0.23485  0.13329  0.67416  1.0000 -0.0963331559
C   C19       1.0  0.81762  0.32443  0.81175  1.0000 -0.0180907339
C   C20       1.0  0.32443  0.81175  0.81762  1.0000 -0.0180907339
C   C21       1.0  0.81175  0.81762  0.32443  1.0000 -0.0180907339
C   C22       1.0  0.18238  0.67557  0.18825  1.0000 -0.0180907339
C   C23       1.0  0.67557  0.18825  0.18238  1.0000 -0.0180907339
C   C24       1.0  0.18825  0.18238  0.67557  1.0000 -0.0180907339
C   C25       1.0  0.83529  0.29617  0.87514  1.0000 -0.1380983425
C   C26       1.0  0.29617  0.87514  0.83529  1.0000 -0.1380983425
C   C27       1.0  0.87514  0.83529  0.29617  1.0000 -0.1380983425
C   C28       1.0  0.16471  0.70383  0.12486  1.0000 -0.1380983425
C   C29       1.0  0.70383  0.12486  0.16471  1.0000 -0.1380983425
C   C30       1.0  0.12486  0.16471  0.70383  1.0000 -0.1380983425
C   C31       1.0  0.90003  0.27135  0.89441  1.0000 0.069139503
C   C32       1.0  0.27135  0.89441  0.90003  1.0000 0.069139503
C   C33       1.0  0.89441  0.90003  0.27135  1.0000 0.069139503
C   C34       1.0  0.09997  0.72865  0.10559  1.0000 0.069139503
C   C35       1.0  0.72865  0.10559  0.09997  1.0000 0.069139503
C   C36       1.0  0.10559  0.09997  0.72865  1.0000 0.069139503
C   C37       1.0  0.94814  0.27401  0.84607  1.0000 -0.1380983425
C   C38       1.0  0.27401  0.84607  0.94814  1.0000 -0.1380983425
C   C39       1.0  0.84607  0.94814  0.27401  1.0000 -0.1380983425
C   C40       1.0  0.05186  0.72599  0.15393  1.0000 -0.1380983425
C   C41       1.0  0.72599  0.15393  0.05186  1.0000 -0.1380983425
C   C42       1.0  0.15393  0.05186  0.72599  1.0000 -0.1380983425
C   C43       1.0  0.75110  0.35850  0.79830  1.0000 0.5779865658
C   C44       1.0  0.35850  0.79830  0.75110  1.0000 0.5779865658
C   C45       1.0  0.79830  0.75110  0.35850  1.0000 0.5779865658
C   C46       1.0  0.24890  0.64150  0.20170  1.0000 0.5779865658
C   C47       1.0  0.64150  0.20170  0.24890  1.0000 0.5779865658
C   C48       1.0  0.20170  0.24890  0.64150  1.0000 0.5779865658
C   C49       1.0  0.92061  0.24989  0.96747  1.0000 0.1049441944
C   C50       1.0  0.24989  0.96747  0.92061  1.0000 0.1049441944
C   C51       1.0  0.96747  0.92061  0.24989  1.0000 0.1049441944
C   C52       1.0  0.07939  0.75011  0.03253  1.0000 0.1049441944
C   C53       1.0  0.75011  0.03253  0.07939  1.0000 0.1049441944
C   C54       1.0  0.03253  0.07939  0.75011  1.0000 0.1049441944
C   C55       1.0  0.89943  0.28556  0.02942  1.0000 -0.1654655312
C   C56       1.0  0.28556  0.02942  0.89943  1.0000 -0.1654655312
C   C57       1.0  0.02942  0.89943  0.28556  1.0000 -0.1654655312
C   C58       1.0  0.10057  0.71444  0.97058  1.0000 -0.1654655312
C   C59       1.0  0.71444  0.97058  0.10057  1.0000 -0.1654655312
C   C60       1.0  0.97058  0.10057  0.71444  1.0000 -0.1654655312
C   C61       1.0  0.91870  0.27166  0.09959  1.0000 0.090211746
C   C62       1.0  0.27166  0.09959  0.91870  1.0000 0.090211746
C   C63       1.0  0.09959  0.91870  0.27166  1.0000 0.090211746
C   C64       1.0  0.08130  0.72834  0.90041  1.0000 0.090211746
C   C65       1.0  0.72834  0.90041  0.08130  1.0000 0.090211746
C   C66       1.0  0.90041  0.08130  0.72834  1.0000 0.090211746
C   C67       1.0  0.96032  0.21871  0.10837  1.0000 -0.1876194485
C   C68       1.0  0.21871  0.10837  0.96032  1.0000 -0.1876194485
C   C69       1.0  0.10837  0.96032  0.21871  1.0000 -0.1876194485
C   C70       1.0  0.03968  0.78129  0.89163  1.0000 -0.1876194485
C   C71       1.0  0.78129  0.89163  0.03968  1.0000 -0.1876194485
C   C72       1.0  0.89163  0.03968  0.78129  1.0000 -0.1876194485
C   C73       1.0  0.98243  0.17967  0.04694  1.0000 0.0797587137
C   C74       1.0  0.17967  0.04694  0.98243  1.0000 0.0797587137
C   C75       1.0  0.04694  0.98243  0.17967  1.0000 0.0797587137
C   C76       1.0  0.01757  0.82033  0.95306  1.0000 0.0797587137
C   C77       1.0  0.82033  0.95306  0.01757  1.0000 0.0797587137
C   C78       1.0  0.95306  0.01757  0.82033  1.0000 0.0797587137
C   C79       1.0  0.96186  0.19550  0.97743  1.0000 -0.1876194485
C   C80       1.0  0.19550  0.97743  0.96186  1.0000 -0.1876194485
C   C81       1.0  0.97743  0.96186  0.19550  1.0000 -0.1876194485
C   C82       1.0  0.03814  0.80450  0.02257  1.0000 -0.1876194485
C   C83       1.0  0.80450  0.02257  0.03814  1.0000 -0.1876194485
C   C84       1.0  0.02257  0.03814  0.80450  1.0000 -0.1876194485
C   C85       1.0  0.02732  0.12369  0.05890  1.0000 0.090211746
C   C86       1.0  0.12369  0.05890  0.02732  1.0000 0.090211746
C   C87       1.0  0.05890  0.02732  0.12369  1.0000 0.090211746
C   C88       1.0  0.97268  0.87631  0.94110  1.0000 0.090211746
C   C89       1.0  0.87631  0.94110  0.97268  1.0000 0.090211746
C   C90       1.0  0.94110  0.97268  0.87631  1.0000 0.090211746
C   C91       1.0  0.08074  0.11176  0.01756  1.0000 -0.1876194485
C   C92       1.0  0.11176  0.01756  0.08074  1.0000 -0.1876194485
C   C93       1.0  0.01756  0.08074  0.11176  1.0000 -0.1876194485
C   C94       1.0  0.91926  0.88824  0.98244  1.0000 -0.1876194485
C   C95       1.0  0.88824  0.98244  0.91926  1.0000 -0.1876194485
C   C96       1.0  0.98244  0.91926  0.88824  1.0000 -0.1876194485
C   C97       1.0  0.89690  0.31475  0.16455  1.0000 0.0639650406
C   C98       1.0  0.31475  0.16455  0.89690  1.0000 0.0639650406
C   C99       1.0  0.16455  0.89690  0.31475  1.0000 0.0639650406
C   C100      1.0  0.10310  0.68525  0.83545  1.0000 0.0639650406
C   C101      1.0  0.68525  0.83545  0.10310  1.0000 0.0639650406
C   C102      1.0  0.83545  0.10310  0.68525  1.0000 0.0639650406
C   C103      1.0  0.89019  0.38768  0.16838  1.0000 -0.1306169157
C   C104      1.0  0.38768  0.16838  0.89019  1.0000 -0.1306169157
C   C105      1.0  0.16838  0.89019  0.38768  1.0000 -0.1306169157
C   C106      1.0  0.10981  0.61232  0.83162  1.0000 -0.1306169157
C   C107      1.0  0.61232  0.83162  0.10981  1.0000 -0.1306169157
C   C108      1.0  0.83162  0.10981  0.61232  1.0000 -0.1306169157
C   C109      1.0  0.86907  0.42961  0.22662  1.0000 0.0146593691
C   C110      1.0  0.42961  0.22662  0.86907  1.0000 0.0146593691
C   C111      1.0  0.22662  0.86907  0.42961  1.0000 0.0146593691
C   C112      1.0  0.13093  0.57039  0.77338  1.0000 0.0146593691
C   C113      1.0  0.57039  0.77338  0.13093  1.0000 0.0146593691
C   C114      1.0  0.77338  0.13093  0.57039  1.0000 0.0146593691
C   C115      1.0  0.85124  0.39666  0.28190  1.0000 -0.088144136
C   C116      1.0  0.39666  0.28190  0.85124  1.0000 -0.088144136
C   C117      1.0  0.28190  0.85124  0.39666  1.0000 -0.088144136
C   C118      1.0  0.14876  0.60334  0.71810  1.0000 -0.088144136
C   C119      1.0  0.60334  0.71810  0.14876  1.0000 -0.088144136
C   C120      1.0  0.71810  0.14876  0.60334  1.0000 -0.088144136
C   C121      1.0  0.85511  0.32237  0.28032  1.0000 -0.0050077022
C   C122      1.0  0.32237  0.28032  0.85511  1.0000 -0.0037824194
C   C123      1.0  0.28032  0.85511  0.32237  1.0000 -0.0050077022
C   C124      1.0  0.14489  0.67763  0.71968  1.0000 -0.0037824194
C   C125      1.0  0.67763  0.71968  0.14489  1.0000 -0.0037824194
C   C126      1.0  0.71968  0.14489  0.67763  1.0000 -0.0037824194
C   C127      1.0  0.87720  0.28203  0.22192  1.0000 -0.1380983425
C   C128      1.0  0.28203  0.22192  0.87720  1.0000 -0.1380983425
C   C129      1.0  0.22192  0.87720  0.28203  1.0000 -0.1380983425
C   C130      1.0  0.12280  0.71797  0.77808  1.0000 -0.1380983425
C   C131      1.0  0.71797  0.77808  0.12280  1.0000 -0.1380983425
C   C132      1.0  0.77808  0.12280  0.71797  1.0000 -0.1380983425
C   C133      1.0  0.82980  0.28530  0.33850  1.0000 0.5509618397
C   C134      1.0  0.28530  0.33850  0.82980  1.0000 0.5509618397
C   C135      1.0  0.33850  0.82980  0.28530  1.0000 0.5509618397
C   C136      1.0  0.17020  0.71470  0.66150  1.0000 0.5509618397
C   C137      1.0  0.71470  0.66150  0.17020  1.0000 0.5509618397
C   C138      1.0  0.66150  0.17020  0.71470  1.0000 0.5509618397
C   C139      1.0  0.86060  0.50820  0.22400  1.0000 0.5509618397
C   C140      1.0  0.50820  0.22400  0.86060  1.0000 0.5509618397
C   C141      1.0  0.22400  0.86060  0.50820  1.0000 0.5509618397
C   C142      1.0  0.13940  0.49180  0.77600  1.0000 0.5509618397
C   C143      1.0  0.49180  0.77600  0.13940  1.0000 0.5509618397
C   C144      1.0  0.77600  0.13940  0.49180  1.0000 0.5509618397
O   O1        1.0  0.05168  0.30074  0.76128  1.0000 -0.5130706056
O   O2        1.0  0.30074  0.76128  0.05168  1.0000 -0.5130706056
O   O3        1.0  0.76128  0.05168  0.30074  1.0000 -0.5130706056
O   O4        1.0  0.94832  0.69926  0.23872  1.0000 -0.5130706056
O   O5        1.0  0.69926  0.23872  0.94832  1.0000 -0.5130706056
O   O6        1.0  0.23872  0.94832  0.69926  1.0000 -0.5130706056
O   O7        1.0  0.97088  0.33025  0.67517  1.0000 -0.43735011
O   O8        1.0  0.33025  0.67517  0.97088  1.0000 -0.43735011
O   O9        1.0  0.67517  0.97088  0.33025  1.0000 -0.4325441047
O   O10       1.0  0.02912  0.66975  0.32483  1.0000 -0.43735011
O   O11       1.0  0.66975  0.32483  0.02912  1.0000 -0.4325441047
O   O12       1.0  0.32483  0.02912  0.66975  1.0000 -0.4325441047
O   O13       1.0  0.69840  0.34328  0.83073  1.0000 -0.5013959134
O   O14       1.0  0.34328  0.83073  0.69840  1.0000 -0.5013959134
O   O15       1.0  0.83073  0.69840  0.34328  1.0000 -0.5013959134
O   O16       1.0  0.30160  0.65672  0.16927  1.0000 -0.5013959134
O   O17       1.0  0.65672  0.16927  0.30160  1.0000 -0.5013959134
O   O18       1.0  0.16927  0.30160  0.65672  1.0000 -0.5013959134
O   O19       1.0  0.75092  0.40206  0.75522  1.0000 -0.3637575233
O   O20       1.0  0.40206  0.75522  0.75092  1.0000 -0.3693203851
O   O21       1.0  0.75522  0.75092  0.40206  1.0000 -0.3693203851
O   O22       1.0  0.24908  0.59794  0.24478  1.0000 -0.3637575233
O   O23       1.0  0.59794  0.24478  0.24908  1.0000 -0.3693203851
O   O24       1.0  0.24478  0.24908  0.59794  1.0000 -0.3637575233
O   O25       1.0  0.83030  0.21630  0.33125  1.0000 -0.4888948226
O   O26       1.0  0.21630  0.33125  0.83030  1.0000 -0.4888948226
O   O27       1.0  0.33125  0.83030  0.21630  1.0000 -0.4888948226
O   O28       1.0  0.16970  0.78370  0.66875  1.0000 -0.4888948226
O   O29       1.0  0.78370  0.66875  0.16970  1.0000 -0.4888948226
O   O30       1.0  0.66875  0.16970  0.78370  1.0000 -0.4888948226
O   O31       1.0  0.81051  0.32220  0.38989  1.0000 -0.3809440557
O   O32       1.0  0.32220  0.38989  0.81051  1.0000 -0.3862093959
O   O33       1.0  0.38989  0.81051  0.32220  1.0000 -0.3862093959
O   O34       1.0  0.18949  0.67780  0.61011  1.0000 -0.3809440557
O   O35       1.0  0.67780  0.61011  0.18949  1.0000 -0.3809440557
O   O36       1.0  0.61011  0.18949  0.67780  1.0000 -0.3809440557
O   O37       1.0  0.86907  0.53361  0.17005  1.0000 -0.4131676976
O   O38       1.0  0.53361  0.17005  0.86907  1.0000 -0.4151822676
O   O39       1.0  0.17005  0.86907  0.53361  1.0000 -0.4151822676
O   O40       1.0  0.13093  0.46639  0.82995  1.0000 -0.4131676976
O   O41       1.0  0.46639  0.82995  0.13093  1.0000 -0.4151822676
O   O42       1.0  0.82995  0.13093  0.46639  1.0000 -0.4151822676
O   O43       1.0  0.84977  0.54829  0.28123  1.0000 -0.43735011
O   O44       1.0  0.54829  0.28123  0.84977  1.0000 -0.43735011
O   O45       1.0  0.28123  0.84977  0.54829  1.0000 -0.43735011
O   O46       1.0  0.15023  0.45171  0.71877  1.0000 -0.43735011
O   O47       1.0  0.45171  0.71877  0.15023  1.0000 -0.43735011
O   O48       1.0  0.71877  0.15023  0.45171  1.0000 -0.43735011
