# DDEC6 charges by PACMAN v1.1 (https://github.com/mtap-research/PACMAN-charge/)
data_2014[Yb][nan]3[FSR]1
_chemical_formula_sum              "Yb4 H22 C22 N2 O34"
_cell_length_a       8.6697
_cell_length_b       10.155
_cell_length_c       13.455
_cell_angle_alpha    94.61
_cell_angle_beta     89
_cell_angle_gamma    102.74

_symmetry_space_group_name_H-M    "P 1"
_symmetry_Int_Tables_number       1

loop_
  _symmetry_equiv_pos_as_xyz
  'x, y, z'

loop_
  _atom_site_type_symbol
  _atom_site_label
  _atom_site_symmetry_multiplicity
  _atom_site_fract_x
  _atom_site_fract_y
  _atom_site_fract_z
  _atom_site_occupancy
  _atom_site_charge
Yb  Yb1       1.0  0.91898  0.19330  0.49736  1.0000 1.9781556268
Yb  Yb2       1.0  0.08102  0.80670  0.50264  1.0000 1.9781556268
Yb  Yb3       1.0  0.53301  0.23244  0.07716  1.0000 2.0431330343
Yb  Yb4       1.0  0.46699  0.76756  0.92284  1.0000 2.0431330343
H   H1        1.0  0.02210  0.17190  0.29880  1.0000 0.4166984399
H   H2        1.0  0.97790  0.82810  0.70120  1.0000 0.4166984399
H   H3        1.0  0.97420  0.03160  0.32700  1.0000 0.4098660042
H   H4        1.0  0.02580  0.96840  0.67300  1.0000 0.4098660042
H   H5        1.0  0.79990  0.21000  0.96980  1.0000 0.356626599
H   H6        1.0  0.20010  0.79000  0.03020  1.0000 0.356626599
H   H7        1.0  0.81410  0.12850  0.04420  1.0000 0.3362475773
H   H8        1.0  0.18590  0.87150  0.95580  1.0000 0.3362475773
H   H9        1.0  0.78240  0.27150  0.20800  1.0000 0.3687737425
H   H10       1.0  0.21760  0.72850  0.79200  1.0000 0.3687737425
H   H11       1.0  0.65910  0.29770  0.26580  1.0000 0.3687737425
H   H12       1.0  0.34090  0.70230  0.73420  1.0000 0.3687737425
H   H13       1.0  0.35640  0.34440  0.22530  1.0000 0.4306424026
H   H14       1.0  0.64360  0.65560  0.77470  1.0000 0.4306424026
H   H15       1.0  0.34270  0.20310  0.24880  1.0000 0.4306424026
H   H16       1.0  0.65730  0.79690  0.75120  1.0000 0.4306424026
H   H17       1.0  0.21100  0.12300  0.01390  1.0000 0.4098660042
H   H18       1.0  0.78900  0.87700  0.98610  1.0000 0.4098660042
H   H19       1.0  0.25850  0.01260  0.06170  1.0000 0.3851653477
H   H20       1.0  0.74150  0.98740  0.93830  1.0000 0.3851653477
H   H21       1.0  0.29020  0.11030  0.72450  1.0000 0.1440020641
H   H22       1.0  0.70980  0.88970  0.27550  1.0000 0.1440020641
C   C1        1.0  0.82300  0.12270  0.72650  1.0000 0.5678168674
C   C2        1.0  0.17700  0.87730  0.27350  1.0000 0.5678168674
C   C3        1.0  0.66690  0.13630  0.68560  1.0000 0.1023440724
C   C4        1.0  0.33310  0.86370  0.31440  1.0000 0.1023440724
C   C5        1.0  0.52600  0.11730  0.73960  1.0000 -0.0444383333
C   C6        1.0  0.47400  0.88270  0.26040  1.0000 -0.0444383333
C   C7        1.0  0.38620  0.12360  0.69070  1.0000 -0.0920229601
C   C8        1.0  0.61380  0.87640  0.30930  1.0000 -0.0920229601
C   C9        1.0  0.39420  0.15010  0.59070  1.0000 -0.0312779919
C   C10       1.0  0.60580  0.84990  0.40930  1.0000 -0.0312779919
C   C11       1.0  0.53960  0.16920  0.54290  1.0000 0.0839815428
C   C12       1.0  0.46040  0.83080  0.45710  1.0000 0.0839815428
C   C13       1.0  0.56160  0.19160  0.43330  1.0000 0.5526298424
C   C14       1.0  0.43840  0.80840  0.56670  1.0000 0.5526298424
C   C15       1.0  0.51100  0.08810  0.84720  1.0000 0.6744109531
C   C16       1.0  0.48900  0.91190  0.15280  1.0000 0.6744109531
C   C17       1.0  0.24040  0.14920  0.54030  1.0000 0.6444407841
C   C18       1.0  0.75960  0.85080  0.45970  1.0000 0.6444407841
C   C19       1.0  0.01790  0.49370  0.44370  1.0000 0.5159419914
C   C20       1.0  0.98210  0.50630  0.55630  1.0000 0.5159419914
C   C21       1.0  0.58930  0.52550  0.00450  1.0000 0.5159419914
C   C22       1.0  0.41070  0.47450  0.99550  1.0000 0.5159419914
N   N1        1.0  0.67190  0.16220  0.58970  1.0000 -0.3708720367
N   N2        1.0  0.32810  0.83780  0.41030  1.0000 -0.3708720367
O   O1        1.0  0.93680  0.13820  0.66420  1.0000 -0.6196320514
O   O2        1.0  0.06320  0.86180  0.33580  1.0000 -0.6196320514
O   O3        1.0  0.83010  0.09330  0.81260  1.0000 -0.5407755832
O   O4        1.0  0.16990  0.90670  0.18740  1.0000 -0.5407755832
O   O5        1.0  0.53850  0.18590  0.90990  1.0000 -0.6550941031
O   O6        1.0  0.46150  0.81410  0.09010  1.0000 -0.6550941031
O   O7        1.0  0.46190  0.96640  0.86550  1.0000 -0.7090100507
O   O8        1.0  0.53810  0.03360  0.13450  1.0000 -0.7090100507
O   O9        1.0  0.15880  0.03730  0.50750  1.0000 -0.6935322742
O   O10       1.0  0.84120  0.96270  0.49250  1.0000 -0.6935322742
O   O11       1.0  0.19260  0.25760  0.53980  1.0000 -0.6009098351
O   O12       1.0  0.80740  0.74240  0.46020  1.0000 -0.6009098351
O   O13       1.0  0.43930  0.19070  0.38610  1.0000 -0.5080630938
O   O14       1.0  0.56070  0.80930  0.61390  1.0000 -0.5080630938
O   O15       1.0  0.70180  0.20710  0.40120  1.0000 -0.6420869986
O   O16       1.0  0.29820  0.79290  0.59880  1.0000 -0.6420869986
O   O17       1.0  0.00660  0.37940  0.40320  1.0000 -0.5671486418
O   O18       1.0  0.99340  0.62060  0.59680  1.0000 -0.5671486418
O   O19       1.0  0.05970  0.60440  0.40420  1.0000 -0.5888141374
O   O20       1.0  0.94030  0.39560  0.59580  1.0000 -0.5888141374
O   O21       1.0  0.98580  0.11620  0.34180  1.0000 -0.7829930346
O   O22       1.0  0.01420  0.88380  0.65820  1.0000 -0.7829930346
O   O23       1.0  0.66640  0.44940  0.04240  1.0000 -0.5888141374
O   O24       1.0  0.33360  0.55060  0.95760  1.0000 -0.5888141374
O   O25       1.0  0.64540  0.63990  0.97520  1.0000 -0.5888141374
O   O26       1.0  0.35460  0.36010  0.02480  1.0000 -0.6009098351
O   O27       1.0  0.78910  0.20200  0.03210  1.0000 -0.7612324814
O   O28       1.0  0.21090  0.79800  0.96790  1.0000 -0.7612324814
O   O29       1.0  0.70890  0.31500  0.21170  1.0000 -0.7418114404
O   O30       1.0  0.29110  0.68500  0.78830  1.0000 -0.7418114404
O   O31       1.0  0.37830  0.26730  0.21200  1.0000 -0.812853084
O   O32       1.0  0.62170  0.73270  0.78800  1.0000 -0.812853084
O   O33       1.0  0.28020  0.09300  0.04370  1.0000 -0.7898567776
O   O34       1.0  0.71980  0.90700  0.95630  1.0000 -0.7898567776
