# DDEC6 charges by PACMAN v1.1 (https://github.com/mtap-research/PACMAN-charge/)
data_2014[Cu][dia]3[FSR]13
_chemical_formula_sum              "Cu8 H96 C76 N24 O24"
_cell_length_a       13.492
_cell_length_b       14.377
_cell_length_c       16.191
_cell_angle_alpha    90
_cell_angle_beta     90
_cell_angle_gamma    90

_symmetry_space_group_name_H-M    "P 1"
_symmetry_Int_Tables_number       1

loop_
  _symmetry_equiv_pos_as_xyz
  'x, y, z'

loop_
  _atom_site_type_symbol
  _atom_site_label
  _atom_site_symmetry_multiplicity
  _atom_site_fract_x
  _atom_site_fract_y
  _atom_site_fract_z
  _atom_site_occupancy
  _atom_site_charge
Cu  Cu1       1.0  0.29940  0.79326  0.33602  1.0000 0.7381735246
Cu  Cu2       1.0  0.20060  0.20674  0.83602  1.0000 0.7381735246
Cu  Cu3       1.0  0.79940  0.70674  0.66398  1.0000 0.7381735246
Cu  Cu4       1.0  0.70060  0.29326  0.16398  1.0000 0.7381735246
Cu  Cu5       1.0  0.57011  0.54879  0.41501  1.0000 0.7270841103
Cu  Cu6       1.0  0.92989  0.45121  0.91501  1.0000 0.7270841103
Cu  Cu7       1.0  0.07011  0.95121  0.58499  1.0000 0.7270841103
Cu  Cu8       1.0  0.42989  0.04879  0.08499  1.0000 0.7270841103
H   H1        1.0  0.22590  0.13490  0.66150  1.0000 0.2918671395
H   H2        1.0  0.27410  0.86510  0.16150  1.0000 0.2918671395
H   H3        1.0  0.72590  0.36510  0.33850  1.0000 0.2918671395
H   H4        1.0  0.77410  0.63490  0.83850  1.0000 0.2918671395
H   H5        1.0  0.62360  0.54580  0.59500  1.0000 0.2918671395
H   H6        1.0  0.87640  0.45420  0.09500  1.0000 0.2918671395
H   H7        1.0  0.12360  0.95420  0.40500  1.0000 0.2918671395
H   H8        1.0  0.37640  0.04580  0.90500  1.0000 0.2918671395
H   H9        1.0  0.49790  0.85280  0.52930  1.0000 0.1419094341
H   H10       1.0  0.00210  0.14720  0.02930  1.0000 0.1419094341
H   H11       1.0  0.99790  0.64720  0.47070  1.0000 0.1419094341
H   H12       1.0  0.50210  0.35280  0.97070  1.0000 0.1419094341
H   H13       1.0  0.41670  0.91390  0.57460  1.0000 0.1419094341
H   H14       1.0  0.08330  0.08610  0.07460  1.0000 0.1419094341
H   H15       1.0  0.91670  0.58610  0.42540  1.0000 0.1419094341
H   H16       1.0  0.58330  0.41390  0.92540  1.0000 0.1419094341
H   H17       1.0  0.43380  0.92510  0.47830  1.0000 0.1419094341
H   H18       1.0  0.06620  0.07490  0.97830  1.0000 0.1419094341
H   H19       1.0  0.93380  0.57490  0.52170  1.0000 0.1419094341
H   H20       1.0  0.56620  0.42510  0.02170  1.0000 0.1419094341
H   H21       1.0  0.35490  0.76030  0.55300  1.0000 0.1085186738
H   H22       1.0  0.14510  0.23970  0.05300  1.0000 0.1085186738
H   H23       1.0  0.85490  0.73970  0.44700  1.0000 0.1085186738
H   H24       1.0  0.64510  0.26030  0.94700  1.0000 0.1085186738
H   H25       1.0  0.47830  0.54510  0.20920  1.0000 0.1085186738
H   H26       1.0  0.02170  0.45490  0.70920  1.0000 0.1085186738
H   H27       1.0  0.97830  0.95490  0.79080  1.0000 0.1085186738
H   H28       1.0  0.52170  0.04510  0.29080  1.0000 0.1085186738
H   H29       1.0  0.56330  0.68350  0.17230  1.0000 0.1497721535
H   H30       1.0  0.93670  0.31650  0.67230  1.0000 0.1497721535
H   H31       1.0  0.06330  0.81650  0.82770  1.0000 0.1497721535
H   H32       1.0  0.43670  0.18350  0.32770  1.0000 0.1497721535
H   H33       1.0  0.61890  0.59710  0.13310  1.0000 0.1419094341
H   H34       1.0  0.88110  0.40290  0.63310  1.0000 0.1419094341
H   H35       1.0  0.11890  0.90290  0.86690  1.0000 0.1419094341
H   H36       1.0  0.38110  0.09710  0.36690  1.0000 0.1419094341
H   H37       1.0  0.66180  0.64540  0.21340  1.0000 0.1419094341
H   H38       1.0  0.83820  0.35460  0.71340  1.0000 0.1419094341
H   H39       1.0  0.16180  0.85460  0.78660  1.0000 0.1419094341
H   H40       1.0  0.33820  0.14540  0.28660  1.0000 0.1419094341
H   H41       1.0  0.28980  0.10050  0.53020  1.0000 0.1497721535
H   H42       1.0  0.21020  0.89950  0.03020  1.0000 0.1497721535
H   H43       1.0  0.78980  0.39950  0.46980  1.0000 0.1497721535
H   H44       1.0  0.71020  0.60050  0.96980  1.0000 0.1497721535
H   H45       1.0  0.40670  0.09240  0.52600  1.0000 0.1497721535
H   H46       1.0  0.09330  0.90760  0.02600  1.0000 0.1497721535
H   H47       1.0  0.90670  0.40760  0.47400  1.0000 0.1497721535
H   H48       1.0  0.59330  0.59240  0.97400  1.0000 0.1497721535
H   H49       1.0  0.35350  0.18480  0.49640  1.0000 0.1497721535
H   H50       1.0  0.14650  0.81520  0.99640  1.0000 0.1497721535
H   H51       1.0  0.85350  0.31520  0.50360  1.0000 0.1419094341
H   H52       1.0  0.64650  0.68480  0.00360  1.0000 0.1497721535
H   H53       1.0  0.38440  0.28790  0.85940  1.0000 0.1497721535
H   H54       1.0  0.11560  0.71210  0.35940  1.0000 0.1497721535
H   H55       1.0  0.88440  0.21210  0.14060  1.0000 0.1497721535
H   H56       1.0  0.61560  0.78790  0.64060  1.0000 0.1497721535
H   H57       1.0  0.44440  0.35400  0.79920  1.0000 0.1497721535
H   H58       1.0  0.05560  0.64600  0.29920  1.0000 0.1497721535
H   H59       1.0  0.94440  0.14600  0.20080  1.0000 0.1497721535
H   H60       1.0  0.55560  0.85400  0.70080  1.0000 0.1497721535
H   H61       1.0  0.49260  0.26000  0.83050  1.0000 0.1497721535
H   H62       1.0  0.00740  0.74000  0.33050  1.0000 0.1497721535
H   H63       1.0  0.99260  0.24000  0.16950  1.0000 0.1497721535
H   H64       1.0  0.50740  0.76000  0.66950  1.0000 0.1497721535
H   H65       1.0  0.55140  0.20380  0.59630  1.0000 0.0866564529
H   H66       1.0  0.94860  0.79620  0.09630  1.0000 0.0866564529
H   H67       1.0  0.05140  0.29620  0.40370  1.0000 0.0866564529
H   H68       1.0  0.44860  0.70380  0.90370  1.0000 0.0866564529
H   H69       1.0  0.57160  0.20760  0.66760  1.0000 0.0866564529
H   H70       1.0  0.92840  0.79240  0.16760  1.0000 0.0866564529
H   H71       1.0  0.07160  0.29240  0.33240  1.0000 0.0866564529
H   H72       1.0  0.42840  0.70760  0.83240  1.0000 0.0866564529
H   H73       1.0  0.49540  0.35990  0.40040  1.0000 0.1497721535
H   H74       1.0  0.00460  0.64010  0.90040  1.0000 0.1497721535
H   H75       1.0  0.99540  0.14010  0.59960  1.0000 0.1497721535
H   H76       1.0  0.50460  0.85990  0.09960  1.0000 0.1497721535
H   H77       1.0  0.42700  0.30450  0.46290  1.0000 0.1419094341
H   H78       1.0  0.07300  0.69550  0.96290  1.0000 0.1419094341
H   H79       1.0  0.92700  0.19550  0.53710  1.0000 0.1419094341
H   H80       1.0  0.57300  0.80450  0.03710  1.0000 0.1419094341
H   H81       1.0  0.53370  0.26610  0.44060  1.0000 0.1497721535
H   H82       1.0  0.96630  0.73390  0.94060  1.0000 0.1497721535
H   H83       1.0  0.03370  0.23390  0.55940  1.0000 0.1497721535
H   H84       1.0  0.46630  0.76610  0.05940  1.0000 0.1497721535
H   H85       1.0  0.61270  0.38610  0.76190  1.0000 0.1497721535
H   H86       1.0  0.88730  0.61390  0.26190  1.0000 0.1497721535
H   H87       1.0  0.11270  0.11390  0.23810  1.0000 0.1497721535
H   H88       1.0  0.38730  0.88610  0.73810  1.0000 0.1497721535
H   H89       1.0  0.58520  0.49250  0.75100  1.0000 0.1497721535
H   H90       1.0  0.91480  0.50750  0.25100  1.0000 0.1497721535
H   H91       1.0  0.08520  0.00750  0.24900  1.0000 0.1497721535
H   H92       1.0  0.41480  0.99250  0.74900  1.0000 0.1497721535
H   H93       1.0  0.69340  0.45720  0.72940  1.0000 0.1497721535
H   H94       1.0  0.80660  0.54280  0.22940  1.0000 0.1497721535
H   H95       1.0  0.19340  0.04280  0.27060  1.0000 0.1497721535
H   H96       1.0  0.30660  0.95720  0.77060  1.0000 0.1497721535
C   C1        1.0  0.25470  0.85180  0.49840  1.0000 0.5662064354
C   C2        1.0  0.24530  0.14820  0.99840  1.0000 0.5662064354
C   C3        1.0  0.75470  0.64820  0.50160  1.0000 0.5662064354
C   C4        1.0  0.74530  0.35180  0.00160  1.0000 0.5662064354
C   C5        1.0  0.43300  0.88140  0.52390  1.0000 -0.4218271945
C   C6        1.0  0.06700  0.11860  0.02390  1.0000 -0.4218271945
C   C7        1.0  0.93300  0.61860  0.47610  1.0000 -0.4218271945
C   C8        1.0  0.56700  0.38140  0.97610  1.0000 -0.4218271945
C   C9        1.0  0.35570  0.80630  0.50750  1.0000 0.0427959992
C   C10       1.0  0.14430  0.19370  0.00750  1.0000 0.0427959992
C   C11       1.0  0.85570  0.69370  0.49250  1.0000 0.0427959992
C   C12       1.0  0.64430  0.30630  0.99250  1.0000 0.0427959992
C   C13       1.0  0.44080  0.69310  0.41860  1.0000 0.3560988748
C   C14       1.0  0.05920  0.30690  0.91860  1.0000 0.3560988748
C   C15       1.0  0.94080  0.80690  0.58140  1.0000 0.3560988748
C   C16       1.0  0.55920  0.19310  0.08140  1.0000 0.3560988748
C   C17       1.0  0.44750  0.66500  0.32900  1.0000 0.3560988748
C   C18       1.0  0.05250  0.33500  0.82900  1.0000 0.3560988748
C   C19       1.0  0.94750  0.83500  0.67100  1.0000 0.3560988748
C   C20       1.0  0.55250  0.16500  0.17100  1.0000 0.3545436959
C   C21       1.0  0.54020  0.56210  0.23840  1.0000 0.0427959992
C   C22       1.0  0.95980  0.43790  0.73840  1.0000 0.0427959992
C   C23       1.0  0.04020  0.93790  0.76160  1.0000 0.0427959992
C   C24       1.0  0.45980  0.06210  0.26160  1.0000 0.0427959992
C   C25       1.0  0.60170  0.62810  0.18430  1.0000 -0.4218271945
C   C26       1.0  0.89830  0.37190  0.68430  1.0000 -0.4218271945
C   C27       1.0  0.10170  0.87190  0.81570  1.0000 -0.4218271945
C   C28       1.0  0.39830  0.12810  0.31570  1.0000 -0.4218271945
C   C29       1.0  0.60060  0.47490  0.25600  1.0000 0.5626601379
C   C30       1.0  0.89940  0.52510  0.75600  1.0000 0.5626601379
C   C31       1.0  0.10060  0.02510  0.74400  1.0000 0.5626601379
C   C32       1.0  0.39940  0.97490  0.24400  1.0000 0.5626601379
C   C33       1.0  0.35160  0.13430  0.53600  1.0000 -0.4919613857
C   C34       1.0  0.14840  0.86570  0.03600  1.0000 -0.4919613857
C   C35       1.0  0.85160  0.36570  0.46400  1.0000 -0.4919613857
C   C36       1.0  0.64840  0.63430  0.96400  1.0000 -0.4919613857
C   C37       1.0  0.35920  0.17330  0.62260  1.0000 0.1752159509
C   C38       1.0  0.14080  0.82670  0.12260  1.0000 0.1752159509
C   C39       1.0  0.85920  0.32670  0.37740  1.0000 0.1752159509
C   C40       1.0  0.64080  0.67330  0.87740  1.0000 0.1752159509
C   C41       1.0  0.42990  0.22400  0.66390  1.0000 -0.0998001687
C   C42       1.0  0.07010  0.77600  0.16390  1.0000 -0.0998001687
C   C43       1.0  0.92990  0.27600  0.33610  1.0000 -0.0998001687
C   C44       1.0  0.57010  0.72400  0.83610  1.0000 -0.0998001687
C   C45       1.0  0.38930  0.24060  0.74240  1.0000 0.1900383949
C   C46       1.0  0.11070  0.75940  0.24240  1.0000 0.1900383949
C   C47       1.0  0.88930  0.25940  0.25760  1.0000 0.1900383949
C   C48       1.0  0.61070  0.74060  0.75760  1.0000 0.1900383949
C   C49       1.0  0.43120  0.28980  0.81400  1.0000 -0.4919613857
C   C50       1.0  0.06880  0.71020  0.31400  1.0000 -0.4919613857
C   C51       1.0  0.93120  0.21020  0.18600  1.0000 -0.4919613857
C   C52       1.0  0.56880  0.78980  0.68600  1.0000 -0.4919613857
C   C53       1.0  0.53380  0.25030  0.63570  1.0000 -0.1884896804
C   C54       1.0  0.96620  0.74970  0.13570  1.0000 -0.1884896804
C   C55       1.0  0.03380  0.24970  0.36430  1.0000 -0.1884896804
C   C56       1.0  0.46620  0.75030  0.86430  1.0000 -0.1884896804
C   C57       1.0  0.49470  0.32180  0.44980  1.0000 -0.4838145573
C   C58       1.0  0.00530  0.67820  0.94980  1.0000 -0.4838145573
C   C59       1.0  0.99470  0.17820  0.55020  1.0000 -0.4838145573
C   C60       1.0  0.50530  0.82180  0.05020  1.0000 -0.4838145573
C   C61       1.0  0.53760  0.37530  0.51980  1.0000 0.2035487357
C   C62       1.0  0.96240  0.62470  0.01980  1.0000 0.2035487357
C   C63       1.0  0.03760  0.12470  0.48020  1.0000 0.2035487357
C   C64       1.0  0.46240  0.87530  0.98020  1.0000 0.2035487357
C   C65       1.0  0.55090  0.34690  0.60230  1.0000 -0.1109006305
C   C66       1.0  0.94910  0.65310  0.10230  1.0000 -0.1109006305
C   C67       1.0  0.05090  0.15310  0.39770  1.0000 -0.1109006305
C   C68       1.0  0.44910  0.84690  0.89770  1.0000 -0.1109006305
C   C69       1.0  0.59170  0.42280  0.64180  1.0000 0.1900383949
C   C70       1.0  0.90830  0.57720  0.14180  1.0000 0.1900383949
C   C71       1.0  0.09170  0.07720  0.35820  1.0000 0.1900383949
C   C72       1.0  0.40830  0.92280  0.85820  1.0000 0.1900383949
C   C73       1.0  0.62350  0.44130  0.72860  1.0000 -0.495854934
C   C74       1.0  0.87650  0.55870  0.22860  1.0000 -0.495854934
C   C75       1.0  0.12350  0.05870  0.27140  1.0000 -0.4919613857
C   C76       1.0  0.37650  0.94130  0.77140  1.0000 -0.4919613857
N   N1        1.0  0.37820  0.76080  0.42890  1.0000 -0.4028541048
N   N2        1.0  0.12180  0.23920  0.92890  1.0000 -0.4028541048
N   N3        1.0  0.87820  0.73920  0.57110  1.0000 -0.4028541048
N   N4        1.0  0.62180  0.26080  0.07110  1.0000 -0.4028541048
N   N5        1.0  0.51630  0.60350  0.31760  1.0000 -0.4079044733
N   N6        1.0  0.98370  0.39650  0.81760  1.0000 -0.4079044733
N   N7        1.0  0.01630  0.89650  0.68240  1.0000 -0.4079044733
N   N8        1.0  0.48370  0.10350  0.18240  1.0000 -0.4079044733
N   N9        1.0  0.29900  0.20230  0.74770  1.0000 -0.2447950591
N   N10       1.0  0.20100  0.79770  0.24770  1.0000 -0.2447950591
N   N11       1.0  0.79900  0.29770  0.25230  1.0000 -0.2447950591
N   N12       1.0  0.70100  0.70230  0.75230  1.0000 -0.2447950591
N   N13       1.0  0.28080  0.16310  0.67440  1.0000 -0.1304636442
N   N14       1.0  0.21920  0.83690  0.17440  1.0000 -0.1304636442
N   N15       1.0  0.78080  0.33690  0.32560  1.0000 -0.1304636442
N   N16       1.0  0.71920  0.66310  0.82560  1.0000 -0.1304636442
N   N17       1.0  0.60020  0.49060  0.58480  1.0000 -0.1304636442
N   N18       1.0  0.89980  0.50940  0.08480  1.0000 -0.1304636442
N   N19       1.0  0.10020  0.00940  0.41520  1.0000 -0.1304636442
N   N20       1.0  0.39980  0.99060  0.91520  1.0000 -0.1304636442
N   N21       1.0  0.56810  0.46270  0.51060  1.0000 -0.2501978066
N   N22       1.0  0.93190  0.53730  0.01060  1.0000 -0.2501978066
N   N23       1.0  0.06810  0.03730  0.48940  1.0000 -0.2501978066
N   N24       1.0  0.43190  0.96270  0.98940  1.0000 -0.2501978066
O   O1        1.0  0.21830  0.89000  0.55880  1.0000 -0.5203455363
O   O2        1.0  0.28170  0.11000  0.05880  1.0000 -0.5203455363
O   O3        1.0  0.71830  0.61000  0.44120  1.0000 -0.5203455363
O   O4        1.0  0.78170  0.39000  0.94120  1.0000 -0.5203455363
O   O5        1.0  0.21540  0.85100  0.42520  1.0000 -0.5312877346
O   O6        1.0  0.28460  0.14900  0.92520  1.0000 -0.5312877346
O   O7        1.0  0.71540  0.64900  0.57480  1.0000 -0.5312877346
O   O8        1.0  0.78460  0.35100  0.07480  1.0000 -0.5312877346
O   O9        1.0  0.38860  0.70170  0.27630  1.0000 -0.4530334671
O   O10       1.0  0.11140  0.29830  0.77630  1.0000 -0.4530334671
O   O11       1.0  0.88860  0.79830  0.72370  1.0000 -0.4530334671
O   O12       1.0  0.61140  0.20170  0.22370  1.0000 -0.4530334671
O   O13       1.0  0.49300  0.65110  0.47170  1.0000 -0.443738838
O   O14       1.0  0.00700  0.34890  0.97170  1.0000 -0.443738838
O   O15       1.0  0.99300  0.84890  0.52830  1.0000 -0.443738838
O   O16       1.0  0.50700  0.15110  0.02830  1.0000 -0.443738838
O   O17       1.0  0.62180  0.45740  0.33100  1.0000 -0.5203455363
O   O18       1.0  0.87820  0.54260  0.83100  1.0000 -0.5203455363
O   O19       1.0  0.12180  0.04260  0.66900  1.0000 -0.5203455363
O   O20       1.0  0.37820  0.95740  0.16900  1.0000 -0.5203455363
O   O21       1.0  0.62720  0.42720  0.19670  1.0000 -0.5312877346
O   O22       1.0  0.87280  0.57280  0.69670  1.0000 -0.5312877346
O   O23       1.0  0.12720  0.07280  0.80330  1.0000 -0.5312877346
O   O24       1.0  0.37280  0.92720  0.30330  1.0000 -0.5312877346
