# DDEC6 charges by PACMAN v1.1 (https://github.com/mtap-research/PACMAN-charge/)
data_2014[Tb][bcu]3[FSR]1
_chemical_formula_sum              "Tb2 H48 C88 S8 N8 O24"
_cell_length_a       15.3873
_cell_length_b       15.3873
_cell_length_c       9.8379
_cell_angle_alpha    90
_cell_angle_beta     90
_cell_angle_gamma    90

_symmetry_space_group_name_H-M    "P 1"
_symmetry_Int_Tables_number       1

loop_
  _symmetry_equiv_pos_as_xyz
  'x, y, z'

loop_
  _atom_site_type_symbol
  _atom_site_label
  _atom_site_symmetry_multiplicity
  _atom_site_fract_x
  _atom_site_fract_y
  _atom_site_fract_z
  _atom_site_occupancy
  _atom_site_charge
Tb  Tb1       1.0  0.50000  0.50000  0.25000  1.0000 2.239958382
Tb  Tb2       1.0  0.50000  0.50000  0.75000  1.0000 2.239958382
H   H1        1.0  0.26270  0.41160  0.20400  1.0000 0.141100865
H   H2        1.0  0.73730  0.58840  0.20400  1.0000 0.141100865
H   H3        1.0  0.41160  0.73730  0.20400  1.0000 0.141100865
H   H4        1.0  0.58840  0.26270  0.20400  1.0000 0.141100865
H   H5        1.0  0.26270  0.58840  0.29600  1.0000 0.141100865
H   H6        1.0  0.73730  0.41160  0.29600  1.0000 0.141100865
H   H7        1.0  0.41160  0.26270  0.29600  1.0000 0.141100865
H   H8        1.0  0.58840  0.73730  0.29600  1.0000 0.141100865
H   H9        1.0  0.73730  0.58840  0.79600  1.0000 0.141100865
H   H10       1.0  0.26270  0.41160  0.79600  1.0000 0.141100865
H   H11       1.0  0.58840  0.26270  0.79600  1.0000 0.141100865
H   H12       1.0  0.41160  0.73730  0.79600  1.0000 0.141100865
H   H13       1.0  0.73730  0.41160  0.70400  1.0000 0.141100865
H   H14       1.0  0.26270  0.58840  0.70400  1.0000 0.141100865
H   H15       1.0  0.58840  0.73730  0.70400  1.0000 0.141100865
H   H16       1.0  0.41160  0.26270  0.70400  1.0000 0.141100865
H   H17       1.0  0.17820  0.28760  0.20400  1.0000 0.1327891115
H   H18       1.0  0.82180  0.71240  0.20400  1.0000 0.1327891115
H   H19       1.0  0.28760  0.82180  0.20400  1.0000 0.1327891115
H   H20       1.0  0.71240  0.17820  0.20400  1.0000 0.1327891115
H   H21       1.0  0.17820  0.71240  0.29600  1.0000 0.1327891115
H   H22       1.0  0.82180  0.28760  0.29600  1.0000 0.1327891115
H   H23       1.0  0.28760  0.17820  0.29600  1.0000 0.1327891115
H   H24       1.0  0.71240  0.82180  0.29600  1.0000 0.1327891115
H   H25       1.0  0.82180  0.71240  0.79600  1.0000 0.1327891115
H   H26       1.0  0.17820  0.28760  0.79600  1.0000 0.1327891115
H   H27       1.0  0.71240  0.17820  0.79600  1.0000 0.1327891115
H   H28       1.0  0.28760  0.82180  0.79600  1.0000 0.1327891115
H   H29       1.0  0.82180  0.28760  0.70400  1.0000 0.1327891115
H   H30       1.0  0.17820  0.71240  0.70400  1.0000 0.1327891115
H   H31       1.0  0.71240  0.82180  0.70400  1.0000 0.1327891115
H   H32       1.0  0.28760  0.17820  0.70400  1.0000 0.1327891115
H   H33       1.0  0.29740  0.15160  0.00000  1.0000 0.1481990282
H   H34       1.0  0.70260  0.84840  0.00000  1.0000 0.1481990282
H   H35       1.0  0.15160  0.70260  0.00000  1.0000 0.1481990282
H   H36       1.0  0.84840  0.29740  0.00000  1.0000 0.1481990282
H   H37       1.0  0.29740  0.84840  0.50000  1.0000 0.1481990282
H   H38       1.0  0.70260  0.15160  0.50000  1.0000 0.1481990282
H   H39       1.0  0.15160  0.29740  0.50000  1.0000 0.1481990282
H   H40       1.0  0.84840  0.70260  0.50000  1.0000 0.1481990282
H   H41       1.0  0.33310  0.99720  0.00000  1.0000 0.141100865
H   H42       1.0  0.66690  0.00280  0.00000  1.0000 0.141100865
H   H43       1.0  0.99720  0.66690  0.00000  1.0000 0.141100865
H   H44       1.0  0.00280  0.33310  0.00000  1.0000 0.141100865
H   H45       1.0  0.33310  0.00280  0.50000  1.0000 0.141100865
H   H46       1.0  0.66690  0.99720  0.50000  1.0000 0.141100865
H   H47       1.0  0.99720  0.33310  0.50000  1.0000 0.141100865
H   H48       1.0  0.00280  0.66690  0.50000  1.0000 0.141100865
C   C1        1.0  0.26850  0.42500  0.00000  1.0000 -0.0859481713
C   C2        1.0  0.73150  0.57500  0.00000  1.0000 -0.0859481713
C   C3        1.0  0.42500  0.73150  0.00000  1.0000 -0.0859481713
C   C4        1.0  0.57500  0.26850  0.00000  1.0000 -0.0859481713
C   C5        1.0  0.26850  0.57500  0.50000  1.0000 -0.0859481713
C   C6        1.0  0.73150  0.42500  0.50000  1.0000 -0.0859481713
C   C7        1.0  0.42500  0.26850  0.50000  1.0000 -0.0859481713
C   C8        1.0  0.57500  0.73150  0.50000  1.0000 -0.0859481713
C   C9        1.0  0.24501  0.38697  0.12220  1.0000 -0.0671871316
C   C10       1.0  0.75499  0.61303  0.12220  1.0000 -0.0671871316
C   C11       1.0  0.38697  0.75499  0.12220  1.0000 -0.0671871316
C   C12       1.0  0.61303  0.24501  0.12220  1.0000 -0.0671871316
C   C13       1.0  0.24501  0.61303  0.37780  1.0000 -0.0671871316
C   C14       1.0  0.75499  0.38697  0.37780  1.0000 -0.0671871316
C   C15       1.0  0.38697  0.24501  0.37780  1.0000 -0.0671871316
C   C16       1.0  0.61303  0.75499  0.37780  1.0000 -0.0671871316
C   C17       1.0  0.75499  0.61303  0.87780  1.0000 -0.0671871316
C   C18       1.0  0.24501  0.38697  0.87780  1.0000 -0.0671871316
C   C19       1.0  0.61303  0.24501  0.87780  1.0000 -0.0671871316
C   C20       1.0  0.38697  0.75499  0.87780  1.0000 -0.0671871316
C   C21       1.0  0.75499  0.38697  0.62220  1.0000 -0.0671871316
C   C22       1.0  0.24501  0.61303  0.62220  1.0000 -0.0671871316
C   C23       1.0  0.61303  0.75499  0.62220  1.0000 -0.0671871316
C   C24       1.0  0.38697  0.24501  0.62220  1.0000 -0.0671871316
C   C25       1.0  0.19518  0.31227  0.12190  1.0000 -0.122504228
C   C26       1.0  0.80482  0.68773  0.12190  1.0000 -0.122504228
C   C27       1.0  0.31227  0.80482  0.12190  1.0000 -0.122504228
C   C28       1.0  0.68773  0.19518  0.12190  1.0000 -0.122504228
C   C29       1.0  0.19518  0.68773  0.37810  1.0000 -0.122504228
C   C30       1.0  0.80482  0.31227  0.37810  1.0000 -0.122504228
C   C31       1.0  0.31227  0.19518  0.37810  1.0000 -0.122504228
C   C32       1.0  0.68773  0.80482  0.37810  1.0000 -0.122504228
C   C33       1.0  0.80482  0.68773  0.87810  1.0000 -0.122504228
C   C34       1.0  0.19518  0.31227  0.87810  1.0000 -0.122504228
C   C35       1.0  0.68773  0.19518  0.87810  1.0000 -0.122504228
C   C36       1.0  0.31227  0.80482  0.87810  1.0000 -0.122504228
C   C37       1.0  0.80482  0.31227  0.62190  1.0000 -0.122504228
C   C38       1.0  0.19518  0.68773  0.62190  1.0000 -0.122504228
C   C39       1.0  0.68773  0.80482  0.62190  1.0000 -0.122504228
C   C40       1.0  0.31227  0.19518  0.62190  1.0000 -0.122504228
C   C41       1.0  0.17000  0.27350  0.00000  1.0000 0.0954608552
C   C42       1.0  0.83000  0.72650  0.00000  1.0000 0.0954608552
C   C43       1.0  0.27350  0.83000  0.00000  1.0000 0.0954608552
C   C44       1.0  0.72650  0.17000  0.00000  1.0000 0.0954608552
C   C45       1.0  0.17000  0.72650  0.50000  1.0000 0.0954608552
C   C46       1.0  0.83000  0.27350  0.50000  1.0000 0.0954608552
C   C47       1.0  0.27350  0.17000  0.50000  1.0000 0.0954608552
C   C48       1.0  0.72650  0.83000  0.50000  1.0000 0.0954608552
C   C49       1.0  0.11790  0.19150  0.00000  1.0000 -0.0771797683
C   C50       1.0  0.88210  0.80850  0.00000  1.0000 -0.0771797683
C   C51       1.0  0.19150  0.88210  0.00000  1.0000 -0.0771797683
C   C52       1.0  0.80850  0.11790  0.00000  1.0000 -0.0771797683
C   C53       1.0  0.11790  0.80850  0.50000  1.0000 -0.0771797683
C   C54       1.0  0.88210  0.19150  0.50000  1.0000 -0.0771797683
C   C55       1.0  0.19150  0.11790  0.50000  1.0000 -0.0771797683
C   C56       1.0  0.80850  0.88210  0.50000  1.0000 -0.0771797683
C   C57       1.0  0.16440  0.11270  0.00000  1.0000 0.2043056924
C   C58       1.0  0.83560  0.88730  0.00000  1.0000 0.2043056924
C   C59       1.0  0.11270  0.83560  0.00000  1.0000 0.2043056924
C   C60       1.0  0.88730  0.16440  0.00000  1.0000 0.2043056924
C   C61       1.0  0.16440  0.88730  0.50000  1.0000 0.2043056924
C   C62       1.0  0.83560  0.11270  0.50000  1.0000 0.2043056924
C   C63       1.0  0.11270  0.16440  0.50000  1.0000 0.2043056924
C   C64       1.0  0.88730  0.83560  0.50000  1.0000 0.2043056924
C   C65       1.0  0.25800  0.10580  0.00000  1.0000 -0.1732577916
C   C66       1.0  0.74200  0.89420  0.00000  1.0000 -0.1732577916
C   C67       1.0  0.10580  0.74200  0.00000  1.0000 -0.1732577916
C   C68       1.0  0.89420  0.25800  0.00000  1.0000 -0.1732577916
C   C69       1.0  0.25800  0.89420  0.50000  1.0000 -0.1732577916
C   C70       1.0  0.74200  0.10580  0.50000  1.0000 -0.1732577916
C   C71       1.0  0.10580  0.25800  0.50000  1.0000 -0.1732577916
C   C72       1.0  0.89420  0.74200  0.50000  1.0000 -0.1732577916
C   C73       1.0  0.27740  0.02070  0.00000  1.0000 -0.1753495123
C   C74       1.0  0.72260  0.97930  0.00000  1.0000 -0.1753495123
C   C75       1.0  0.02070  0.72260  0.00000  1.0000 -0.1753495123
C   C76       1.0  0.97930  0.27740  0.00000  1.0000 -0.1753495123
C   C77       1.0  0.27740  0.97930  0.50000  1.0000 -0.1753495123
C   C78       1.0  0.72260  0.02070  0.50000  1.0000 -0.1753495123
C   C79       1.0  0.02070  0.27740  0.50000  1.0000 -0.1753495123
C   C80       1.0  0.97930  0.72260  0.50000  1.0000 -0.1753495123
C   C81       1.0  0.19810  0.97200  0.00000  1.0000 0.2086752865
C   C82       1.0  0.80190  0.02800  0.00000  1.0000 0.2086752865
C   C83       1.0  0.97200  0.80190  0.00000  1.0000 0.2086752865
C   C84       1.0  0.02800  0.19810  0.00000  1.0000 0.2086752865
C   C85       1.0  0.19810  0.02800  0.50000  1.0000 0.2086752865
C   C86       1.0  0.80190  0.97200  0.50000  1.0000 0.2086752865
C   C87       1.0  0.97200  0.19810  0.50000  1.0000 0.2086752865
C   C88       1.0  0.02800  0.80190  0.50000  1.0000 0.2086752865
S   S1        1.0  0.32096  0.52674  0.00000  1.0000 1.274734678
S   S2        1.0  0.67904  0.47326  0.00000  1.0000 1.2752021316
S   S3        1.0  0.52674  0.67904  0.00000  1.0000 1.274734678
S   S4        1.0  0.47326  0.32096  0.00000  1.0000 1.274734678
S   S5        1.0  0.32096  0.47326  0.50000  1.0000 1.274734678
S   S6        1.0  0.67904  0.52674  0.50000  1.0000 1.274734678
S   S7        1.0  0.52674  0.32096  0.50000  1.0000 1.274734678
S   S8        1.0  0.47326  0.67904  0.50000  1.0000 1.274734678
N   N1        1.0  0.12970  0.02990  0.00000  1.0000 -0.3124234464
N   N2        1.0  0.87030  0.97010  0.00000  1.0000 -0.3124234464
N   N3        1.0  0.02990  0.87030  0.00000  1.0000 -0.3124234464
N   N4        1.0  0.97010  0.12970  0.00000  1.0000 -0.3124234464
N   N5        1.0  0.12970  0.97010  0.50000  1.0000 -0.3124234464
N   N6        1.0  0.87030  0.02990  0.50000  1.0000 -0.3124234464
N   N7        1.0  0.02990  0.12970  0.50000  1.0000 -0.3124234464
N   N8        1.0  0.97010  0.87030  0.50000  1.0000 -0.3124234464
O   O1        1.0  0.37360  0.53184  0.12230  1.0000 -0.716016018
O   O2        1.0  0.62640  0.46816  0.12230  1.0000 -0.716016018
O   O3        1.0  0.53184  0.62640  0.12230  1.0000 -0.716016018
O   O4        1.0  0.46816  0.37360  0.12230  1.0000 -0.716016018
O   O5        1.0  0.37360  0.46816  0.37770  1.0000 -0.716016018
O   O6        1.0  0.62640  0.53184  0.37770  1.0000 -0.716016018
O   O7        1.0  0.53184  0.37360  0.37770  1.0000 -0.716016018
O   O8        1.0  0.46816  0.62640  0.37770  1.0000 -0.716016018
O   O9        1.0  0.62640  0.46816  0.87770  1.0000 -0.716016018
O   O10       1.0  0.37360  0.53184  0.87770  1.0000 -0.716016018
O   O11       1.0  0.46816  0.37360  0.87770  1.0000 -0.716016018
O   O12       1.0  0.53184  0.62640  0.87770  1.0000 -0.716016018
O   O13       1.0  0.62640  0.53184  0.62230  1.0000 -0.716016018
O   O14       1.0  0.37360  0.46816  0.62230  1.0000 -0.716016018
O   O15       1.0  0.46816  0.62640  0.62230  1.0000 -0.716016018
O   O16       1.0  0.53184  0.37360  0.62230  1.0000 -0.716016018
O   O17       1.0  0.25267  0.58954  0.00000  1.0000 -0.5447309401
O   O18       1.0  0.74733  0.41046  0.00000  1.0000 -0.5447309401
O   O19       1.0  0.58954  0.74733  0.00000  1.0000 -0.5447309401
O   O20       1.0  0.41046  0.25267  0.00000  1.0000 -0.5447309401
O   O21       1.0  0.25267  0.41046  0.50000  1.0000 -0.5447309401
O   O22       1.0  0.74733  0.58954  0.50000  1.0000 -0.5447309401
O   O23       1.0  0.58954  0.25267  0.50000  1.0000 -0.5447309401
O   O24       1.0  0.41046  0.74733  0.50000  1.0000 -0.5447309401
