# DDEC6 charges by PACMAN v1.1 (https://github.com/mtap-research/PACMAN-charge/)
data_2014[Cu][tbo]3[FSR]3
_chemical_formula_sum              "Cu12 H48 C72 O60"
_cell_length_a       18.5614
_cell_length_b       18.5614
_cell_length_c       18.5614
_cell_angle_alpha    60
_cell_angle_beta     60
_cell_angle_gamma    60

_symmetry_space_group_name_H-M    "P 1"
_symmetry_Int_Tables_number       1

loop_
  _symmetry_equiv_pos_as_xyz
  'x, y, z'

loop_
  _atom_site_type_symbol
  _atom_site_label
  _atom_site_symmetry_multiplicity
  _atom_site_fract_x
  _atom_site_fract_y
  _atom_site_fract_z
  _atom_site_occupancy
  _atom_site_charge
Cu  Cu1       1.0  0.00000  0.00000  0.56896  1.0000 0.8476939706
Cu  Cu2       1.0  0.56896  0.43104  0.00000  1.0000 0.8476939706
Cu  Cu3       1.0  0.00000  0.00000  0.43104  1.0000 0.8476939706
Cu  Cu4       1.0  0.43104  0.56896  0.00000  1.0000 0.8476939706
Cu  Cu5       1.0  0.00000  0.56896  0.00000  1.0000 0.8476939706
Cu  Cu6       1.0  0.43104  0.00000  0.56896  1.0000 0.8476939706
Cu  Cu7       1.0  0.00000  0.43104  0.56896  1.0000 0.8476939706
Cu  Cu8       1.0  0.56896  0.00000  0.00000  1.0000 0.8476939706
Cu  Cu9       1.0  0.56896  0.00000  0.43104  1.0000 0.8476939706
Cu  Cu10      1.0  0.43104  0.00000  0.00000  1.0000 0.8476939706
Cu  Cu11      1.0  0.00000  0.43104  0.00000  1.0000 0.8476939706
Cu  Cu12      1.0  0.00000  0.56896  0.43104  1.0000 0.8476939706
H   H1        1.0  0.27320  0.96480  0.27320  1.0000 0.1319602451
H   H2        1.0  0.51120  0.72680  0.72680  1.0000 0.1319602451
H   H3        1.0  0.96480  0.27320  0.48880  1.0000 0.1319602451
H   H4        1.0  0.72680  0.51120  0.03520  1.0000 0.1319602451
H   H5        1.0  0.03520  0.51120  0.72680  1.0000 0.1319602451
H   H6        1.0  0.48880  0.27320  0.96480  1.0000 0.1319602451
H   H7        1.0  0.72680  0.72680  0.51120  1.0000 0.1319602451
H   H8        1.0  0.03520  0.72680  0.51120  1.0000 0.1319602451
H   H9        1.0  0.27320  0.48880  0.27320  1.0000 0.1319602451
H   H10       1.0  0.51120  0.72680  0.03520  1.0000 0.1319602451
H   H11       1.0  0.27320  0.27320  0.96480  1.0000 0.1319602451
H   H12       1.0  0.96480  0.27320  0.27320  1.0000 0.1319602451
H   H13       1.0  0.27320  0.96480  0.48880  1.0000 0.1319602451
H   H14       1.0  0.48880  0.96480  0.27320  1.0000 0.1319602451
H   H15       1.0  0.27320  0.48880  0.96480  1.0000 0.1319602451
H   H16       1.0  0.27320  0.27320  0.48880  1.0000 0.1319602451
H   H17       1.0  0.96480  0.48880  0.27320  1.0000 0.1319602451
H   H18       1.0  0.48880  0.27320  0.27320  1.0000 0.1319602451
H   H19       1.0  0.72680  0.03520  0.51120  1.0000 0.1319602451
H   H20       1.0  0.03520  0.72680  0.72680  1.0000 0.1319602451
H   H21       1.0  0.51120  0.03520  0.72680  1.0000 0.1319602451
H   H22       1.0  0.72680  0.72680  0.03520  1.0000 0.1319602451
H   H23       1.0  0.72680  0.51120  0.72680  1.0000 0.1319602451
H   H24       1.0  0.72680  0.03520  0.72680  1.0000 0.1319602451
H   H25       1.0  0.97300  0.97300  0.74360  1.0000 0.3679028658
H   H26       1.0  0.68960  0.25640  0.02700  1.0000 0.3679028658
H   H27       1.0  0.97300  0.97300  0.31040  1.0000 0.3679028658
H   H28       1.0  0.25640  0.68960  0.02700  1.0000 0.3679028658
H   H29       1.0  0.02700  0.68960  0.02700  1.0000 0.3679028658
H   H30       1.0  0.31040  0.74360  0.97300  1.0000 0.3679028658
H   H31       1.0  0.25640  0.02700  0.68960  1.0000 0.3679028658
H   H32       1.0  0.02700  0.25640  0.68960  1.0000 0.3679028658
H   H33       1.0  0.74360  0.31040  0.97300  1.0000 0.3679028658
H   H34       1.0  0.68960  0.02700  0.02700  1.0000 0.3679028658
H   H35       1.0  0.74360  0.97300  0.97300  1.0000 0.3679028658
H   H36       1.0  0.97300  0.74360  0.97300  1.0000 0.3679028658
H   H37       1.0  0.74360  0.97300  0.31040  1.0000 0.3679028658
H   H38       1.0  0.31040  0.97300  0.97300  1.0000 0.3679028658
H   H39       1.0  0.97300  0.31040  0.97300  1.0000 0.3679028658
H   H40       1.0  0.97300  0.74360  0.31040  1.0000 0.3679028658
H   H41       1.0  0.97300  0.31040  0.74360  1.0000 0.3679028658
H   H42       1.0  0.31040  0.97300  0.74360  1.0000 0.3679028658
H   H43       1.0  0.02700  0.02700  0.68960  1.0000 0.3679028658
H   H44       1.0  0.02700  0.02700  0.25640  1.0000 0.3679028658
H   H45       1.0  0.68960  0.02700  0.25640  1.0000 0.3679028658
H   H46       1.0  0.02700  0.25640  0.02700  1.0000 0.3679028658
H   H47       1.0  0.02700  0.68960  0.25640  1.0000 0.3679028658
H   H48       1.0  0.25640  0.02700  0.02700  1.0000 0.3679028658
C   C1        1.0  0.25825  0.96669  0.38753  1.0000 -0.0288153551
C   C2        1.0  0.61247  0.61247  0.74175  1.0000 -0.0288153551
C   C3        1.0  0.96669  0.25825  0.38753  1.0000 -0.0288153551
C   C4        1.0  0.61247  0.61247  0.03331  1.0000 -0.0288153551
C   C5        1.0  0.03331  0.61247  0.74175  1.0000 -0.0288153551
C   C6        1.0  0.38753  0.38753  0.96669  1.0000 -0.0288153551
C   C7        1.0  0.61247  0.74175  0.61247  1.0000 -0.0288153551
C   C8        1.0  0.03331  0.61247  0.61247  1.0000 -0.0288153551
C   C9        1.0  0.38753  0.38753  0.25825  1.0000 -0.0288153551
C   C10       1.0  0.61247  0.74175  0.03331  1.0000 -0.0288153551
C   C11       1.0  0.38753  0.25825  0.96669  1.0000 -0.0288153551
C   C12       1.0  0.96669  0.38753  0.25825  1.0000 -0.0288153551
C   C13       1.0  0.38753  0.96669  0.38753  1.0000 -0.0288153551
C   C14       1.0  0.38753  0.96669  0.25825  1.0000 -0.0288153551
C   C15       1.0  0.25825  0.38753  0.96669  1.0000 -0.0288153551
C   C16       1.0  0.25825  0.38753  0.38753  1.0000 -0.0288153551
C   C17       1.0  0.96669  0.38753  0.38753  1.0000 -0.0288153551
C   C18       1.0  0.38753  0.25825  0.38753  1.0000 -0.0288153551
C   C19       1.0  0.74175  0.03331  0.61247  1.0000 -0.0288153551
C   C20       1.0  0.03331  0.74175  0.61247  1.0000 -0.0288153551
C   C21       1.0  0.61247  0.03331  0.61247  1.0000 -0.0288153551
C   C22       1.0  0.74175  0.61247  0.03331  1.0000 -0.0288153551
C   C23       1.0  0.74175  0.61247  0.61247  1.0000 -0.0288153551
C   C24       1.0  0.61247  0.03331  0.74175  1.0000 -0.0288153551
C   C25       1.0  0.16276  0.97424  0.43150  1.0000 0.5767683941
C   C26       1.0  0.56850  0.56850  0.83724  1.0000 0.5767683941
C   C27       1.0  0.97424  0.16276  0.43150  1.0000 0.5767683941
C   C28       1.0  0.56850  0.56850  0.02576  1.0000 0.5767683941
C   C29       1.0  0.02576  0.56850  0.83724  1.0000 0.5767683941
C   C30       1.0  0.43150  0.43150  0.97424  1.0000 0.5767683941
C   C31       1.0  0.56850  0.83724  0.56850  1.0000 0.5767683941
C   C32       1.0  0.02576  0.56850  0.56850  1.0000 0.5767683941
C   C33       1.0  0.43150  0.43150  0.16276  1.0000 0.5767683941
C   C34       1.0  0.56850  0.83724  0.02576  1.0000 0.5767683941
C   C35       1.0  0.43150  0.16276  0.97424  1.0000 0.5767683941
C   C36       1.0  0.97424  0.43150  0.16276  1.0000 0.5767683941
C   C37       1.0  0.43150  0.97424  0.43150  1.0000 0.5767683941
C   C38       1.0  0.43150  0.97424  0.16276  1.0000 0.5767683941
C   C39       1.0  0.16276  0.43150  0.97424  1.0000 0.5767683941
C   C40       1.0  0.16276  0.43150  0.43150  1.0000 0.5767683941
C   C41       1.0  0.97424  0.43150  0.43150  1.0000 0.5767683941
C   C42       1.0  0.43150  0.16276  0.43150  1.0000 0.5767683941
C   C43       1.0  0.83724  0.02576  0.56850  1.0000 0.5767683941
C   C44       1.0  0.02576  0.83724  0.56850  1.0000 0.5767683941
C   C45       1.0  0.56850  0.02576  0.56850  1.0000 0.5767683941
C   C46       1.0  0.83724  0.56850  0.02576  1.0000 0.5767683941
C   C47       1.0  0.83724  0.56850  0.56850  1.0000 0.5767683941
C   C48       1.0  0.56850  0.02576  0.83724  1.0000 0.5767683941
C   C49       1.0  0.30180  0.96582  0.30180  1.0000 -0.0931986022
C   C50       1.0  0.56942  0.69820  0.69820  1.0000 -0.0931986022
C   C51       1.0  0.96582  0.30180  0.43058  1.0000 -0.0931986022
C   C52       1.0  0.69820  0.56942  0.03418  1.0000 -0.0931986022
C   C53       1.0  0.03418  0.56942  0.69820  1.0000 -0.0931986022
C   C54       1.0  0.43058  0.30180  0.96582  1.0000 -0.0931986022
C   C55       1.0  0.69820  0.69820  0.56942  1.0000 -0.0931986022
C   C56       1.0  0.03418  0.69820  0.56942  1.0000 -0.0931986022
C   C57       1.0  0.30180  0.43058  0.30180  1.0000 -0.0931986022
C   C58       1.0  0.56942  0.69820  0.03418  1.0000 -0.0931986022
C   C59       1.0  0.30180  0.30180  0.96582  1.0000 -0.0931986022
C   C60       1.0  0.96582  0.30180  0.30180  1.0000 -0.0931986022
C   C61       1.0  0.30180  0.96582  0.43058  1.0000 -0.0931986022
C   C62       1.0  0.43058  0.96582  0.30180  1.0000 -0.0931986022
C   C63       1.0  0.30180  0.43058  0.96582  1.0000 -0.0931986022
C   C64       1.0  0.30180  0.30180  0.43058  1.0000 -0.0931986022
C   C65       1.0  0.96582  0.43058  0.30180  1.0000 -0.0931986022
C   C66       1.0  0.43058  0.30180  0.30180  1.0000 -0.0931986022
C   C67       1.0  0.69820  0.03418  0.56942  1.0000 -0.0931986022
C   C68       1.0  0.03418  0.69820  0.69820  1.0000 -0.0931986022
C   C69       1.0  0.56942  0.03418  0.69820  1.0000 -0.0931986022
C   C70       1.0  0.69820  0.69820  0.03418  1.0000 -0.0931986022
C   C71       1.0  0.69820  0.56942  0.69820  1.0000 -0.0931986022
C   C72       1.0  0.69820  0.03418  0.69820  1.0000 -0.0931986022
O   O1        1.0  0.12568  0.97904  0.50794  1.0000 -0.5290375592
O   O2        1.0  0.61266  0.49206  0.87432  1.0000 -0.5290375592
O   O3        1.0  0.97904  0.12568  0.38734  1.0000 -0.5290375592
O   O4        1.0  0.49206  0.61266  0.02096  1.0000 -0.5290375592
O   O5        1.0  0.02096  0.61266  0.87432  1.0000 -0.5290375592
O   O6        1.0  0.38734  0.50794  0.97904  1.0000 -0.5290375592
O   O7        1.0  0.49206  0.87432  0.61266  1.0000 -0.5290375592
O   O8        1.0  0.02096  0.49206  0.61266  1.0000 -0.5290375592
O   O9        1.0  0.50794  0.38734  0.12568  1.0000 -0.5290375592
O   O10       1.0  0.61266  0.87432  0.02096  1.0000 -0.5290375592
O   O11       1.0  0.50794  0.12568  0.97904  1.0000 -0.5290375592
O   O12       1.0  0.97904  0.50794  0.12568  1.0000 -0.5290375592
O   O13       1.0  0.50794  0.97904  0.38734  1.0000 -0.5290375592
O   O14       1.0  0.38734  0.97904  0.12568  1.0000 -0.5290375592
O   O15       1.0  0.12568  0.38734  0.97904  1.0000 -0.5290375592
O   O16       1.0  0.12568  0.50794  0.38734  1.0000 -0.5290375592
O   O17       1.0  0.97904  0.38734  0.50794  1.0000 -0.5290375592
O   O18       1.0  0.38734  0.12568  0.50794  1.0000 -0.5290375592
O   O19       1.0  0.87432  0.02096  0.61266  1.0000 -0.5290375592
O   O20       1.0  0.02096  0.87432  0.49206  1.0000 -0.5290375592
O   O21       1.0  0.61266  0.02096  0.49206  1.0000 -0.5290375592
O   O22       1.0  0.87432  0.49206  0.02096  1.0000 -0.5290375592
O   O23       1.0  0.87432  0.61266  0.49206  1.0000 -0.5290375592
O   O24       1.0  0.49206  0.02096  0.87432  1.0000 -0.5290375592
O   O25       1.0  0.87432  0.02096  0.49206  1.0000 -0.5290375592
O   O26       1.0  0.38734  0.50794  0.12568  1.0000 -0.5290375592
O   O27       1.0  0.02096  0.87432  0.61266  1.0000 -0.5290375592
O   O28       1.0  0.50794  0.38734  0.97904  1.0000 -0.5290375592
O   O29       1.0  0.97904  0.38734  0.12568  1.0000 -0.5290375592
O   O30       1.0  0.61266  0.49206  0.02096  1.0000 -0.5290375592
O   O31       1.0  0.50794  0.12568  0.38734  1.0000 -0.5290375592
O   O32       1.0  0.97904  0.50794  0.38734  1.0000 -0.5290375592
O   O33       1.0  0.49206  0.61266  0.87432  1.0000 -0.5290375592
O   O34       1.0  0.38734  0.12568  0.97904  1.0000 -0.5290375592
O   O35       1.0  0.49206  0.87432  0.02096  1.0000 -0.5290375592
O   O36       1.0  0.02096  0.49206  0.87432  1.0000 -0.5290375592
O   O37       1.0  0.49206  0.02096  0.61266  1.0000 -0.5290375592
O   O38       1.0  0.61266  0.02096  0.87432  1.0000 -0.5290375592
O   O39       1.0  0.87432  0.61266  0.02096  1.0000 -0.5290375592
O   O40       1.0  0.87432  0.49206  0.61266  1.0000 -0.5290375592
O   O41       1.0  0.02096  0.61266  0.49206  1.0000 -0.5290375592
O   O42       1.0  0.61266  0.87432  0.49206  1.0000 -0.5290375592
O   O43       1.0  0.12568  0.97904  0.38734  1.0000 -0.5290375592
O   O44       1.0  0.97904  0.12568  0.50794  1.0000 -0.5290375592
O   O45       1.0  0.38734  0.97904  0.50794  1.0000 -0.5290375592
O   O46       1.0  0.12568  0.50794  0.97904  1.0000 -0.5290375592
O   O47       1.0  0.12568  0.38734  0.50794  1.0000 -0.5290375592
O   O48       1.0  0.50794  0.97904  0.12568  1.0000 -0.5290375592
O   O49       1.0  0.00000  0.00000  0.69220  1.0000 -0.6407788289
O   O50       1.0  0.69220  0.30780  0.00000  1.0000 -0.6407788289
O   O51       1.0  0.00000  0.00000  0.30780  1.0000 -0.6407788289
O   O52       1.0  0.30780  0.69220  0.00000  1.0000 -0.6407788289
O   O53       1.0  0.00000  0.69220  0.00000  1.0000 -0.6407788289
O   O54       1.0  0.30780  0.00000  0.69220  1.0000 -0.6407788289
O   O55       1.0  1.00000  0.30780  0.69220  1.0000 -0.6407788289
O   O56       1.0  0.69220  0.00000  0.00000  1.0000 -0.6407788289
O   O57       1.0  0.69220  0.00000  0.30780  1.0000 -0.6407788289
O   O58       1.0  0.30780  0.00000  0.00000  1.0000 -0.6407788289
O   O59       1.0  0.00000  0.30780  0.00000  1.0000 -0.6407788289
O   O60       1.0  0.00000  0.69220  0.30780  1.0000 -0.6407788289
