# DDEC6 charges by PACMAN v1.1 (https://github.com/mtap-research/PACMAN-charge/)
data_2014[CuNd][nan]3[FSR]2
_chemical_formula_sum              "Nd16 Cu8 H288 C384 N64 O176"
_cell_length_a       32.5575
_cell_length_b       32.5575
_cell_length_c       32.5575
_cell_angle_alpha    91.7256
_cell_angle_beta     91.7256
_cell_angle_gamma    160.014

_symmetry_space_group_name_H-M    "P 1"
_symmetry_Int_Tables_number       1

loop_
  _symmetry_equiv_pos_as_xyz
  'x, y, z'

loop_
  _atom_site_type_symbol
  _atom_site_label
  _atom_site_symmetry_multiplicity
  _atom_site_fract_x
  _atom_site_fract_y
  _atom_site_fract_z
  _atom_site_occupancy
  _atom_site_charge
Nd  Nd1       1.0  0.58461  0.86636  0.91929  1.0000 2.0484245187
Nd  Nd2       1.0  0.91532  0.33461  0.21825  1.0000 2.0484245187
Nd  Nd3       1.0  0.94707  0.66532  0.08071  1.0000 2.0484245187
Nd  Nd4       1.0  0.11636  0.69707  0.78175  1.0000 2.0484245187
Nd  Nd5       1.0  0.66539  0.88364  0.58071  1.0000 2.0484245187
Nd  Nd6       1.0  0.33468  0.41539  0.28175  1.0000 2.0484245187
Nd  Nd7       1.0  0.30293  0.08468  0.41929  1.0000 2.0484245187
Nd  Nd8       1.0  0.13364  0.05293  0.71825  1.0000 2.0484245187
Nd  Nd9       1.0  0.09349  0.37112  0.92021  1.0000 2.0354943639
Nd  Nd10      1.0  0.42328  0.84349  0.22237  1.0000 2.0354943639
Nd  Nd11      1.0  0.45091  0.17328  0.07979  1.0000 2.0354943639
Nd  Nd12      1.0  0.62112  0.20091  0.77763  1.0000 2.0354943639
Nd  Nd13      1.0  0.15651  0.37888  0.57979  1.0000 2.0354943639
Nd  Nd14      1.0  0.82672  0.90651  0.27763  1.0000 2.0354943639
Nd  Nd15      1.0  0.79909  0.57672  0.42021  1.0000 2.0354943639
Nd  Nd16      1.0  0.62888  0.54909  0.72237  1.0000 2.0354943639
Cu  Cu1       1.0  0.70922  0.92195  0.11961  1.0000 0.5157800159
Cu  Cu2       1.0  0.83961  0.45922  0.28727  1.0000 0.5157800159
Cu  Cu3       1.0  0.80234  0.58961  0.88039  1.0000 0.5157800159
Cu  Cu4       1.0  0.17195  0.55234  0.71273  1.0000 0.5157800159
Cu  Cu5       1.0  0.54078  0.82805  0.38039  1.0000 0.5157800159
Cu  Cu6       1.0  0.41039  0.29078  0.21273  1.0000 0.5157800159
Cu  Cu7       1.0  0.44766  0.16039  0.61961  1.0000 0.5157800159
Cu  Cu8       1.0  0.07805  0.19766  0.78727  1.0000 0.5157800159
H   H1        1.0  0.35170  0.68140  0.93170  1.0000 0.3892696901
H   H2        1.0  0.67000  0.10170  0.17030  1.0000 0.3892696901
H   H3        1.0  0.74970  0.42000  0.06830  1.0000 0.3892696901
H   H4        1.0  0.93140  0.49970  0.82970  1.0000 0.3892696901
H   H5        1.0  0.89830  0.06860  0.56830  1.0000 0.3892696901
H   H6        1.0  0.58000  0.64830  0.32970  1.0000 0.3892696901
H   H7        1.0  0.50030  0.33000  0.43170  1.0000 0.3892696901
H   H8        1.0  0.31860  0.25030  0.67030  1.0000 0.3892696901
H   H9        1.0  0.43930  0.78910  0.95700  1.0000 0.3716567131
H   H10       1.0  0.73230  0.18930  0.15020  1.0000 0.3716567131
H   H11       1.0  0.83210  0.48230  0.04300  1.0000 0.3716567131
H   H12       1.0  0.03910  0.58210  0.84980  1.0000 0.3716567131
H   H13       1.0  0.81070  0.96090  0.54300  1.0000 0.3716567131
H   H14       1.0  0.51770  0.56070  0.34980  1.0000 0.3716567131
H   H15       1.0  0.41790  0.26770  0.45700  1.0000 0.3716567131
H   H16       1.0  0.21090  0.16790  0.65020  1.0000 0.3716567131
H   H17       1.0  0.66810  0.86110  0.91300  1.0000 0.3716567131
H   H18       1.0  0.00510  0.41810  0.30700  1.0000 0.3716567131
H   H19       1.0  0.94810  0.75510  0.08700  1.0000 0.3716567131
H   H20       1.0  0.11110  0.69810  0.69300  1.0000 0.3716567131
H   H21       1.0  0.58190  0.88890  0.58700  1.0000 0.3716567131
H   H22       1.0  0.24490  0.33190  0.19300  1.0000 0.3716567131
H   H23       1.0  0.30190  0.99490  0.41300  1.0000 0.3716567131
H   H24       1.0  0.13890  0.05190  0.80700  1.0000 0.3716567131
H   H25       1.0  0.55270  0.74880  0.92550  1.0000 0.3716567131
H   H26       1.0  0.87720  0.30270  0.30390  1.0000 0.3716567131
H   H27       1.0  0.82330  0.62720  0.07450  1.0000 0.3716567131
H   H28       1.0  0.99880  0.57330  0.69610  1.0000 0.3716567131
H   H29       1.0  0.69730  0.00120  0.57450  1.0000 0.3716567131
H   H30       1.0  0.37280  0.44730  0.19610  1.0000 0.3716567131
H   H31       1.0  0.42670  0.12280  0.42550  1.0000 0.3716567131
H   H32       1.0  0.25120  0.17670  0.80390  1.0000 0.3716567131
H   H33       1.0  0.78450  0.00820  0.97010  1.0000 0.3892696901
H   H34       1.0  0.06440  0.53450  0.27630  1.0000 0.3892696901
H   H35       1.0  0.03810  0.81440  0.02990  1.0000 0.3892696901
H   H36       1.0  0.25820  0.78810  0.72370  1.0000 0.3892696901
H   H37       1.0  0.46550  0.74180  0.52990  1.0000 0.3892696901
H   H38       1.0  0.18560  0.21550  0.22370  1.0000 0.3892696901
H   H39       1.0  0.21190  0.93560  0.47010  1.0000 0.3892696901
H   H40       1.0  0.99180  0.96190  0.77630  1.0000 0.3892696901
H   H41       1.0  0.81860  0.08380  0.97820  1.0000 0.3971096045
H   H42       1.0  0.09040  0.56860  0.23480  1.0000 0.3971096045
H   H43       1.0  0.10560  0.84040  0.02180  1.0000 0.3971096045
H   H44       1.0  0.33380  0.85560  0.76520  1.0000 0.3971096045
H   H45       1.0  0.43140  0.66620  0.52180  1.0000 0.3971096045
H   H46       1.0  0.15960  0.18140  0.26520  1.0000 0.3971096045
H   H47       1.0  0.14440  0.90960  0.47820  1.0000 0.3971096045
H   H48       1.0  0.91620  0.89440  0.73480  1.0000 0.3971096045
H   H49       1.0  0.72280  0.13360  0.88360  1.0000 0.1127313097
H   H50       1.0  0.08920  0.47280  0.08920  1.0000 0.1127313097
H   H51       1.0  0.25000  0.83920  0.11640  1.0000 0.1127313097
H   H52       1.0  0.38360  0.00000  0.91080  1.0000 0.1127313097
H   H53       1.0  0.52720  0.61640  0.61640  1.0000 0.1127313097
H   H54       1.0  0.16080  0.27720  0.41080  1.0000 0.1127313097
H   H55       1.0  0.00000  0.91080  0.38360  1.0000 0.1127313097
H   H56       1.0  0.86640  0.75000  0.58920  1.0000 0.1127313097
H   H57       1.0  0.24040  0.53700  0.03620  1.0000 0.139793059
H   H58       1.0  0.45420  0.99040  0.20340  1.0000 0.139793059
H   H59       1.0  0.50080  0.20420  0.96380  1.0000 0.139793059
H   H60       1.0  0.78700  0.25080  0.79660  1.0000 0.139793059
H   H61       1.0  0.00960  0.21300  0.46380  1.0000 0.139793059
H   H62       1.0  0.79580  0.75960  0.29660  1.0000 0.139793059
H   H63       1.0  0.74920  0.54580  0.53620  1.0000 0.139793059
H   H64       1.0  0.46300  0.49920  0.70340  1.0000 0.139793059
H   H65       1.0  0.80130  0.27400  0.89230  1.0000 0.1298256458
H   H66       1.0  0.15900  0.55130  0.02730  1.0000 0.1298256458
H   H67       1.0  0.38170  0.90900  0.10770  1.0000 0.1298256458
H   H68       1.0  0.52400  0.13170  0.97270  1.0000 0.1298256458
H   H69       1.0  0.44870  0.47600  0.60770  1.0000 0.1298256458
H   H70       1.0  0.09100  0.19870  0.47270  1.0000 0.1298256458
H   H71       1.0  0.86830  0.84100  0.39230  1.0000 0.1298256458
H   H72       1.0  0.72600  0.61830  0.52730  1.0000 0.1298256458
H   H73       1.0  0.25450  0.54390  0.10740  1.0000 0.1216500801
H   H74       1.0  0.39710  0.00450  0.21060  1.0000 0.1216500801
H   H75       1.0  0.43650  0.14710  0.89260  1.0000 0.1216500801
H   H76       1.0  0.79390  0.18650  0.78940  1.0000 0.1216500801
H   H77       1.0  0.99550  0.20610  0.39260  1.0000 0.1216500801
H   H78       1.0  0.85290  0.74550  0.28940  1.0000 0.1216500801
H   H79       1.0  0.81350  0.60290  0.60740  1.0000 0.1216500801
H   H80       1.0  0.45610  0.56350  0.71060  1.0000 0.1216500801
H   H81       1.0  0.18430  0.39360  0.86830  1.0000 0.3333166605
H   H82       1.0  0.56600  0.93430  0.29070  1.0000 0.3333166605
H   H83       1.0  0.52530  0.31600  0.13170  1.0000 0.3333166605
H   H84       1.0  0.64360  0.27530  0.70930  1.0000 0.3333166605
H   H85       1.0  0.06570  0.35640  0.63170  1.0000 0.3333166605
H   H86       1.0  0.68400  0.81570  0.20930  1.0000 0.3333166605
H   H87       1.0  0.72470  0.43400  0.36830  1.0000 0.3333166605
H   H88       1.0  0.60640  0.47470  0.79070  1.0000 0.3333166605
H   H89       1.0  0.28090  0.51250  0.87760  1.0000 0.3791576093
H   H90       1.0  0.65330  0.03090  0.26840  1.0000 0.3791576093
H   H91       1.0  0.63490  0.40330  0.12240  1.0000 0.3791576093
H   H92       1.0  0.76250  0.38490  0.73160  1.0000 0.3791576093
H   H93       1.0  0.96910  0.23750  0.62240  1.0000 0.3791576093
H   H94       1.0  0.59670  0.71910  0.23160  1.0000 0.3791576093
H   H95       1.0  0.61510  0.34670  0.37760  1.0000 0.3791576093
H   H96       1.0  0.48750  0.36510  0.76840  1.0000 0.3791576093
H   H97       1.0  0.06280  0.26830  0.96310  1.0000 0.3637665576
H   H98       1.0  0.34970  0.81280  0.29450  1.0000 0.3637665576
H   H99       1.0  0.30520  0.09970  0.03690  1.0000 0.3637665576
H   H100      1.0  0.51830  0.05520  0.70550  1.0000 0.3637665576
H   H101      1.0  0.18720  0.48170  0.53690  1.0000 0.3637665576
H   H102      1.0  0.90030  0.93720  0.20550  1.0000 0.3637665576
H   H103      1.0  0.94480  0.65030  0.46310  1.0000 0.3637665576
H   H104      1.0  0.73170  0.69480  0.79450  1.0000 0.3637665576
H   H105      1.0  0.18980  0.39430  0.97030  1.0000 0.3791576093
H   H106      1.0  0.46950  0.93980  0.29550  1.0000 0.3791576093
H   H107      1.0  0.42400  0.21950  0.02970  1.0000 0.3791576093
H   H108      1.0  0.64430  0.17400  0.70450  1.0000 0.3791576093
H   H109      1.0  0.06020  0.35570  0.52970  1.0000 0.3791576093
H   H110      1.0  0.78050  0.81020  0.20450  1.0000 0.3791576093
H   H111      1.0  0.82600  0.53050  0.47030  1.0000 0.3791576093
H   H112      1.0  0.60570  0.57600  0.79550  1.0000 0.3791576093
H   H113      1.0  0.89530  0.21970  0.85800  1.0000 0.3637665576
H   H114      1.0  0.28730  0.64530  0.17560  1.0000 0.3637665576
H   H115      1.0  0.36170  0.03730  0.14200  1.0000 0.3637665576
H   H116      1.0  0.46970  0.11170  0.82440  1.0000 0.3637665576
H   H117      1.0  0.35470  0.53030  0.64200  1.0000 0.3637665576
H   H118      1.0  0.96270  0.10470  0.32440  1.0000 0.3637665576
H   H119      1.0  0.88830  0.71270  0.35800  1.0000 0.3637665576
H   H120      1.0  0.78030  0.63830  0.67560  1.0000 0.3637665576
H   H121      1.0  0.85330  0.18640  0.89630  1.0000 0.3716567131
H   H122      1.0  0.20700  0.60330  0.16690  1.0000 0.3716567131
H   H123      1.0  0.29010  0.95700  0.10370  1.0000 0.3716567131
H   H124      1.0  0.43640  0.04010  0.83310  1.0000 0.3716567131
H   H125      1.0  0.39670  0.56360  0.60370  1.0000 0.3716567131
H   H126      1.0  0.04300  0.14670  0.33310  1.0000 0.3716567131
H   H127      1.0  0.95990  0.79300  0.39630  1.0000 0.3716567131
H   H128      1.0  0.81360  0.70990  0.66690  1.0000 0.3716567131
H   H129      1.0  0.87130  0.36500  0.95870  1.0000 0.1014978628
H   H130      1.0  0.16260  0.62130  0.00630  1.0000 0.1014978628
H   H131      1.0  0.40630  0.91260  0.04130  1.0000 0.1014978628
H   H132      1.0  0.61500  0.15630  0.99370  1.0000 0.1014978628
H   H133      1.0  0.37870  0.38500  0.54130  1.0000 0.1014978628
H   H134      1.0  0.08740  0.12870  0.49370  1.0000 0.1014978628
H   H135      1.0  0.84370  0.83740  0.45870  1.0000 0.1014978628
H   H136      1.0  0.63500  0.59370  0.50630  1.0000 0.1014978628
H   H137      1.0  0.41780  0.66380  0.14380  1.0000 0.1014978628
H   H138      1.0  0.52400  0.16780  0.25400  1.0000 0.1014978628
H   H139      1.0  0.52000  0.27400  0.85620  1.0000 0.1014978628
H   H140      1.0  0.91380  0.27000  0.74600  1.0000 0.1014978628
H   H141      1.0  0.83220  0.08620  0.35620  1.0000 0.1014978628
H   H142      1.0  0.72600  0.58220  0.24600  1.0000 0.1014978628
H   H143      1.0  0.73000  0.47600  0.64380  1.0000 0.1014978628
H   H144      1.0  0.33620  0.48000  0.75400  1.0000 0.1014978628
H   H145      1.0  0.99350  0.28420  0.05990  1.0000 0.1216500801
H   H146      1.0  0.18360  0.74350  0.20930  1.0000 0.1216500801
H   H147      1.0  0.22430  0.93360  0.94010  1.0000 0.1216500801
H   H148      1.0  0.53420  0.97430  0.79070  1.0000 0.1216500801
H   H149      1.0  0.25650  0.46580  0.44010  1.0000 0.1216500801
H   H150      1.0  0.06640  0.00650  0.29070  1.0000 0.1216500801
H   H151      1.0  0.02570  0.81640  0.55990  1.0000 0.1216500801
H   H152      1.0  0.71580  0.77570  0.70930  1.0000 0.1216500801
H   H153      1.0  0.80370  0.18960  0.11290  1.0000 0.1014978628
H   H154      1.0  0.94080  0.55370  0.11410  1.0000 0.1014978628
H   H155      1.0  0.07670  0.69080  0.88710  1.0000 0.1014978628
H   H156      1.0  0.43960  0.82670  0.88590  1.0000 0.1014978628
H   H157      1.0  0.44630  0.56040  0.38710  1.0000 0.1014978628
H   H158      1.0  0.30920  0.19630  0.38590  1.0000 0.1014978628
H   H159      1.0  0.17330  0.05920  0.61290  1.0000 0.1014978628
H   H160      1.0  0.81040  0.92330  0.61410  1.0000 0.1014978628
H   H161      1.0  0.63430  0.76000  0.96690  1.0000 0.1298256458
H   H162      1.0  0.91740  0.38430  0.37430  1.0000 0.1298256458
H   H163      1.0  0.79310  0.66740  0.03310  1.0000 0.1298256458
H   H164      1.0  0.01000  0.54310  0.62570  1.0000 0.1298256458
H   H165      1.0  0.61570  0.99000  0.53310  1.0000 0.1298256458
H   H166      1.0  0.33260  0.36570  0.12570  1.0000 0.1298256458
H   H167      1.0  0.45690  0.08260  0.46690  1.0000 0.1298256458
H   H168      1.0  0.24000  0.20690  0.87430  1.0000 0.1298256458
H   H169      1.0  0.86160  0.02590  0.06210  1.0000 0.1216500801
H   H170      1.0  0.04950  0.61160  0.33570  1.0000 0.1216500801
H   H171      1.0  0.96380  0.79950  0.93790  1.0000 0.1216500801
H   H172      1.0  0.27590  0.71380  0.66430  1.0000 0.1216500801
H   H173      1.0  0.38840  0.72410  0.43790  1.0000 0.1216500801
H   H174      1.0  0.20050  0.13840  0.16430  1.0000 0.1216500801
H   H175      1.0  0.28620  0.95050  0.56210  1.0000 0.1216500801
H   H176      1.0  0.97410  0.03620  0.83570  1.0000 0.1216500801
H   H177      1.0  0.92520  0.24630  0.11910  1.0000 0.1216500801
H   H178      1.0  0.05610  0.67520  0.17890  1.0000 0.1216500801
H   H179      1.0  0.12720  0.80610  0.88090  1.0000 0.1216500801
H   H180      1.0  0.49630  0.87720  0.82110  1.0000 0.1216500801
H   H181      1.0  0.32480  0.50370  0.38090  1.0000 0.1216500801
H   H182      1.0  0.19390  0.07480  0.32110  1.0000 0.1216500801
H   H183      1.0  0.12280  0.94390  0.61910  1.0000 0.1216500801
H   H184      1.0  0.75370  0.87280  0.67890  1.0000 0.1216500801
H   H185      1.0  0.82930  0.95170  0.00500  1.0000 0.139793059
H   H186      1.0  0.07430  0.57930  0.37760  1.0000 0.139793059
H   H187      1.0  0.94670  0.82430  0.99500  1.0000 0.139793059
H   H188      1.0  0.20170  0.69670  0.62240  1.0000 0.139793059
H   H189      1.0  0.42070  0.79830  0.49500  1.0000 0.139793059
H   H190      1.0  0.17570  0.17070  0.12240  1.0000 0.139793059
H   H191      1.0  0.30330  0.92570  0.50500  1.0000 0.139793059
H   H192      1.0  0.04830  0.05330  0.87760  1.0000 0.139793059
H   H193      1.0  0.57750  0.71780  0.11190  1.0000 0.1216500801
H   H194      1.0  0.71560  0.32750  0.35970  1.0000 0.1216500801
H   H195      1.0  0.60590  0.46560  0.88810  1.0000 0.1216500801
H   H196      1.0  0.96780  0.35590  0.64030  1.0000 0.1216500801
H   H197      1.0  0.67250  0.03220  0.38810  1.0000 0.1216500801
H   H198      1.0  0.53440  0.42250  0.14030  1.0000 0.1216500801
H   H199      1.0  0.64410  0.28440  0.61190  1.0000 0.1216500801
H   H200      1.0  0.28220  0.39410  0.85970  1.0000 0.1216500801
H   H201      1.0  0.98610  0.23430  0.12960  1.0000 0.1014978628
H   H202      1.0  0.10650  0.73610  0.25180  1.0000 0.1014978628
H   H203      1.0  0.10470  0.85650  0.87040  1.0000 0.1014978628
H   H204      1.0  0.48430  0.85470  0.74820  1.0000 0.1014978628
H   H205      1.0  0.26390  0.51570  0.37040  1.0000 0.1014978628
H   H206      1.0  0.14350  0.01390  0.24820  1.0000 0.1014978628
H   H207      1.0  0.14530  0.89350  0.62960  1.0000 0.1014978628
H   H208      1.0  0.76570  0.89530  0.75180  1.0000 0.1014978628
H   H209      1.0  0.73300  0.92070  0.21450  1.0000 0.1014978628
H   H210      1.0  0.76850  0.48300  0.31230  1.0000 0.1014978628
H   H211      1.0  0.70620  0.51850  0.78550  1.0000 0.1014978628
H   H212      1.0  0.17070  0.45620  0.68770  1.0000 0.1014978628
H   H213      1.0  0.51700  0.82930  0.28550  1.0000 0.1014978628
H   H214      1.0  0.48150  0.26700  0.18770  1.0000 0.1014978628
H   H215      1.0  0.54380  0.23150  0.71450  1.0000 0.1014978628
H   H216      1.0  0.07930  0.29380  0.81230  1.0000 0.1014978628
H   H217      1.0  0.67820  0.95010  0.04390  1.0000 0.1216500801
H   H218      1.0  0.88430  0.42820  0.22810  1.0000 0.1216500801
H   H219      1.0  0.90620  0.63430  0.95610  1.0000 0.1216500801
H   H220      1.0  0.20010  0.65620  0.77190  1.0000 0.1216500801
H   H221      1.0  0.57180  0.79990  0.45610  1.0000 0.1216500801
H   H222      1.0  0.36570  0.32180  0.27190  1.0000 0.1216500801
H   H223      1.0  0.34380  0.11570  0.54390  1.0000 0.1216500801
H   H224      1.0  0.04990  0.09380  0.72810  1.0000 0.1216500801
H   H225      1.0  0.63100  0.70080  0.10540  1.0000 0.139793059
H   H226      1.0  0.77560  0.38100  0.43020  1.0000 0.139793059
H   H227      1.0  0.59540  0.52560  0.89460  1.0000 0.139793059
H   H228      1.0  0.95080  0.34540  0.56980  1.0000 0.139793059
H   H229      1.0  0.61900  0.04920  0.39460  1.0000 0.139793059
H   H230      1.0  0.47440  0.36900  0.06980  1.0000 0.139793059
H   H231      1.0  0.65460  0.22440  0.60540  1.0000 0.139793059
H   H232      1.0  0.29920  0.40460  0.93020  1.0000 0.139793059
H   H233      1.0  0.13880  0.38200  0.18640  1.0000 0.1298256458
H   H234      1.0  0.20240  0.88880  0.25680  1.0000 0.1298256458
H   H235      1.0  0.19560  0.95240  0.81360  1.0000 0.1298256458
H   H236      1.0  0.63200  0.94560  0.74320  1.0000 0.1298256458
H   H237      1.0  0.11120  0.36800  0.31360  1.0000 0.1298256458
H   H238      1.0  0.04760  0.86120  0.24320  1.0000 0.1298256458
H   H239      1.0  0.05440  0.79760  0.68640  1.0000 0.1298256458
H   H240      1.0  0.61800  0.80440  0.75680  1.0000 0.1298256458
H   H241      1.0  0.80130  0.02040  0.27670  1.0000 0.1298256458
H   H242      1.0  0.77460  0.55130  0.28090  1.0000 0.1298256458
H   H243      1.0  0.74370  0.52460  0.72330  1.0000 0.1298256458
H   H244      1.0  0.27040  0.49370  0.71910  1.0000 0.1298256458
H   H245      1.0  0.44870  0.72960  0.22330  1.0000 0.1298256458
H   H246      1.0  0.47540  0.19870  0.21910  1.0000 0.1298256458
H   H247      1.0  0.50630  0.22540  0.77670  1.0000 0.1298256458
H   H248      1.0  0.97960  0.25630  0.78090  1.0000 0.1298256458
H   H249      1.0  0.57680  0.91650  0.03110  1.0000 0.139793059
H   H250      1.0  0.79570  0.32680  0.16030  1.0000 0.139793059
H   H251      1.0  0.88540  0.54570  0.96890  1.0000 0.139793059
H   H252      1.0  0.16650  0.63540  0.83970  1.0000 0.139793059
H   H253      1.0  0.67320  0.83350  0.46890  1.0000 0.139793059
H   H254      1.0  0.45430  0.42320  0.33970  1.0000 0.139793059
H   H255      1.0  0.36460  0.20430  0.53110  1.0000 0.139793059
H   H256      1.0  0.08350  0.11460  0.66030  1.0000 0.139793059
H   H257      1.0  0.83160  0.87020  0.12680  1.0000 0.139793059
H   H258      1.0  0.95480  0.58160  0.46140  1.0000 0.139793059
H   H259      1.0  0.74340  0.70480  0.87320  1.0000 0.139793059
H   H260      1.0  0.12020  0.49340  0.53860  1.0000 0.139793059
H   H261      1.0  0.41840  0.87980  0.37320  1.0000 0.139793059
H   H262      1.0  0.29520  0.16840  0.03860  1.0000 0.139793059
H   H263      1.0  0.50660  0.04520  0.62680  1.0000 0.139793059
H   H264      1.0  0.12980  0.25660  0.96140  1.0000 0.139793059
H   H265      1.0  0.15960  0.34890  0.23350  1.0000 0.1298256458
H   H266      1.0  0.17610  0.90960  0.31070  1.0000 0.1298256458
H   H267      1.0  0.11540  0.92610  0.76650  1.0000 0.1298256458
H   H268      1.0  0.59890  0.86540  0.68930  1.0000 0.1298256458
H   H269      1.0  0.09040  0.40110  0.26650  1.0000 0.1298256458
H   H270      1.0  0.07390  0.84040  0.18930  1.0000 0.1298256458
H   H271      1.0  0.13460  0.82390  0.73350  1.0000 0.1298256458
H   H272      1.0  0.65110  0.88460  0.81070  1.0000 0.1298256458
H   H273      1.0  0.84050  0.12720  0.27570  1.0000 0.1298256458
H   H274      1.0  0.81480  0.59050  0.21330  1.0000 0.1298256458
H   H275      1.0  0.85150  0.56480  0.72430  1.0000 0.1298256458
H   H276      1.0  0.37720  0.60150  0.78670  1.0000 0.1298256458
H   H277      1.0  0.40950  0.62280  0.22430  1.0000 0.1298256458
H   H278      1.0  0.43520  0.15950  0.28670  1.0000 0.1298256458
H   H279      1.0  0.39850  0.18520  0.77570  1.0000 0.1298256458
H   H280      1.0  0.87280  0.14850  0.71330  1.0000 0.1298256458
H   H281      1.0  0.52030  0.90050  0.08720  1.0000 0.139793059
H   H282      1.0  0.68310  0.27030  0.11980  1.0000 0.139793059
H   H283      1.0  0.81330  0.43310  0.91280  1.0000 0.139793059
H   H284      1.0  0.15050  0.56330  0.88020  1.0000 0.139793059
H   H285      1.0  0.72970  0.84950  0.41280  1.0000 0.139793059
H   H286      1.0  0.56690  0.47970  0.38020  1.0000 0.139793059
H   H287      1.0  0.43670  0.31690  0.58720  1.0000 0.139793059
H   H288      1.0  0.09950  0.18670  0.61980  1.0000 0.139793059
C   C1        1.0  0.70269  0.05848  0.93897  1.0000 0.5684001437
C   C2        1.0  0.01372  0.45269  0.14421  1.0000 0.5684001437
C   C3        1.0  0.11951  0.76372  0.06103  1.0000 0.5684001437
C   C4        1.0  0.30848  0.86951  0.85579  1.0000 0.5684001437
C   C5        1.0  0.54731  0.69152  0.56103  1.0000 0.5684001437
C   C6        1.0  0.23628  0.29731  0.35579  1.0000 0.5684001437
C   C7        1.0  0.13049  0.98628  0.43897  1.0000 0.5684001437
C   C8        1.0  0.94152  0.88049  0.64421  1.0000 0.5684001437
C   C9        1.0  0.39030  0.65301  0.98551  1.0000 0.6498249537
C   C10       1.0  0.65479  0.14030  0.23729  1.0000 0.6498249537
C   C11       1.0  0.66750  0.40479  0.01449  1.0000 0.6498249537
C   C12       1.0  0.90301  0.41750  0.76271  1.0000 0.6498249537
C   C13       1.0  0.85970  0.09699  0.51449  1.0000 0.6498249537
C   C14       1.0  0.59521  0.60970  0.26271  1.0000 0.6498249537
C   C15       1.0  0.58250  0.34521  0.48551  1.0000 0.6498249537
C   C16       1.0  0.34699  0.33250  0.73729  1.0000 0.6498249537
C   C17       1.0  0.76402  0.15770  0.94452  1.0000 -0.0794833159
C   C18       1.0  0.06950  0.51402  0.10632  1.0000 -0.0794833159
C   C19       1.0  0.21318  0.81950  0.05548  1.0000 -0.0794833159
C   C20       1.0  0.40770  0.96318  0.89368  1.0000 -0.0794833159
C   C21       1.0  0.48598  0.59230  0.55548  1.0000 -0.0794833159
C   C22       1.0  0.18050  0.23598  0.39368  1.0000 -0.0794833159
C   C23       1.0  0.03682  0.93050  0.44452  1.0000 -0.0794833159
C   C24       1.0  0.84230  0.78682  0.60632  1.0000 -0.0794833159
C   C25       1.0  0.39106  0.64512  0.03078  1.0000 -0.0794833159
C   C26       1.0  0.61028  0.14106  0.24594  1.0000 -0.0794833159
C   C27       1.0  0.61434  0.36028  0.96922  1.0000 -0.0794833159
C   C28       1.0  0.89512  0.36434  0.75406  1.0000 -0.0794833159
C   C29       1.0  0.85894  0.10488  0.46922  1.0000 -0.0794833159
C   C30       1.0  0.63972  0.60894  0.25406  1.0000 -0.0794833159
C   C31       1.0  0.63566  0.38972  0.53078  1.0000 -0.0794833159
C   C32       1.0  0.35488  0.38566  0.74594  1.0000 -0.0794833159
C   C33       1.0  0.75721  0.17612  0.90993  1.0000 -0.0622914192
C   C34       1.0  0.09728  0.50721  0.08109  1.0000 -0.0622914192
C   C35       1.0  0.26619  0.84728  0.09007  1.0000 -0.0622914192
C   C36       1.0  0.42612  0.01619  0.91891  1.0000 -0.0622914192
C   C37       1.0  0.49279  0.57388  0.59007  1.0000 -0.0622914192
C   C38       1.0  0.15272  0.24279  0.41891  1.0000 -0.0622914192
C   C39       1.0  0.98381  0.90272  0.40993  1.0000 -0.0622914192
C   C40       1.0  0.82388  0.73381  0.58109  1.0000 -0.0622914192
C   C41       1.0  0.82226  0.22870  0.98316  1.0000 0.1606075451
C   C42       1.0  0.08910  0.57226  0.09356  1.0000 0.1606075451
C   C43       1.0  0.24554  0.83910  0.01684  1.0000 0.1606075451
C   C44       1.0  0.47870  0.99554  0.90644  1.0000 0.1606075451
C   C45       1.0  0.42774  0.52130  0.51684  1.0000 0.1606075451
C   C46       1.0  0.16090  0.17774  0.40644  1.0000 0.1606075451
C   C47       1.0  0.00446  0.91090  0.48316  1.0000 0.1606075451
C   C48       1.0  0.77130  0.75446  0.59356  1.0000 0.1606075451
C   C49       1.0  0.30395  0.58203  0.05118  1.0000 -0.0512270027
C   C50       1.0  0.50277  0.05395  0.22192  1.0000 -0.0512270027
C   C51       1.0  0.53085  0.25277  0.94882  1.0000 -0.0512270027
C   C52       1.0  0.83203  0.28085  0.77808  1.0000 -0.0512270027
C   C53       1.0  0.94605  0.16797  0.44882  1.0000 -0.0512270027
C   C54       1.0  0.74723  0.69605  0.27808  1.0000 -0.0512270027
C   C55       1.0  0.71915  0.49723  0.55118  1.0000 -0.0512270027
C   C56       1.0  0.41797  0.46915  0.72192  1.0000 -0.0512270027
C   C57       1.0  0.48135  0.70637  0.05472  1.0000 0.1606075451
C   C58       1.0  0.67663  0.23135  0.27498  1.0000 0.1606075451
C   C59       1.0  0.65165  0.42663  0.94528  1.0000 0.1606075451
C   C60       1.0  0.95637  0.40165  0.72502  1.0000 0.1606075451
C   C61       1.0  0.76865  0.04363  0.44528  1.0000 0.1606075451
C   C62       1.0  0.57337  0.51865  0.22502  1.0000 0.1606075451
C   C63       1.0  0.59835  0.32337  0.55472  1.0000 0.1606075451
C   C64       1.0  0.29363  0.34835  0.77498  1.0000 0.1606075451
C   C65       1.0  0.80206  0.25807  0.91513  1.0000 -0.1293198956
C   C66       1.0  0.13693  0.55206  0.04399  1.0000 -0.1293198956
C   C67       1.0  0.34294  0.88693  0.08487  1.0000 -0.1293198956
C   C68       1.0  0.50807  0.09294  0.95601  1.0000 -0.1293198956
C   C69       1.0  0.44794  0.49193  0.58487  1.0000 -0.1293198956
C   C70       1.0  0.11307  0.19794  0.45601  1.0000 -0.1293198956
C   C71       1.0  0.90706  0.86307  0.41513  1.0000 -0.1293198956
C   C72       1.0  0.74193  0.65706  0.54399  1.0000 -0.1293198956
C   C73       1.0  0.85020  0.22975  0.02075  1.0000 0.1606075451
C   C74       1.0  0.07945  0.60020  0.12045  1.0000 0.1606075451
C   C75       1.0  0.20900  0.82945  0.97925  1.0000 0.1606075451
C   C76       1.0  0.47975  0.95900  0.87955  1.0000 0.1606075451
C   C77       1.0  0.39980  0.52025  0.47925  1.0000 0.1606075451
C   C78       1.0  0.17055  0.14980  0.37955  1.0000 0.1606075451
C   C79       1.0  0.04100  0.92055  0.52075  1.0000 0.1606075451
C   C80       1.0  0.77025  0.79100  0.62045  1.0000 0.1606075451
C   C81       1.0  0.31290  0.58702  0.09352  1.0000 -0.1431587025
C   C82       1.0  0.46938  0.06290  0.22588  1.0000 -0.1431587025
C   C83       1.0  0.49350  0.21938  0.90648  1.0000 -0.1431587025
C   C84       1.0  0.83702  0.24350  0.77412  1.0000 -0.1431587025
C   C85       1.0  0.93710  0.16298  0.40648  1.0000 -0.1431587025
C   C86       1.0  0.78062  0.68710  0.27412  1.0000 -0.1431587025
C   C87       1.0  0.75650  0.53062  0.59352  1.0000 -0.1431587025
C   C88       1.0  0.41298  0.50650  0.72588  1.0000 -0.1431587025
C   C89       1.0  0.57511  0.76993  0.03724  1.0000 0.1512920028
C   C90       1.0  0.78787  0.32511  0.30518  1.0000 0.1512920028
C   C91       1.0  0.73269  0.53787  0.96276  1.0000 0.1512920028
C   C92       1.0  0.01993  0.48269  0.69482  1.0000 0.1512920028
C   C93       1.0  0.67489  0.98007  0.46276  1.0000 0.1512920028
C   C94       1.0  0.46213  0.42489  0.19482  1.0000 0.1512920028
C   C95       1.0  0.51731  0.21213  0.53724  1.0000 0.1512920028
C   C96       1.0  0.23007  0.26731  0.80518  1.0000 0.1512920028
C   C97       1.0  0.84764  0.31531  0.95495  1.0000 0.0907605752
C   C98       1.0  0.14269  0.59764  0.03233  1.0000 0.0907605752
C   C99       1.0  0.36036  0.89269  0.04505  1.0000 0.0907605752
C   C100      1.0  0.56531  0.11036  0.96767  1.0000 0.0907605752
C   C101      1.0  0.40236  0.43469  0.54505  1.0000 0.0907605752
C   C102      1.0  0.10731  0.15236  0.46767  1.0000 0.0907605752
C   C103      1.0  0.88964  0.85731  0.45495  1.0000 0.0907605752
C   C104      1.0  0.68469  0.63964  0.53233  1.0000 0.0907605752
C   C105      1.0  0.92259  0.26281  0.02200  1.0000 -0.0709308407
C   C106      1.0  0.15059  0.67259  0.15978  1.0000 -0.0709308407
C   C107      1.0  0.24081  0.90059  0.97800  1.0000 -0.0709308407
C   C108      1.0  0.51281  0.99081  0.84022  1.0000 -0.0709308407
C   C109      1.0  0.32741  0.48719  0.47800  1.0000 -0.0709308407
C   C110      1.0  0.09941  0.07741  0.34022  1.0000 -0.0709308407
C   C111      1.0  0.00919  0.84941  0.52200  1.0000 -0.0709308407
C   C112      1.0  0.73719  0.75919  0.65978  1.0000 -0.0709308407
C   C113      1.0  0.40934  0.65654  0.11488  1.0000 0.0717520016
C   C114      1.0  0.54446  0.15934  0.25280  1.0000 0.0717520016
C   C115      1.0  0.54166  0.29446  0.88512  1.0000 0.0717520016
C   C116      1.0  0.90654  0.29166  0.74720  1.0000 0.0717520016
C   C117      1.0  0.84066  0.09346  0.38512  1.0000 0.0717520016
C   C118      1.0  0.70554  0.59066  0.24720  1.0000 0.0717520016
C   C119      1.0  0.70834  0.45554  0.61488  1.0000 0.0717520016
C   C120      1.0  0.34346  0.45834  0.75280  1.0000 0.0717520016
C   C121      1.0  0.55269  0.72276  0.00245  1.0000 -0.0709308407
C   C122      1.0  0.80024  0.30269  0.32993  1.0000 -0.0709308407
C   C123      1.0  0.72031  0.55024  0.99755  1.0000 -0.0709308407
C   C124      1.0  0.97276  0.47031  0.67007  1.0000 -0.0709308407
C   C125      1.0  0.69731  0.02724  0.49755  1.0000 -0.0709308407
C   C126      1.0  0.44976  0.44731  0.17007  1.0000 -0.0709308407
C   C127      1.0  0.52969  0.19976  0.50245  1.0000 -0.0709308407
C   C128      1.0  0.27724  0.27969  0.82993  1.0000 -0.0709308407
C   C129      1.0  0.97583  0.29755  0.98518  1.0000 0.5684001437
C   C130      1.0  0.24065  0.72583  0.17828  1.0000 0.5684001437
C   C131      1.0  0.31237  0.99065  0.01482  1.0000 0.5684001437
C   C132      1.0  0.54755  0.06237  0.82172  1.0000 0.5684001437
C   C133      1.0  0.27417  0.45245  0.51482  1.0000 0.5684001437
C   C134      1.0  0.00935  0.02417  0.32172  1.0000 0.5684001437
C   C135      1.0  0.93763  0.75935  0.48518  1.0000 0.5684001437
C   C136      1.0  0.70245  0.68763  0.67828  1.0000 0.5684001437
C   C137      1.0  0.94829  0.26577  0.05886  1.0000 -0.0980148157
C   C138      1.0  0.13943  0.69829  0.18252  1.0000 -0.0980148157
C   C139      1.0  0.20691  0.88943  0.94114  1.0000 -0.0980148157
C   C140      1.0  0.51577  0.95691  0.81748  1.0000 -0.0980148157
C   C141      1.0  0.30171  0.48423  0.44114  1.0000 -0.0980148157
C   C142      1.0  0.11057  0.05171  0.31748  1.0000 -0.0980148157
C   C143      1.0  0.04309  0.86057  0.55886  1.0000 -0.0980148157
C   C144      1.0  0.73423  0.79309  0.68252  1.0000 -0.0980148157
C   C145      1.0  0.83358  0.20791  0.08949  1.0000 0.1014978628
C   C146      1.0  0.99409  0.58358  0.12567  1.0000 0.1014978628
C   C147      1.0  0.11842  0.74409  0.91051  1.0000 0.1014978628
C   C148      1.0  0.45791  0.86842  0.87433  1.0000 0.1014978628
C   C149      1.0  0.41642  0.54209  0.41051  1.0000 0.1014978628
C   C150      1.0  0.25591  0.16642  0.37433  1.0000 0.1014978628
C   C151      1.0  0.13158  0.00591  0.58949  1.0000 0.1014978628
C   C152      1.0  0.79209  0.88158  0.62567  1.0000 0.1014978628
C   C153      1.0  0.64819  0.79081  0.99020  1.0000 -0.0622914192
C   C154      1.0  0.90799  0.39819  0.35738  1.0000 -0.0622914192
C   C155      1.0  0.80061  0.65799  0.00980  1.0000 -0.0622914192
C   C156      1.0  0.04081  0.55061  0.64262  1.0000 -0.0622914192
C   C157      1.0  0.60181  0.95919  0.50980  1.0000 -0.0622914192
C   C158      1.0  0.34201  0.35181  0.14262  1.0000 -0.0622914192
C   C159      1.0  0.44939  0.09201  0.49020  1.0000 -0.0622914192
C   C160      1.0  0.20919  0.19939  0.85738  1.0000 -0.0622914192
C   C161      1.0  0.42498  0.59654  0.97692  1.0000 0.5580055779
C   C162      1.0  0.69806  0.17498  0.32844  1.0000 0.5580055779
C   C163      1.0  0.61962  0.44806  0.02308  1.0000 0.5580055779
C   C164      1.0  0.84654  0.36962  0.67156  1.0000 0.5580055779
C   C165      1.0  0.82502  0.15346  0.52308  1.0000 0.5580055779
C   C166      1.0  0.55194  0.57502  0.17156  1.0000 0.5580055779
C   C167      1.0  0.63038  0.30194  0.47692  1.0000 0.5580055779
C   C168      1.0  0.40346  0.38038  0.82844  1.0000 0.5580055779
C   C169      1.0  0.78314  0.94862  0.04716  1.0000 0.0633663973
C   C170      1.0  0.98598  0.53314  0.33452  1.0000 0.0633663973
C   C171      1.0  0.90146  0.73598  0.95284  1.0000 0.0633663973
C   C172      1.0  0.19862  0.65146  0.66548  1.0000 0.0633663973
C   C173      1.0  0.46686  0.80138  0.45284  1.0000 0.0633663973
C   C174      1.0  0.26402  0.21686  0.16548  1.0000 0.0633663973
C   C175      1.0  0.34854  0.01402  0.54716  1.0000 0.0633663973
C   C176      1.0  0.05138  0.09854  0.83452  1.0000 0.0633663973
C   C177      1.0  0.90605  0.24104  0.09369  1.0000 -0.1431587025
C   C178      1.0  0.06236  0.65605  0.16501  1.0000 -0.1431587025
C   C179      1.0  0.14735  0.81236  0.90631  1.0000 -0.1431587025
C   C180      1.0  0.49104  0.89735  0.83499  1.0000 -0.1431587025
C   C181      1.0  0.34395  0.50896  0.40631  1.0000 -0.1431587025
C   C182      1.0  0.18764  0.09395  0.33499  1.0000 -0.1431587025
C   C183      1.0  0.10265  0.93764  0.59369  1.0000 -0.1431587025
C   C184      1.0  0.75896  0.85265  0.66501  1.0000 -0.1431587025
C   C185      1.0  0.76426  0.90486  0.01292  1.0000 -0.1113651925
C   C186      1.0  0.00134  0.51426  0.35940  1.0000 -0.1113651925
C   C187      1.0  0.89194  0.75134  0.98708  1.0000 -0.1113651925
C   C188      1.0  0.15486  0.64194  0.64060  1.0000 -0.1113651925
C   C189      1.0  0.48574  0.84514  0.48708  1.0000 -0.1113651925
C   C190      1.0  0.24866  0.23574  0.14060  1.0000 -0.1113651925
C   C191      1.0  0.35806  0.99866  0.51292  1.0000 -0.1113651925
C   C192      1.0  0.09514  0.10806  0.85940  1.0000 -0.1113651925
C   C193      1.0  0.65849  0.78642  0.12031  1.0000 0.0633663973
C   C194      1.0  0.78818  0.40849  0.37207  1.0000 0.0633663973
C   C195      1.0  0.66611  0.53818  0.87969  1.0000 0.0633663973
C   C196      1.0  0.03642  0.41611  0.62793  1.0000 0.0633663973
C   C197      1.0  0.59151  0.96358  0.37969  1.0000 0.0633663973
C   C198      1.0  0.46182  0.34151  0.12793  1.0000 0.0633663973
C   C199      1.0  0.58389  0.21182  0.62031  1.0000 0.0633663973
C   C200      1.0  0.21358  0.33389  0.87207  1.0000 0.0633663973
C   C201      1.0  0.85845  0.99270  0.14955  1.0000 0.139793059
C   C202      1.0  0.95890  0.60845  0.36575  1.0000 0.139793059
C   C203      1.0  0.84315  0.70890  0.85045  1.0000 0.139793059
C   C204      1.0  0.24270  0.59315  0.63425  1.0000 0.139793059
C   C205      1.0  0.39155  0.75730  0.35045  1.0000 0.139793059
C   C206      1.0  0.29110  0.14155  0.13425  1.0000 0.139793059
C   C207      1.0  0.40685  0.04110  0.64955  1.0000 0.139793059
C   C208      1.0  0.00730  0.15685  0.86575  1.0000 0.139793059
C   C209      1.0  0.94145  0.10606  0.16411  1.0000 0.1661868012
C   C210      1.0  0.02734  0.69145  0.33539  1.0000 0.1661868012
C   C211      1.0  0.94195  0.77734  0.83589  1.0000 0.1661868012
C   C212      1.0  0.35606  0.69195  0.66461  1.0000 0.1661868012
C   C213      1.0  0.30855  0.64394  0.33589  1.0000 0.1661868012
C   C214      1.0  0.22266  0.05855  0.16461  1.0000 0.1661868012
C   C215      1.0  0.30805  0.97266  0.66411  1.0000 0.1661868012
C   C216      1.0  0.89394  0.05805  0.83539  1.0000 0.1661868012
C   C217      1.0  0.99766  0.22321  0.14747  1.0000 0.0717520016
C   C218      1.0  0.10019  0.74766  0.27445  1.0000 0.0717520016
C   C219      1.0  0.07574  0.85019  0.85253  1.0000 0.0717520016
C   C220      1.0  0.47321  0.82574  0.72555  1.0000 0.0717520016
C   C221      1.0  0.25234  0.52679  0.35253  1.0000 0.0717520016
C   C222      1.0  0.14981  0.00234  0.22555  1.0000 0.0717520016
C   C223      1.0  0.17426  0.89981  0.64747  1.0000 0.0717520016
C   C224      1.0  0.77679  0.92426  0.77445  1.0000 0.0717520016
C   C225      1.0  0.74218  0.95766  0.21464  1.0000 0.0717520016
C   C226      1.0  0.77754  0.49218  0.28452  1.0000 0.0717520016
C   C227      1.0  0.74302  0.52754  0.78536  1.0000 0.0717520016
C   C228      1.0  0.20766  0.49302  0.71548  1.0000 0.0717520016
C   C229      1.0  0.50782  0.79234  0.28536  1.0000 0.0717520016
C   C230      1.0  0.47246  0.25782  0.21548  1.0000 0.0717520016
C   C231      1.0  0.50698  0.22246  0.71464  1.0000 0.0717520016
C   C232      1.0  0.04234  0.25698  0.78452  1.0000 0.0717520016
C   C233      1.0  0.72192  0.00020  0.17872  1.0000 0.139793059
C   C234      1.0  0.79320  0.47192  0.22172  1.0000 0.139793059
C   C235      1.0  0.82148  0.54320  0.82128  1.0000 0.139793059
C   C236      1.0  0.25020  0.57148  0.77828  1.0000 0.139793059
C   C237      1.0  0.52808  0.74980  0.32128  1.0000 0.139793059
C   C238      1.0  0.45680  0.27808  0.27828  1.0000 0.139793059
C   C239      1.0  0.42852  0.20680  0.67872  1.0000 0.139793059
C   C240      1.0  0.99980  0.17852  0.72172  1.0000 0.139793059
C   C241      1.0  0.67148  0.97007  0.13795  1.0000 0.139793059
C   C242      1.0  0.78353  0.42148  0.20141  1.0000 0.139793059
C   C243      1.0  0.83212  0.53353  0.86205  1.0000 0.139793059
C   C244      1.0  0.22007  0.58212  0.79859  1.0000 0.139793059
C   C245      1.0  0.57852  0.77993  0.36205  1.0000 0.139793059
C   C246      1.0  0.46647  0.32852  0.29859  1.0000 0.139793059
C   C247      1.0  0.41788  0.21647  0.63795  1.0000 0.139793059
C   C248      1.0  0.02993  0.16788  0.70141  1.0000 0.139793059
C   C249      1.0  0.65967  0.94854  0.06621  1.0000 0.0907605752
C   C250      1.0  0.84346  0.40967  0.21113  1.0000 0.0907605752
C   C251      1.0  0.88233  0.59346  0.93379  1.0000 0.0907605752
C   C252      1.0  0.19854  0.63233  0.78887  1.0000 0.0907605752
C   C253      1.0  0.59033  0.80146  0.43379  1.0000 0.0907605752
C   C254      1.0  0.40654  0.34033  0.28887  1.0000 0.0907605752
C   C255      1.0  0.36767  0.15654  0.56621  1.0000 0.0907605752
C   C256      1.0  0.05146  0.11767  0.71113  1.0000 0.0907605752
C   C257      1.0  0.68958  0.77538  0.11656  1.0000 -0.0936364913
C   C258      1.0  0.82302  0.43958  0.41420  1.0000 -0.0936364913
C   C259      1.0  0.65882  0.57302  0.88344  1.0000 -0.0936364913
C   C260      1.0  0.02538  0.40882  0.58580  1.0000 -0.0936364913
C   C261      1.0  0.56042  0.97462  0.38344  1.0000 -0.0936364913
C   C262      1.0  0.42698  0.31042  0.08580  1.0000 -0.0936364913
C   C263      1.0  0.59118  0.17698  0.61656  1.0000 -0.0936364913
C   C264      1.0  0.22462  0.34118  0.91420  1.0000 -0.0936364913
C   C265      1.0  0.89507  0.98629  0.14636  1.0000 -0.0794833159
C   C266      1.0  0.99871  0.64507  0.40878  1.0000 -0.0794833159
C   C267      1.0  0.83993  0.74871  0.85364  1.0000 -0.0794833159
C   C268      1.0  0.23629  0.58993  0.59122  1.0000 -0.0794833159
C   C269      1.0  0.35493  0.76371  0.35364  1.0000 -0.0794833159
C   C270      1.0  0.25129  0.10493  0.09122  1.0000 -0.0794833159
C   C271      1.0  0.41007  0.00129  0.64636  1.0000 -0.0794833159
C   C272      1.0  0.01371  0.16007  0.90878  1.0000 -0.0794833159
C   C273      1.0  0.02520  0.18661  0.20161  1.0000 -0.0794833159
C   C274      1.0  0.07359  0.77520  0.33859  1.0000 -0.0794833159
C   C275      1.0  0.98500  0.82359  0.79839  1.0000 -0.0794833159
C   C276      1.0  0.43661  0.73500  0.66141  1.0000 -0.0794833159
C   C277      1.0  0.22480  0.56339  0.29839  1.0000 -0.0794833159
C   C278      1.0  0.17641  0.97480  0.16141  1.0000 -0.0794833159
C   C279      1.0  0.26500  0.92641  0.70161  1.0000 -0.0794833159
C   C280      1.0  0.81339  0.01500  0.83859  1.0000 -0.0794833159
C   C281      1.0  0.08766  0.31101  0.18187  1.0000 -0.1431587025
C   C282      1.0  0.15579  0.83766  0.27665  1.0000 -0.1431587025
C   C283      1.0  0.12914  0.90579  0.81813  1.0000 -0.1431587025
C   C284      1.0  0.56101  0.87914  0.72335  1.0000 -0.1431587025
C   C285      1.0  0.16234  0.43899  0.31813  1.0000 -0.1431587025
C   C286      1.0  0.09421  0.91234  0.22335  1.0000 -0.1431587025
C   C287      1.0  0.12086  0.84421  0.68187  1.0000 -0.1431587025
C   C288      1.0  0.68899  0.87086  0.77665  1.0000 -0.1431587025
C   C289      1.0  0.78592  0.01977  0.25169  1.0000 -0.1293198956
C   C290      1.0  0.78423  0.53592  0.26615  1.0000 -0.1293198956
C   C291      1.0  0.76808  0.53423  0.74831  1.0000 -0.1293198956
C   C292      1.0  0.26977  0.51808  0.73385  1.0000 -0.1293198956
C   C293      1.0  0.46408  0.73023  0.24831  1.0000 -0.1293198956
C   C294      1.0  0.46577  0.21408  0.23385  1.0000 -0.1293198956
C   C295      1.0  0.48192  0.21577  0.75169  1.0000 -0.1293198956
C   C296      1.0  0.98023  0.23192  0.76615  1.0000 -0.1293198956
C   C297      1.0  0.77697  0.07451  0.21428  1.0000 -0.0437471354
C   C298      1.0  0.81269  0.52697  0.20246  1.0000 -0.0437471354
C   C299      1.0  0.86023  0.56269  0.78572  1.0000 -0.0437471354
C   C300      1.0  0.32451  0.61023  0.79754  1.0000 -0.0437471354
C   C301      1.0  0.47303  0.67549  0.28572  1.0000 -0.0437471354
C   C302      1.0  0.43731  0.22303  0.29754  1.0000 -0.0437471354
C   C303      1.0  0.38977  0.18731  0.71428  1.0000 -0.0437471354
C   C304      1.0  0.92549  0.13977  0.70246  1.0000 -0.0437471354
C   C305      1.0  0.60211  0.94027  0.13218  1.0000 -0.0709308407
C   C306      1.0  0.71993  0.35211  0.16184  1.0000 -0.0709308407
C   C307      1.0  0.80809  0.46993  0.86782  1.0000 -0.0709308407
C   C308      1.0  0.19027  0.55809  0.83816  1.0000 -0.0709308407
C   C309      1.0  0.64789  0.80973  0.36782  1.0000 -0.0709308407
C   C310      1.0  0.53007  0.39789  0.33816  1.0000 -0.0709308407
C   C311      1.0  0.44191  0.28007  0.63218  1.0000 -0.0709308407
C   C312      1.0  0.05973  0.19191  0.66184  1.0000 -0.0709308407
C   C313      1.0  0.59703  0.92632  0.05815  1.0000 -0.1293198956
C   C314      1.0  0.78888  0.34703  0.17071  1.0000 -0.1293198956
C   C315      1.0  0.86817  0.53888  0.94185  1.0000 -0.1293198956
C   C316      1.0  0.17632  0.61817  0.82929  1.0000 -0.1293198956
C   C317      1.0  0.65297  0.82368  0.44185  1.0000 -0.1293198956
C   C318      1.0  0.46112  0.40297  0.32929  1.0000 -0.1293198956
C   C319      1.0  0.38183  0.21112  0.55815  1.0000 -0.1293198956
C   C320      1.0  0.07368  0.13183  0.67071  1.0000 -0.1293198956
C   C321      1.0  0.80890  0.87617  0.12947  1.0000 -0.0622914192
C   C322      1.0  0.92943  0.55890  0.43273  1.0000 -0.0622914192
C   C323      1.0  0.74670  0.67943  0.87053  1.0000 -0.0622914192
C   C324      1.0  0.12617  0.49670  0.56727  1.0000 -0.0622914192
C   C325      1.0  0.44110  0.87383  0.37053  1.0000 -0.0622914192
C   C326      1.0  0.32057  0.19110  0.06727  1.0000 -0.0622914192
C   C327      1.0  0.50330  0.07057  0.62947  1.0000 -0.0622914192
C   C328      1.0  0.12383  0.25330  0.93273  1.0000 -0.0622914192
C   C329      1.0  0.02591  0.09646  0.16157  1.0000 0.5580055779
C   C330      1.0  0.11434  0.77591  0.42945  1.0000 0.5580055779
C   C331      1.0  0.93489  0.86434  0.83843  1.0000 0.5580055779
C   C332      1.0  0.34646  0.68489  0.57055  1.0000 0.5580055779
C   C333      1.0  0.22409  0.65354  0.33843  1.0000 0.5580055779
C   C334      1.0  0.13566  0.97409  0.07055  1.0000 0.5580055779
C   C335      1.0  0.31511  0.88566  0.66157  1.0000 0.5580055779
C   C336      1.0  0.90354  0.06511  0.92945  1.0000 0.5580055779
C   C337      1.0  0.10046  0.29161  0.20947  1.0000 -0.0512270027
C   C338      1.0  0.14099  0.85046  0.30885  1.0000 -0.0512270027
C   C339      1.0  0.08214  0.89099  0.79053  1.0000 -0.0512270027
C   C340      1.0  0.54161  0.83214  0.69115  1.0000 -0.0512270027
C   C341      1.0  0.14954  0.45839  0.29053  1.0000 -0.0512270027
C   C342      1.0  0.10901  0.89954  0.19115  1.0000 -0.0512270027
C   C343      1.0  0.16786  0.85901  0.70947  1.0000 -0.0512270027
C   C344      1.0  0.70839  0.91786  0.80885  1.0000 -0.0512270027
C   C345      1.0  0.03074  0.15966  0.23460  1.0000 0.6498249537
C   C346      1.0  0.04614  0.78074  0.37108  1.0000 0.6498249537
C   C347      1.0  0.92506  0.79614  0.76540  1.0000 0.6498249537
C   C348      1.0  0.40966  0.67506  0.62892  1.0000 0.6498249537
C   C349      1.0  0.21926  0.59034  0.26540  1.0000 0.6498249537
C   C350      1.0  0.20386  0.96926  0.12892  1.0000 0.6498249537
C   C351      1.0  0.32494  0.95386  0.73460  1.0000 0.6498249537
C   C352      1.0  0.84034  0.07494  0.87108  1.0000 0.6498249537
C   C353      1.0  0.80660  0.08121  0.25121  1.0000 -0.0794833159
C   C354      1.0  0.80539  0.55660  0.22539  1.0000 -0.0794833159
C   C355      1.0  0.83000  0.55539  0.74879  1.0000 -0.0794833159
C   C356      1.0  0.33121  0.58000  0.77461  1.0000 -0.0794833159
C   C357      1.0  0.44340  0.66879  0.24879  1.0000 -0.0794833159
C   C358      1.0  0.44461  0.19340  0.27461  1.0000 -0.0794833159
C   C359      1.0  0.42000  0.19461  0.75121  1.0000 -0.0794833159
C   C360      1.0  0.91879  0.17000  0.72539  1.0000 -0.0794833159
C   C361      1.0  0.81679  0.15628  0.21267  1.0000 0.5580055779
C   C362      1.0  0.85412  0.56679  0.16051  1.0000 0.5580055779
C   C363      1.0  0.94361  0.60412  0.78733  1.0000 0.5580055779
C   C364      1.0  0.40628  0.69361  0.83949  1.0000 0.5580055779
C   C365      1.0  0.43321  0.59372  0.28733  1.0000 0.5580055779
C   C366      1.0  0.39588  0.18321  0.33949  1.0000 0.5580055779
C   C367      1.0  0.30639  0.14588  0.71267  1.0000 0.5580055779
C   C368      1.0  0.84372  0.05639  0.66051  1.0000 0.5580055779
C   C369      1.0  0.56572  0.91929  0.09181  1.0000 -0.0512270027
C   C370      1.0  0.72391  0.31572  0.14643  1.0000 -0.0512270027
C   C371      1.0  0.82748  0.47391  0.90819  1.0000 -0.0512270027
C   C372      1.0  0.16929  0.57748  0.85357  1.0000 -0.0512270027
C   C373      1.0  0.68428  0.83071  0.40819  1.0000 -0.0512270027
C   C374      1.0  0.52609  0.43428  0.35357  1.0000 -0.0512270027
C   C375      1.0  0.42252  0.27609  0.59181  1.0000 -0.0512270027
C   C376      1.0  0.08071  0.17252  0.64643  1.0000 -0.0512270027
C   C377      1.0  0.55005  0.91300  0.16665  1.0000 0.5760801798
C   C378      1.0  0.63340  0.30005  0.13705  1.0000 0.5760801798
C   C379      1.0  0.74635  0.38340  0.83335  1.0000 0.5760801798
C   C380      1.0  0.16300  0.49635  0.86295  1.0000 0.5760801798
C   C381      1.0  0.69995  0.83700  0.33333  1.0000 0.5760801798
C   C382      1.0  0.61660  0.44995  0.36295  1.0000 0.5760801798
C   C383      1.0  0.50365  0.36660  0.66667  1.0000 0.5760801798
C   C384      1.0  0.08700  0.25365  0.63705  1.0000 0.5760801798
N   N1        1.0  0.85977  0.30357  0.98834  1.0000 -0.2677726643
N   N2        1.0  0.12143  0.60977  0.05620  1.0000 -0.2677726643
N   N3        1.0  0.31523  0.87143  0.01166  1.0000 -0.2677726643
N   N4        1.0  0.55357  0.06523  0.94380  1.0000 -0.2677726643
N   N5        1.0  0.39023  0.44643  0.51166  1.0000 -0.2677726643
N   N6        1.0  0.12857  0.14023  0.44380  1.0000 -0.2677726643
N   N7        1.0  0.93477  0.87857  0.48834  1.0000 -0.2677726643
N   N8        1.0  0.69643  0.68477  0.55620  1.0000 -0.2677726643
N   N9        1.0  0.49221  0.71463  0.09624  1.0000 -0.2957979673
N   N10       1.0  0.64597  0.24221  0.27758  1.0000 -0.2957979673
N   N11       1.0  0.61839  0.39597  0.90376  1.0000 -0.2957979673
N   N12       1.0  0.96463  0.36839  0.72242  1.0000 -0.2957979673
N   N13       1.0  0.75779  0.03537  0.40376  1.0000 -0.2957979673
N   N14       1.0  0.60403  0.50779  0.22242  1.0000 -0.2957979673
N   N15       1.0  0.63161  0.35403  0.59624  1.0000 -0.2957979673
N   N16       1.0  0.28537  0.38161  0.77758  1.0000 -0.2957979673
N   N17       1.0  0.80397  0.20050  0.05427  1.0000 -0.2677726643
N   N18       1.0  0.99970  0.55397  0.10347  1.0000 -0.2677726643
N   N19       1.0  0.14623  0.74970  0.94573  1.0000 -0.2677726643
N   N20       1.0  0.45050  0.89623  0.89653  1.0000 -0.2677726643
N   N21       1.0  0.44603  0.54950  0.44573  1.0000 -0.2677726643
N   N22       1.0  0.25030  0.19603  0.39653  1.0000 -0.2677726643
N   N23       1.0  0.10377  0.00030  0.55427  1.0000 -0.2677726643
N   N24       1.0  0.79950  0.85377  0.60347  1.0000 -0.2677726643
N   N25       1.0  0.68970  0.88161  0.05971  1.0000 -0.2402555821
N   N26       1.0  0.87999  0.43970  0.30809  1.0000 -0.2402555821
N   N27       1.0  0.82190  0.62999  0.94029  1.0000 -0.2402555821
N   N28       1.0  0.13161  0.57190  0.69191  1.0000 -0.2402555821
N   N29       1.0  0.56030  0.86839  0.44029  1.0000 -0.2402555821
N   N30       1.0  0.37001  0.31030  0.19191  1.0000 -0.2402555821
N   N31       1.0  0.42810  0.12001  0.55971  1.0000 -0.2402555821
N   N32       1.0  0.11839  0.17810  0.80809  1.0000 -0.2402555821
N   N33       1.0  0.74124  0.89356  0.13580  1.0000 -0.2579597486
N   N34       1.0  0.85544  0.49124  0.34768  1.0000 -0.2579597486
N   N35       1.0  0.75776  0.60544  0.86420  1.0000 -0.2579597486
N   N36       1.0  0.14356  0.50776  0.65232  1.0000 -0.2579597486
N   N37       1.0  0.50876  0.85644  0.36420  1.0000 -0.2579597486
N   N38       1.0  0.39456  0.25876  0.15232  1.0000 -0.2579597486
N   N39       1.0  0.49224  0.14456  0.63580  1.0000 -0.2579597486
N   N40       1.0  0.10644  0.24224  0.84768  1.0000 -0.2579597486
N   N41       1.0  0.92546  0.12224  0.13830  1.0000 -0.2867416972
N   N42       1.0  0.03716  0.67546  0.30322  1.0000 -0.2867416972
N   N43       1.0  0.98394  0.78716  0.86170  1.0000 -0.2867416972
N   N44       1.0  0.37224  0.73394  0.69678  1.0000 -0.2867416972
N   N45       1.0  0.32454  0.62776  0.36170  1.0000 -0.2867416972
N   N46       1.0  0.21284  0.07454  0.19678  1.0000 -0.2867416972
N   N47       1.0  0.26606  0.96284  0.63830  1.0000 -0.2867416972
N   N48       1.0  0.87776  0.01606  0.80322  1.0000 -0.2867416972
N   N49       1.0  0.71264  0.94968  0.17892  1.0000 -0.2483698176
N   N50       1.0  0.78372  0.46264  0.26296  1.0000 -0.2483698176
N   N51       1.0  0.77076  0.53372  0.82108  1.0000 -0.2483698176
N   N52       1.0  0.19968  0.52076  0.73704  1.0000 -0.2483698176
N   N53       1.0  0.53736  0.80032  0.32108  1.0000 -0.2483698176
N   N54       1.0  0.46628  0.28736  0.23704  1.0000 -0.2483698176
N   N55       1.0  0.47924  0.21628  0.67892  1.0000 -0.2483698176
N   N56       1.0  0.05032  0.22924  0.76296  1.0000 -0.2483698176
N   N57       1.0  0.69458  0.96803  0.10521  1.0000 -0.2579597486
N   N58       1.0  0.83937  0.44458  0.22655  1.0000 -0.2579597486
N   N59       1.0  0.86282  0.58937  0.89479  1.0000 -0.2579597486
N   N60       1.0  0.21803  0.61282  0.77345  1.0000 -0.2579597486
N   N61       1.0  0.55542  0.78197  0.39479  1.0000 -0.2579597486
N   N62       1.0  0.41063  0.30542  0.27345  1.0000 -0.2579597486
N   N63       1.0  0.38718  0.16063  0.60521  1.0000 -0.2579597486
N   N64       1.0  0.03197  0.13718  0.72655  1.0000 -0.2579597486
O   O1        1.0  0.68697  0.02747  0.90244  1.0000 -0.6191359097
O   O2        1.0  0.03453  0.43697  0.15950  1.0000 -0.6191359097
O   O3        1.0  0.12503  0.78453  0.09756  1.0000 -0.6191359097
O   O4        1.0  0.27747  0.87503  0.84050  1.0000 -0.6191359097
O   O5        1.0  0.56303  0.72253  0.59756  1.0000 -0.6191359097
O   O6        1.0  0.21547  0.31303  0.34050  1.0000 -0.6191359097
O   O7        1.0  0.12497  0.96547  0.40244  1.0000 -0.6191359097
O   O8        1.0  0.97253  0.87497  0.65950  1.0000 -0.6191359097
O   O9        1.0  0.66488  0.00644  0.96832  1.0000 -0.5917893583
O   O10       1.0  0.94656  0.41488  0.15844  1.0000 -0.6020392478
O   O11       1.0  0.03812  0.69656  0.03168  1.0000 -0.5917893583
O   O12       1.0  0.25644  0.78812  0.84156  1.0000 -0.5917893583
O   O13       1.0  0.58512  0.74356  0.53168  1.0000 -0.5917893583
O   O14       1.0  0.30344  0.33512  0.34156  1.0000 -0.5917893583
O   O15       1.0  0.21188  0.05344  0.46832  1.0000 -0.5917893583
O   O16       1.0  0.99356  0.96188  0.65844  1.0000 -0.5917893583
O   O17       1.0  0.49396  0.75310  0.97486  1.0000 -0.6656497949
O   O18       1.0  0.76910  0.24396  0.24086  1.0000 -0.6656497949
O   O19       1.0  0.77824  0.51910  0.02514  1.0000 -0.6656497949
O   O20       1.0  0.00310  0.52824  0.75914  1.0000 -0.6656497949
O   O21       1.0  0.75604  0.99690  0.52514  1.0000 -0.6656497949
O   O22       1.0  0.48090  0.50604  0.25914  1.0000 -0.6656497949
O   O23       1.0  0.47176  0.23090  0.47486  1.0000 -0.6656497949
O   O24       1.0  0.24690  0.22176  0.74086  1.0000 -0.6656497949
O   O25       1.0  0.41986  0.75885  0.93251  1.0000 -0.7729873453
O   O26       1.0  0.73735  0.16986  0.16101  1.0000 -0.7729873453
O   O27       1.0  0.82634  0.48735  0.06749  1.0000 -0.7729873453
O   O28       1.0  0.00885  0.57634  0.83899  1.0000 -0.7729873453
O   O29       1.0  0.83014  0.99115  0.56749  1.0000 -0.7729873453
O   O30       1.0  0.51265  0.58014  0.33899  1.0000 -0.7729873453
O   O31       1.0  0.42366  0.26265  0.43251  1.0000 -0.7729873453
O   O32       1.0  0.24115  0.17366  0.66101  1.0000 -0.7729873453
O   O33       1.0  0.59257  0.79867  0.90844  1.0000 -0.7782978913
O   O34       1.0  0.93413  0.34257  0.29390  1.0000 -0.7782978913
O   O35       1.0  0.89023  0.68413  0.09156  1.0000 -0.7782978913
O   O36       1.0  0.04867  0.64023  0.70610  1.0000 -0.7782978913
O   O37       1.0  0.65743  0.95133  0.59156  1.0000 -0.7782978913
O   O38       1.0  0.31587  0.40743  0.20610  1.0000 -0.7782978913
O   O39       1.0  0.35977  0.06587  0.40844  1.0000 -0.7782978913
O   O40       1.0  0.20133  0.10977  0.79390  1.0000 -0.7782978913
O   O41       1.0  0.75326  0.00448  0.97494  1.0000 -0.8083018893
O   O42       1.0  0.02832  0.50326  0.24878  1.0000 -0.8083018893
O   O43       1.0  0.02954  0.77832  0.02506  1.0000 -0.8083018893
O   O44       1.0  0.25448  0.77954  0.75122  1.0000 -0.8083018893
O   O45       1.0  0.49674  0.74552  0.52506  1.0000 -0.8083018893
O   O46       1.0  0.22168  0.24674  0.25122  1.0000 -0.8083018893
O   O47       1.0  0.22046  0.97168  0.47494  1.0000 -0.8083018893
O   O48       1.0  0.99552  0.97046  0.74878  1.0000 -0.8083018893
O   O49       1.0  0.75024  0.00757  0.88241  1.0000 -0.6544076735
O   O50       1.0  0.11783  0.50024  0.24267  1.0000 -0.6544076735
O   O51       1.0  0.12516  0.86783  0.11759  1.0000 -0.6544076735
O   O52       1.0  0.25757  0.87516  0.75733  1.0000 -0.6544076735
O   O53       1.0  0.49976  0.74243  0.61759  1.0000 -0.6544076735
O   O54       1.0  0.13217  0.24976  0.25733  1.0000 -0.6544076735
O   O55       1.0  0.12484  0.88217  0.38241  1.0000 -0.6544076735
O   O56       1.0  0.99243  0.87484  0.74267  1.0000 -0.6544076735
O   O57       1.0  0.48939  0.79780  0.84219  1.0000 -0.6020392478
O   O58       1.0  0.89720  0.23939  0.19159  1.0000 -0.6020392478
O   O59       1.0  0.95561  0.64720  0.15781  1.0000 -0.6020392478
O   O60       1.0  0.04780  0.70561  0.80841  1.0000 -0.6020392478
O   O61       1.0  0.76061  0.95220  0.65781  1.0000 -0.6020392478
O   O62       1.0  0.35280  0.51061  0.30841  1.0000 -0.6020392478
O   O63       1.0  0.29439  0.10280  0.34219  1.0000 -0.6020392478
O   O64       1.0  0.20220  0.04439  0.69159  1.0000 -0.6020392478
O   O65       1.0  0.39287  0.65865  0.86892  1.0000 -0.5917893583
O   O66       1.0  0.77395  0.14287  0.23422  1.0000 -0.5917893583
O   O67       1.0  0.78973  0.52395  0.13108  1.0000 -0.6020392478
O   O68       1.0  0.90865  0.53973  0.76578  1.0000 -0.5917893583
O   O69       1.0  0.85713  0.09135  0.63108  1.0000 -0.5917893583
O   O70       1.0  0.47605  0.60713  0.26578  1.0000 -0.5917893583
O   O71       1.0  0.46027  0.22605  0.36892  1.0000 -0.5917893583
O   O72       1.0  0.34135  0.21027  0.73422  1.0000 -0.5917893583
O   O73       1.0  0.28997  0.56417  0.96254  1.0000 -0.6566230291
O   O74       1.0  0.57743  0.03997  0.22580  1.0000 -0.6566230291
O   O75       1.0  0.60163  0.32743  0.03746  1.0000 -0.6566230291
O   O76       1.0  0.81417  0.35163  0.77420  1.0000 -0.6566230291
O   O77       1.0  0.96003  0.18583  0.53746  1.0000 -0.6566230291
O   O78       1.0  0.67257  0.71003  0.27420  1.0000 -0.6566230291
O   O79       1.0  0.64837  0.42257  0.46254  1.0000 -0.6566230291
O   O80       1.0  0.43583  0.39837  0.72580  1.0000 -0.6566230291
O   O81       1.0  0.22753  0.44874  0.88787  1.0000 -0.7485789293
O   O82       1.0  0.58966  0.97753  0.27879  1.0000 -0.7485789293
O   O83       1.0  0.56087  0.33966  0.11213  1.0000 -0.7485789293
O   O84       1.0  0.69874  0.31087  0.72121  1.0000 -0.7485789293
O   O85       1.0  0.02247  0.30126  0.61213  1.0000 -0.7485789293
O   O86       1.0  0.66034  0.77247  0.22121  1.0000 -0.7485789293
O   O87       1.0  0.68913  0.41034  0.38787  1.0000 -0.7485789293
O   O88       1.0  0.55126  0.43913  0.77879  1.0000 -0.7485789293
O   O89       1.0  0.11967  0.34010  0.96997  1.0000 -0.7729873453
O   O90       1.0  0.39970  0.86967  0.27957  1.0000 -0.7782978913
O   O91       1.0  0.37013  0.14970  0.03003  1.0000 -0.7729873453
O   O92       1.0  0.59010  0.12013  0.72043  1.0000 -0.7729873453
O   O93       1.0  0.13033  0.40990  0.53003  1.0000 -0.7729873453
O   O94       1.0  0.85030  0.88033  0.22043  1.0000 -0.7729873453
O   O95       1.0  0.87987  0.60030  0.46997  1.0000 -0.7729873453
O   O96       1.0  0.65990  0.62987  0.77957  1.0000 -0.7729873453
O   O97       1.0  0.91635  0.24784  0.88399  1.0000 -0.763219499
O   O98       1.0  0.28236  0.66635  0.16851  1.0000 -0.763219499
O   O99       1.0  0.36385  0.03236  0.11601  1.0000 -0.763219499
O   O100      1.0  0.49784  0.11385  0.83149  1.0000 -0.763219499
O   O101      1.0  0.33365  0.50216  0.61601  1.0000 -0.763219499
O   O102      1.0  0.96764  0.08365  0.33149  1.0000 -0.763219499
O   O103      1.0  0.88615  0.71764  0.38399  1.0000 -0.763219499
O   O104      1.0  0.75216  0.63615  0.66851  1.0000 -0.763219499
O   O105      1.0  0.93337  0.22498  0.96635  1.0000 -0.6124949241
O   O106      1.0  0.21702  0.68337  0.20839  1.0000 -0.6124949241
O   O107      1.0  0.25863  0.96702  0.03365  1.0000 -0.6124949241
O   O108      1.0  0.47498  0.00863  0.79161  1.0000 -0.6124949241
O   O109      1.0  0.31663  0.52502  0.53365  1.0000 -0.6124949241
O   O110      1.0  0.03298  0.06663  0.29161  1.0000 -0.6124949241
O   O111      1.0  0.99137  0.78298  0.46635  1.0000 -0.6124949241
O   O112      1.0  0.77502  0.74137  0.70839  1.0000 -0.6124949241
O   O113      1.0  0.06347  0.39894  0.97501  1.0000 -0.5917893583
O   O114      1.0  0.33846  0.81347  0.16453  1.0000 -0.5917893583
O   O115      1.0  0.42393  0.08846  0.02499  1.0000 -0.5917893583
O   O116      1.0  0.64894  0.17393  0.83547  1.0000 -0.5917893583
O   O117      1.0  0.18653  0.35106  0.52499  1.0000 -0.5917893583
O   O118      1.0  0.91154  0.93653  0.33547  1.0000 -0.5917893583
O   O119      1.0  0.82607  0.66154  0.47501  1.0000 -0.5917893583
O   O120      1.0  0.60106  0.57607  0.66453  1.0000 -0.5917893583
O   O121      1.0  0.94996  0.18770  0.88226  1.0000 -0.6781164044
O   O122      1.0  0.31770  0.69996  0.26226  1.0000 -0.6781164044
O   O123      1.0  0.30544  0.06770  0.11774  1.0000 -0.6781164044
O   O124      1.0  0.43770  0.05544  0.73774  1.0000 -0.6781164044
O   O125      1.0  0.30004  0.56230  0.61774  1.0000 -0.6781164044
O   O126      1.0  0.93230  0.05004  0.23774  1.0000 -0.6781164044
O   O127      1.0  0.94456  0.68230  0.38226  1.0000 -0.6781164044
O   O128      1.0  0.81230  0.69456  0.76226  1.0000 -0.6781164044
O   O129      1.0  0.12518  0.42778  0.84596  1.0000 -0.6020392478
O   O130      1.0  0.52922  0.87518  0.19740  1.0000 -0.6020392478
O   O131      1.0  0.58182  0.27922  0.15404  1.0000 -0.6020392478
O   O132      1.0  0.67778  0.33182  0.80260  1.0000 -0.6020392478
O   O133      1.0  0.12482  0.32222  0.65404  1.0000 -0.6020392478
O   O134      1.0  0.72078  0.87482  0.30260  1.0000 -0.6020392478
O   O135      1.0  0.66818  0.47078  0.34596  1.0000 -0.6020392478
O   O136      1.0  0.57222  0.41818  0.69740  1.0000 -0.6020392478
O   O137      1.0  0.17503  0.51440  0.90243  1.0000 -0.6191359097
O   O138      1.0  0.52260  0.92503  0.16063  1.0000 -0.6191359097
O   O139      1.0  0.61197  0.27260  0.09757  1.0000 -0.6191359097
O   O140      1.0  0.76440  0.36197  0.83937  1.0000 -0.6191359097
O   O141      1.0  0.07497  0.23560  0.59757  1.0000 -0.6191359097
O   O142      1.0  0.72740  0.82497  0.33937  1.0000 -0.6191359097
O   O143      1.0  0.63803  0.47740  0.40243  1.0000 -0.6191359097
O   O144      1.0  0.48560  0.38803  0.66063  1.0000 -0.6191359097
O   O145      1.0  0.41676  0.59088  0.93804  1.0000 -0.5491907432
O   O146      1.0  0.72872  0.16676  0.32588  1.0000 -0.5491907432
O   O147      1.0  0.65284  0.47872  0.06196  1.0000 -0.5491907432
O   O148      1.0  0.84088  0.40284  0.67412  1.0000 -0.5491907432
O   O149      1.0  0.83324  0.15912  0.56196  1.0000 -0.5491907432
O   O150      1.0  0.52128  0.58324  0.17412  1.0000 -0.5491907432
O   O151      1.0  0.59716  0.27128  0.43804  1.0000 -0.5491907432
O   O152      1.0  0.40912  0.34716  0.82588  1.0000 -0.5491907432
O   O153      1.0  0.33907  0.51006  0.99653  1.0000 -0.5614332789
O   O154      1.0  0.59254  0.08907  0.32901  1.0000 -0.5614332789
O   O155      1.0  0.51353  0.34254  0.00347  1.0000 -0.5614332789
O   O156      1.0  0.76006  0.26353  0.67099  1.0000 -0.5614332789
O   O157      1.0  0.91093  0.23994  0.50347  1.0000 -0.5614332789
O   O158      1.0  0.65746  0.66093  0.17099  1.0000 -0.5614332789
O   O159      1.0  0.73647  0.40746  0.49653  1.0000 -0.5614332789
O   O160      1.0  0.48994  0.48647  0.82901  1.0000 -0.5614332789
O   O161      1.0  0.10847  0.19563  0.15110  1.0000 -0.5491907432
O   O162      1.0  0.20737  0.85847  0.41284  1.0000 -0.5491907432
O   O163      1.0  0.04453  0.95737  0.84890  1.0000 -0.5491907432
O   O164      1.0  0.44563  0.79453  0.58716  1.0000 -0.5491907432
O   O165      1.0  0.14153  0.55437  0.34890  1.0000 -0.5491907432
O   O166      1.0  0.04263  0.89153  0.08716  1.0000 -0.5491907432
O   O167      1.0  0.20547  0.79263  0.65110  1.0000 -0.5491907432
O   O168      1.0  0.80437  0.95547  0.91284  1.0000 -0.5491907432
O   O169      1.0  0.04037  0.07828  0.18245  1.0000 -0.5491907432
O   O170      1.0  0.10792  0.79037  0.46209  1.0000 -0.5491907432
O   O171      1.0  0.89583  0.85792  0.81755  1.0000 -0.5491907432
O   O172      1.0  0.32828  0.64583  0.53791  1.0000 -0.5491907432
O   O173      1.0  0.20963  0.67172  0.31755  1.0000 -0.5491907432
O   O174      1.0  0.14208  0.95963  0.03791  1.0000 -0.5491907432
O   O175      1.0  0.35417  0.89208  0.68245  1.0000 -0.5491907432
O   O176      1.0  0.92172  0.10417  0.96209  1.0000 -0.5491907432
