# DDEC6 charges by PACMAN v1.1 (https://github.com/mtap-research/PACMAN-charge/)
data_2014[Ce][nan]3[FSR]4
_chemical_formula_sum              "Ce4 H56 C72 N4 O32"
_cell_length_a       13.9931
_cell_length_b       13.9931
_cell_length_c       15.0538
_cell_angle_alpha    84.0471
_cell_angle_beta     95.9529
_cell_angle_gamma    125.18

_symmetry_space_group_name_H-M    "P 1"
_symmetry_Int_Tables_number       1

loop_
  _symmetry_equiv_pos_as_xyz
  'x, y, z'

loop_
  _atom_site_type_symbol
  _atom_site_label
  _atom_site_symmetry_multiplicity
  _atom_site_fract_x
  _atom_site_fract_y
  _atom_site_fract_z
  _atom_site_occupancy
  _atom_site_charge
Ce  Ce1       1.0  0.87423  0.53185  0.96617  1.0000 1.9843990421
Ce  Ce2       1.0  0.53185  0.87423  0.53383  1.0000 1.9843990421
Ce  Ce3       1.0  0.12577  0.46815  0.03383  1.0000 1.9843990421
Ce  Ce4       1.0  0.46815  0.12577  0.46617  1.0000 1.9843990421
H   H1        1.0  0.22180  0.68220  0.28970  1.0000 0.139354459
H   H2        1.0  0.68220  0.22180  0.21030  1.0000 0.139354459
H   H3        1.0  0.77820  0.31780  0.71030  1.0000 0.139354459
H   H4        1.0  0.31780  0.77820  0.78970  1.0000 0.139354459
H   H5        1.0  0.15030  0.85910  0.43120  1.0000 0.1305299885
H   H6        1.0  0.85910  0.15030  0.06880  1.0000 0.1305299885
H   H7        1.0  0.84970  0.14090  0.56880  1.0000 0.1305299885
H   H8        1.0  0.14090  0.84970  0.93120  1.0000 0.1305299885
H   H9        1.0  0.93190  0.67290  0.22750  1.0000 0.1217583272
H   H10       1.0  0.67290  0.93190  0.27250  1.0000 0.1217583272
H   H11       1.0  0.06810  0.32710  0.77250  1.0000 0.1217583272
H   H12       1.0  0.32710  0.06810  0.72750  1.0000 0.1217583272
H   H13       1.0  0.05420  0.95520  0.39560  1.0000 0.1217583272
H   H14       1.0  0.95520  0.05420  0.10440  1.0000 0.1217583272
H   H15       1.0  0.94580  0.04480  0.60440  1.0000 0.1217583272
H   H16       1.0  0.04480  0.94580  0.89560  1.0000 0.1217583272
H   H17       1.0  0.92070  0.98230  0.44370  1.0000 0.1127275219
H   H18       1.0  0.98230  0.92070  0.05630  1.0000 0.1127275219
H   H19       1.0  0.07930  0.01770  0.55630  1.0000 0.1127275219
H   H20       1.0  0.01770  0.07930  0.94370  1.0000 0.1127275219
H   H21       1.0  0.66100  0.66080  0.37920  1.0000 0.1305299885
H   H22       1.0  0.66080  0.66100  0.12080  1.0000 0.1305299885
H   H23       1.0  0.33900  0.33920  0.62080  1.0000 0.1305299885
H   H24       1.0  0.33920  0.33900  0.87920  1.0000 0.1305299885
H   H25       1.0  0.79260  0.63220  0.32920  1.0000 0.1217583272
H   H26       1.0  0.63220  0.79260  0.17080  1.0000 0.1217583272
H   H27       1.0  0.20740  0.36780  0.67080  1.0000 0.1217583272
H   H28       1.0  0.36780  0.20740  0.82920  1.0000 0.1217583272
H   H29       1.0  0.98680  0.62640  0.75710  1.0000 0.0973516153
H   H30       1.0  0.62640  0.98680  0.74290  1.0000 0.0973516153
H   H31       1.0  0.01320  0.37360  0.24290  1.0000 0.0973516153
H   H32       1.0  0.37360  0.01320  0.25710  1.0000 0.0973516153
H   H33       1.0  0.03370  0.81270  0.57060  1.0000 0.1305299885
H   H34       1.0  0.81270  0.03370  0.92940  1.0000 0.1305299885
H   H35       1.0  0.96630  0.18730  0.42940  1.0000 0.1305299885
H   H36       1.0  0.18730  0.96630  0.07060  1.0000 0.1305299885
H   H37       1.0  0.10770  0.79050  0.64420  1.0000 0.139354459
H   H38       1.0  0.79050  0.10770  0.85580  1.0000 0.139354459
H   H39       1.0  0.89230  0.20950  0.35580  1.0000 0.139354459
H   H40       1.0  0.20950  0.89230  0.14420  1.0000 0.139354459
H   H41       1.0  0.00410  0.68630  0.59010  1.0000 0.139354459
H   H42       1.0  0.68630  0.00410  0.90990  1.0000 0.139354459
H   H43       1.0  0.99590  0.31370  0.40990  1.0000 0.139354459
H   H44       1.0  0.31370  0.99590  0.09010  1.0000 0.139354459
H   H45       1.0  0.82380  0.72800  0.72970  1.0000 0.139354459
H   H46       1.0  0.72800  0.82380  0.77030  1.0000 0.139354459
H   H47       1.0  0.17620  0.27200  0.27030  1.0000 0.139354459
H   H48       1.0  0.27200  0.17620  0.22970  1.0000 0.139354459
H   H49       1.0  0.91760  0.85000  0.68470  1.0000 0.1305299885
H   H50       1.0  0.85000  0.91760  0.81530  1.0000 0.1305299885
H   H51       1.0  0.08240  0.15000  0.31530  1.0000 0.1305299885
H   H52       1.0  0.15000  0.08240  0.18470  1.0000 0.1305299885
H   H53       1.0  0.82770  0.74490  0.62520  1.0000 0.139354459
H   H54       1.0  0.74490  0.82770  0.87480  1.0000 0.139354459
H   H55       1.0  0.17230  0.25510  0.37480  1.0000 0.139354459
H   H56       1.0  0.25510  0.17230  0.12520  1.0000 0.139354459
C   C1        1.0  0.04600  0.59700  0.16590  1.0000 0.6000277316
C   C2        1.0  0.59700  0.04600  0.33410  1.0000 0.6000277316
C   C3        1.0  0.95400  0.40300  0.83410  1.0000 0.6000277316
C   C4        1.0  0.40300  0.95400  0.66590  1.0000 0.6000277316
C   C5        1.0  0.07504  0.66936  0.24510  1.0000 -0.0261598071
C   C6        1.0  0.66936  0.07504  0.25490  1.0000 -0.0261598071
C   C7        1.0  0.92496  0.33064  0.75490  1.0000 -0.0261598071
C   C8        1.0  0.33064  0.92496  0.74510  1.0000 -0.0261598071
C   C9        1.0  0.17393  0.70587  0.29960  1.0000 -0.1195293879
C   C10       1.0  0.70587  0.17393  0.20040  1.0000 -0.1195293879
C   C11       1.0  0.82607  0.29413  0.70040  1.0000 -0.1195293879
C   C12       1.0  0.29413  0.82607  0.79960  1.0000 -0.1195293879
C   C13       1.0  0.20330  0.77730  0.36890  1.0000 -0.0261598071
C   C14       1.0  0.77730  0.20330  0.13110  1.0000 -0.0261598071
C   C15       1.0  0.79670  0.22270  0.63110  1.0000 -0.0261598071
C   C16       1.0  0.22270  0.79670  0.86890  1.0000 -0.0261598071
C   C17       1.0  0.31174  0.81606  0.42700  1.0000 0.6000277316
C   C18       1.0  0.81606  0.31174  0.07300  1.0000 0.6000277316
C   C19       1.0  0.68826  0.18394  0.57300  1.0000 0.6000277316
C   C20       1.0  0.18394  0.68826  0.92700  1.0000 0.6000277316
C   C21       1.0  0.12951  0.80929  0.38560  1.0000 -0.1590982871
C   C22       1.0  0.80929  0.12951  0.11440  1.0000 -0.1590982871
C   C23       1.0  0.87049  0.19071  0.61440  1.0000 -0.1590982871
C   C24       1.0  0.19071  0.87049  0.88560  1.0000 -0.1590982871
C   C25       1.0  0.02505  0.76775  0.33510  1.0000 0.0646671047
C   C26       1.0  0.76775  0.02505  0.16490  1.0000 0.0646671047
C   C27       1.0  0.97495  0.23225  0.66490  1.0000 0.0646671047
C   C28       1.0  0.23225  0.97495  0.83510  1.0000 0.0646671047
C   C29       1.0  0.99985  0.69915  0.26350  1.0000 -0.1471038023
C   C30       1.0  0.69915  0.99985  0.23650  1.0000 -0.1471038023
C   C31       1.0  0.00015  0.30085  0.73650  1.0000 -0.1471038023
C   C32       1.0  0.30085  0.00015  0.76350  1.0000 -0.1471038023
C   C33       1.0  0.93868  0.78932  0.35930  1.0000 0.0697450032
C   C34       1.0  0.78932  0.93868  0.14070  1.0000 0.0697450032
C   C35       1.0  0.06132  0.21068  0.64070  1.0000 0.0697450032
C   C36       1.0  0.21068  0.06132  0.85930  1.0000 0.0697450032
C   C37       1.0  0.97492  0.89448  0.39280  1.0000 -0.1590982871
C   C38       1.0  0.89448  0.97492  0.10720  1.0000 -0.1590982871
C   C39       1.0  0.02508  0.10552  0.60720  1.0000 -0.1590982871
C   C40       1.0  0.10552  0.02508  0.89280  1.0000 -0.1590982871
C   C41       1.0  0.89485  0.91075  0.42220  1.0000 -0.1195293879
C   C42       1.0  0.91075  0.89485  0.07780  1.0000 -0.1195293879
C   C43       1.0  0.10515  0.08925  0.57780  1.0000 -0.1195293879
C   C44       1.0  0.08925  0.10515  0.92220  1.0000 -0.1195293879
C   C45       1.0  0.77710  0.82150  0.42000  1.0000 -0.0202164175
C   C46       1.0  0.82150  0.77710  0.08000  1.0000 -0.0202164175
C   C47       1.0  0.22290  0.17850  0.58000  1.0000 -0.0202164175
C   C48       1.0  0.17850  0.22290  0.92000  1.0000 -0.0202164175
C   C49       1.0  0.69364  0.83716  0.46170  1.0000 0.5473373746
C   C50       1.0  0.83716  0.69364  0.03830  1.0000 0.5473373746
C   C51       1.0  0.30636  0.16284  0.53830  1.0000 0.5473373746
C   C52       1.0  0.16284  0.30636  0.96170  1.0000 0.5473373746
C   C53       1.0  0.74060  0.72000  0.38380  1.0000 -0.0954056913
C   C54       1.0  0.72000  0.74060  0.11620  1.0000 -0.0954056913
C   C55       1.0  0.25940  0.28000  0.61620  1.0000 -0.0954056913
C   C56       1.0  0.28000  0.25940  0.88380  1.0000 -0.0954056913
C   C57       1.0  0.81970  0.70270  0.35360  1.0000 -0.1471038023
C   C58       1.0  0.70270  0.81970  0.14640  1.0000 -0.1471038023
C   C59       1.0  0.18030  0.29730  0.64640  1.0000 -0.1471038023
C   C60       1.0  0.29730  0.18030  0.85360  1.0000 -0.1471038023
C   C61       1.0  0.94690  0.66110  0.75750  1.0000 0.2888982808
C   C62       1.0  0.66110  0.94690  0.74250  1.0000 0.2888982808
C   C63       1.0  0.05310  0.33890  0.24250  1.0000 0.2888982808
C   C64       1.0  0.33890  0.05310  0.25750  1.0000 0.2888982808
C   C65       1.0  0.03090  0.75810  0.61630  1.0000 -0.3398893262
C   C66       1.0  0.75810  0.03090  0.88370  1.0000 -0.3398893262
C   C67       1.0  0.96910  0.24190  0.38370  1.0000 -0.3398893262
C   C68       1.0  0.24190  0.96910  0.11630  1.0000 -0.3398893262
C   C69       1.0  0.87420  0.76680  0.68060  1.0000 -0.2807187224
C   C70       1.0  0.76680  0.87420  0.81940  1.0000 -0.2807187224
C   C71       1.0  0.12580  0.23320  0.31940  1.0000 -0.2807187224
C   C72       1.0  0.23320  0.12580  0.18060  1.0000 -0.2807187224
N   N1        1.0  0.95040  0.73460  0.68350  1.0000 0.0198264499
N   N2        1.0  0.73460  0.95040  0.81650  1.0000 0.0198264499
N   N3        1.0  0.04960  0.26540  0.31650  1.0000 0.0198264499
N   N4        1.0  0.26540  0.04960  0.18350  1.0000 0.0198264499
O   O1        1.0  0.95261  0.56519  0.12150  1.0000 -0.6129996563
O   O2        1.0  0.56519  0.95261  0.37850  1.0000 -0.6129996563
O   O3        1.0  0.04739  0.43481  0.87850  1.0000 -0.6129996563
O   O4        1.0  0.43481  0.04739  0.62150  1.0000 -0.6129996563
O   O5        1.0  0.11613  0.57247  0.15160  1.0000 -0.5948666716
O   O6        1.0  0.57247  0.11613  0.34840  1.0000 -0.5948666716
O   O7        1.0  0.88387  0.42753  0.84840  1.0000 -0.5948666716
O   O8        1.0  0.42753  0.88387  0.65160  1.0000 -0.5948666716
O   O9        1.0  0.34527  0.74933  0.43940  1.0000 -0.5202693576
O   O10       1.0  0.74933  0.34527  0.06060  1.0000 -0.5202693576
O   O11       1.0  0.65473  0.25067  0.56060  1.0000 -0.5202693576
O   O12       1.0  0.25067  0.65473  0.93940  1.0000 -0.5202693576
O   O13       1.0  0.36595  0.91285  0.46330  1.0000 -0.6858771229
O   O14       1.0  0.91285  0.36595  0.03670  1.0000 -0.6858771229
O   O15       1.0  0.63405  0.08715  0.53670  1.0000 -0.6858771229
O   O16       1.0  0.08715  0.63405  0.96330  1.0000 -0.6858771229
O   O17       1.0  0.73360  0.93060  0.49840  1.0000 -0.6000662232
O   O18       1.0  0.93060  0.73360  0.00160  1.0000 -0.6000662232
O   O19       1.0  0.26640  0.06940  0.50160  1.0000 -0.6000662232
O   O20       1.0  0.06940  0.26640  0.99840  1.0000 -0.6000662232
O   O21       1.0  0.58589  0.75551  0.45970  1.0000 -0.546836474
O   O22       1.0  0.75551  0.58589  0.04030  1.0000 -0.546836474
O   O23       1.0  0.41411  0.24449  0.54030  1.0000 -0.546836474
O   O24       1.0  0.24449  0.41411  0.95970  1.0000 -0.546836474
O   O25       1.0  0.66790  0.41670  0.88990  1.0000 -0.310320572
O   O26       1.0  0.41670  0.66790  0.61010  1.0000 -0.310320572
O   O27       1.0  0.33210  0.58330  0.11010  1.0000 -0.310320572
O   O28       1.0  0.58330  0.33210  0.38990  1.0000 -0.310320572
O   O29       1.0  0.89180  0.64400  0.82090  1.0000 -0.4579262818
O   O30       1.0  0.64400  0.89180  0.67910  1.0000 -0.4579262818
O   O31       1.0  0.10820  0.35600  0.17910  1.0000 -0.4579262818
O   O32       1.0  0.35600  0.10820  0.32090  1.0000 -0.4579262818
