# DDEC6 charges by PACMAN v1.1 (https://github.com/mtap-research/PACMAN-charge/)
data_2014[Nd][sqc]3[FSR]1
_chemical_formula_sum              "Nd2 H24 C18 S6 O16"
_cell_length_a       9.14
_cell_length_b       11.1538
_cell_length_c       11.2716
_cell_angle_alpha    77.261
_cell_angle_beta     68.453
_cell_angle_gamma    78.843

_symmetry_space_group_name_H-M    "P 1"
_symmetry_Int_Tables_number       1

loop_
  _symmetry_equiv_pos_as_xyz
  'x, y, z'

loop_
  _atom_site_type_symbol
  _atom_site_label
  _atom_site_symmetry_multiplicity
  _atom_site_fract_x
  _atom_site_fract_y
  _atom_site_fract_z
  _atom_site_occupancy
  _atom_site_charge
Nd  Nd1       1.0  0.73063  0.01791  0.01935  1.0000 2.046820989
Nd  Nd2       1.0  0.26937  0.98209  0.98065  1.0000 2.046820989
H   H1        1.0  0.79020  0.03500  0.66040  1.0000 0.1592283045
H   H2        1.0  0.20980  0.96500  0.33960  1.0000 0.1592283045
H   H3        1.0  0.73710  0.17670  0.66150  1.0000 0.1696669367
H   H4        1.0  0.26290  0.82330  0.33850  1.0000 0.1696669367
H   H5        1.0  0.64610  0.91480  0.56220  1.0000 0.1327681338
H   H6        1.0  0.35390  0.08520  0.43780  1.0000 0.1327681338
H   H7        1.0  0.67290  0.95300  0.41380  1.0000 0.141390076
H   H8        1.0  0.32710  0.04700  0.58620  1.0000 0.141390076
H   H9        1.0  0.92080  0.90800  0.51750  1.0000 0.123844674
H   H10       1.0  0.07920  0.09200  0.48250  1.0000 0.123844674
H   H11       1.0  0.94630  0.94330  0.36970  1.0000 0.141390076
H   H12       1.0  0.05370  0.05670  0.63030  1.0000 0.141390076
H   H13       1.0  0.91600  0.65870  0.26410  1.0000 0.1592283045
H   H14       1.0  0.08400  0.34130  0.73590  1.0000 0.1592283045
H   H15       1.0  0.78510  0.77250  0.29070  1.0000 0.1756956187
H   H16       1.0  0.21490  0.22750  0.70930  1.0000 0.1756956187
H   H17       1.0  0.87550  0.58180  0.06640  1.0000 0.1327681338
H   H18       1.0  0.12450  0.41820  0.93360  1.0000 0.1327681338
H   H19       1.0  0.86460  0.44170  0.07340  1.0000 0.123844674
H   H20       1.0  0.13540  0.55830  0.92660  1.0000 0.123844674
H   H21       1.0  0.03080  0.68800  0.78070  1.0000 0.1592283045
H   H22       1.0  0.96920  0.31200  0.21930  1.0000 0.1592283045
H   H23       1.0  0.89450  0.72460  0.72240  1.0000 0.1592283045
H   H24       1.0  0.10550  0.27540  0.27760  1.0000 0.1592283045
C   C1        1.0  0.55750  0.07290  0.76650  1.0000 0.6707898138
C   C2        1.0  0.44250  0.92710  0.23350  1.0000 0.6707898138
C   C3        1.0  0.70620  0.10120  0.65340  1.0000 -0.3879827353
C   C4        1.0  0.29380  0.89880  0.34660  1.0000 -0.3879827353
C   C5        1.0  0.71140  0.95880  0.48160  1.0000 -0.1957767102
C   C6        1.0  0.28860  0.04120  0.51840  1.0000 -0.1957767102
C   C7        1.0  0.88280  0.89850  0.45060  1.0000 -0.2123905363
C   C8        1.0  0.11720  0.10150  0.54940  1.0000 -0.2123905363
C   C9        1.0  0.89440  0.74220  0.28340  1.0000 -0.3705194535
C   C10       1.0  0.10560  0.25780  0.71660  1.0000 -0.3705194535
C   C11       1.0  0.00090  0.82300  0.17180  1.0000 0.6707898138
C   C12       1.0  0.99910  0.17700  0.82820  1.0000 0.6707898138
C   C13       1.0  0.91270  0.51360  0.01790  1.0000 -0.2123905363
C   C14       1.0  0.08730  0.48640  0.98210  1.0000 -0.2123905363
C   C15       1.0  0.91660  0.69920  0.80280  1.0000 -0.3705194535
C   C16       1.0  0.08340  0.30080  0.19720  1.0000 -0.3705194535
C   C17       1.0  0.84880  0.80540  0.88050  1.0000 0.6184285191
C   C18       1.0  0.15120  0.19460  0.11950  1.0000 0.6184285191
S   S1        1.0  0.69499  0.11981  0.49523  1.0000 0.093324138
S   S2        1.0  0.30501  0.88019  0.50477  1.0000 0.093324138
S   S3        1.0  0.91645  0.73610  0.43742  1.0000 0.0564689693
S   S4        1.0  0.08355  0.26390  0.56258  1.0000 0.0543343817
S   S5        1.0  0.84860  0.55392  0.87540  1.0000 0.1327681338
S   S6        1.0  0.15140  0.44608  0.12460  1.0000 0.1327681338
O   O1        1.0  0.42870  0.07200  0.75280  1.0000 -0.5766391995
O   O2        1.0  0.57130  0.92800  0.24720  1.0000 -0.5766391995
O   O3        1.0  0.53610  0.20730  0.06310  1.0000 -0.3196172657
O   O4        1.0  0.46390  0.79270  0.93690  1.0000 -0.3196172657
O   O5        1.0  0.57030  0.04640  0.87810  1.0000 -0.6483705136
O   O6        1.0  0.42970  0.95360  0.12190  1.0000 -0.6483705136
O   O7        1.0  0.78030  0.13230  0.16400  1.0000 -0.4066075625
O   O8        1.0  0.21970  0.86770  0.83600  1.0000 -0.4066075625
O   O9        1.0  0.94160  0.89600  0.09400  1.0000 -0.6373838874
O   O10       1.0  0.05840  0.10400  0.90600  1.0000 -0.6373838874
O   O11       1.0  0.14430  0.81700  0.15780  1.0000 -0.5921375247
O   O12       1.0  0.85570  0.18300  0.84220  1.0000 -0.5921375247
O   O13       1.0  0.91490  0.90360  0.83450  1.0000 -0.5766391995
O   O14       1.0  0.08510  0.09640  0.16550  1.0000 -0.5766391995
O   O15       1.0  0.73350  0.79580  0.98450  1.0000 -0.5596300456
O   O16       1.0  0.26650  0.20420  0.01550  1.0000 -0.5596300456
