# DDEC6 charges by PACMAN v1.1 (https://github.com/mtap-research/PACMAN-charge/)
data_2014[Mg][nan]3[FSR]4
_chemical_formula_sum              "Mg4 H32 C52 N4 O20"
_cell_length_a       12.5015
_cell_length_b       12.5015
_cell_length_c       13.478
_cell_angle_alpha    62.6273
_cell_angle_beta     117.373
_cell_angle_gamma    92.8833

_symmetry_space_group_name_H-M    "P 1"
_symmetry_Int_Tables_number       1

loop_
  _symmetry_equiv_pos_as_xyz
  'x, y, z'

loop_
  _atom_site_type_symbol
  _atom_site_label
  _atom_site_symmetry_multiplicity
  _atom_site_fract_x
  _atom_site_fract_y
  _atom_site_fract_z
  _atom_site_occupancy
  _atom_site_charge
Mg  Mg1       1.0  0.50000  0.00000  0.50000  1.0000 1.3504439354
Mg  Mg2       1.0  0.00000  0.50000  0.00000  1.0000 1.3504439354
Mg  Mg3       1.0  0.80530  0.80530  0.75000  1.0000 1.3504439354
Mg  Mg4       1.0  0.19470  0.19470  0.25000  1.0000 1.3504439354
H   H1        1.0  0.64100  0.22900  0.66500  1.0000 0.1018076943
H   H2        1.0  0.22900  0.64100  0.83500  1.0000 0.1018076943
H   H3        1.0  0.35900  0.77100  0.33500  1.0000 0.1018076943
H   H4        1.0  0.77100  0.35900  0.16500  1.0000 0.1018076943
H   H5        1.0  0.75600  0.33800  0.77300  1.0000 0.1203920854
H   H6        1.0  0.33800  0.75600  0.72700  1.0000 0.1203920854
H   H7        1.0  0.24400  0.66200  0.22700  1.0000 0.1203920854
H   H8        1.0  0.66200  0.24400  0.27300  1.0000 0.1203920854
H   H9        1.0  0.95400  0.03000  0.08500  1.0000 0.1320753567
H   H10       1.0  0.03000  0.95400  0.41500  1.0000 0.1320753567
H   H11       1.0  0.04600  0.97000  0.91500  1.0000 0.1320753567
H   H12       1.0  0.97000  0.04600  0.58500  1.0000 0.1320753567
H   H13       1.0  0.83600  0.91800  0.98700  1.0000 0.1203920854
H   H14       1.0  0.91800  0.83600  0.51300  1.0000 0.1203920854
H   H15       1.0  0.16400  0.08200  0.01300  1.0000 0.1203920854
H   H16       1.0  0.08200  0.16400  0.48700  1.0000 0.1203920854
H   H17       1.0  0.47200  0.69400  0.63500  1.0000 0.1320753567
H   H18       1.0  0.69400  0.47200  0.86500  1.0000 0.1320753567
H   H19       1.0  0.52800  0.30600  0.36500  1.0000 0.1320753567
H   H20       1.0  0.30600  0.52800  0.13500  1.0000 0.1320753567
H   H21       1.0  0.41300  0.54500  0.59600  1.0000 0.1402114478
H   H22       1.0  0.54500  0.41300  0.90400  1.0000 0.1402114478
H   H23       1.0  0.58700  0.45500  0.40400  1.0000 0.1402114478
H   H24       1.0  0.45500  0.58700  0.09600  1.0000 0.1402114478
H   H25       1.0  0.64700  0.59700  0.45500  1.0000 0.1402114478
H   H26       1.0  0.59700  0.64700  0.04500  1.0000 0.1402114478
H   H27       1.0  0.35300  0.40300  0.54500  1.0000 0.1402114478
H   H28       1.0  0.40300  0.35300  0.95500  1.0000 0.1402114478
H   H29       1.0  0.69100  0.74900  0.51100  1.0000 0.1402114478
H   H30       1.0  0.74900  0.69100  0.98900  1.0000 0.1402114478
H   H31       1.0  0.30900  0.25100  0.48900  1.0000 0.1402114478
H   H32       1.0  0.25100  0.30900  0.01100  1.0000 0.1402114478
C   C1        1.0  0.73632  0.05972  0.82280  1.0000 -0.0203200631
C   C2        1.0  0.05972  0.73632  0.67720  1.0000 -0.0203200631
C   C3        1.0  0.26368  0.94028  0.17720  1.0000 -0.0203200631
C   C4        1.0  0.94028  0.26368  0.32280  1.0000 -0.0203200631
C   C5        1.0  0.70810  0.18730  0.75600  1.0000 -0.1111411095
C   C6        1.0  0.18730  0.70810  0.74400  1.0000 -0.1111411095
C   C7        1.0  0.29190  0.81270  0.24400  1.0000 -0.1111411095
C   C8        1.0  0.81270  0.29190  0.25600  1.0000 -0.1111411095
C   C9        1.0  0.77220  0.25360  0.81440  1.0000 -0.1170815394
C   C10       1.0  0.25360  0.77220  0.68560  1.0000 -0.1170815394
C   C11       1.0  0.22780  0.74640  0.18560  1.0000 -0.1170815394
C   C12       1.0  0.74640  0.22780  0.31440  1.0000 -0.1170815394
C   C13       1.0  0.86485  0.19405  0.94140  1.0000 -0.0274857134
C   C14       1.0  0.19405  0.86485  0.55860  1.0000 -0.0274857134
C   C15       1.0  0.13515  0.80595  0.05860  1.0000 -0.0274857134
C   C16       1.0  0.80595  0.13515  0.44140  1.0000 -0.0274857134
C   C17       1.0  0.89090  0.06650  0.00850  1.0000 -0.0936711483
C   C18       1.0  0.06650  0.89090  0.49150  1.0000 -0.0936711483
C   C19       1.0  0.10910  0.93350  0.99150  1.0000 -0.0936711483
C   C20       1.0  0.93350  0.10910  0.50850  1.0000 -0.0936711483
C   C21       1.0  0.82810  0.00030  0.94950  1.0000 -0.0969977096
C   C22       1.0  0.00030  0.82810  0.55050  1.0000 -0.0969977096
C   C23       1.0  0.17190  0.99970  0.05050  1.0000 -0.0969977096
C   C24       1.0  0.99970  0.17190  0.44950  1.0000 -0.0969977096
C   C25       1.0  0.67538  0.98818  0.75490  1.0000 0.6289480686
C   C26       1.0  0.98818  0.67538  0.74510  1.0000 0.6289480686
C   C27       1.0  0.32462  0.01182  0.24510  1.0000 0.6289480686
C   C28       1.0  0.01182  0.32462  0.25490  1.0000 0.6289480686
C   C29       1.0  0.94170  0.26370  0.00530  1.0000 0.6201230049
C   C30       1.0  0.26370  0.94170  0.49470  1.0000 0.6201230049
C   C31       1.0  0.05830  0.73630  0.99470  1.0000 0.6201230049
C   C32       1.0  0.73630  0.05830  0.50530  1.0000 0.6201230049
C   C33       1.0  0.50250  0.67490  0.60230  1.0000 -0.0415936742
C   C34       1.0  0.67490  0.50250  0.89770  1.0000 -0.0415936742
C   C35       1.0  0.49750  0.32510  0.39770  1.0000 -0.0415936742
C   C36       1.0  0.32510  0.49750  0.10230  1.0000 -0.0415936742
C   C37       1.0  0.46820  0.58200  0.57460  1.0000 -0.2013846576
C   C38       1.0  0.58200  0.46820  0.92540  1.0000 -0.2013846576
C   C39       1.0  0.53180  0.41800  0.42540  1.0000 -0.2013846576
C   C40       1.0  0.41800  0.53180  0.07460  1.0000 -0.2013846576
C   C41       1.0  0.51880  0.54960  0.51670  1.0000 0.1018076943
C   C42       1.0  0.54960  0.51880  0.98330  1.0000 0.1018076943
C   C43       1.0  0.48120  0.45040  0.48330  1.0000 0.1018076943
C   C44       1.0  0.45040  0.48120  0.01670  1.0000 0.1018076943
C   C45       1.0  0.60180  0.61640  0.48790  1.0000 -0.188447544
C   C46       1.0  0.61640  0.60180  0.01210  1.0000 -0.188447544
C   C47       1.0  0.39820  0.38360  0.51210  1.0000 -0.188447544
C   C48       1.0  0.38360  0.39820  0.98790  1.0000 -0.188447544
C   C49       1.0  0.63460  0.70820  0.51850  1.0000 0.0138498176
C   C50       1.0  0.70820  0.63460  0.98150  1.0000 0.0138498176
C   C51       1.0  0.36540  0.29180  0.48150  1.0000 0.0138498176
C   C52       1.0  0.29180  0.36540  0.01850  1.0000 0.0138498176
N   N1        1.0  0.58621  0.73435  0.57720  1.0000 0.3118028104
N   N2        1.0  0.73435  0.58621  0.92280  1.0000 0.3118028104
N   N3        1.0  0.41379  0.26565  0.42280  1.0000 0.3118028104
N   N4        1.0  0.26565  0.41379  0.07720  1.0000 0.3118028104
O   O1        1.0  0.58325  0.04351  0.64500  1.0000 -0.6209766359
O   O2        1.0  0.04351  0.58325  0.85500  1.0000 -0.6209766359
O   O3        1.0  0.41675  0.95649  0.35500  1.0000 -0.6209766359
O   O4        1.0  0.95649  0.41675  0.14500  1.0000 -0.6209766359
O   O5        1.0  0.72432  0.87542  0.81380  1.0000 -0.6641560287
O   O6        1.0  0.87542  0.72432  0.68620  1.0000 -0.6641560287
O   O7        1.0  0.27568  0.12458  0.18620  1.0000 -0.6641560287
O   O8        1.0  0.12458  0.27568  0.31380  1.0000 -0.6641560287
O   O9        1.0  0.91844  0.37948  0.93810  1.0000 -0.6414216399
O   O10       1.0  0.37948  0.91844  0.56190  1.0000 -0.6414216399
O   O11       1.0  0.08156  0.62052  0.06190  1.0000 -0.6414216399
O   O12       1.0  0.62052  0.08156  0.43810  1.0000 -0.6414216399
O   O13       1.0  0.02355  0.20029  0.12000  1.0000 -0.6321396023
O   O14       1.0  0.20029  0.02355  0.38000  1.0000 -0.6321396023
O   O15       1.0  0.97645  0.79971  0.88000  1.0000 -0.6321396023
O   O16       1.0  0.79971  0.97645  0.62000  1.0000 -0.6321396023
O   O17       1.0  0.62106  0.82082  0.61030  1.0000 -0.597535187
O   O18       1.0  0.82082  0.62106  0.88970  1.0000 -0.597535187
O   O19       1.0  0.37894  0.17918  0.38970  1.0000 -0.597535187
O   O20       1.0  0.17918  0.37894  0.11030  1.0000 -0.597535187
