# DDEC6 charges by PACMAN v1.1 (https://github.com/mtap-research/PACMAN-charge/)
data_2014[Pr][nan]3[FSR]1
_chemical_formula_sum              "Pr4 H56 C72 N4 O32"
_cell_length_a       13.9663
_cell_length_b       13.9663
_cell_length_c       14.9778
_cell_angle_alpha    84.0902
_cell_angle_beta     95.9098
_cell_angle_gamma    124.471

_symmetry_space_group_name_H-M    "P 1"
_symmetry_Int_Tables_number       1

loop_
  _symmetry_equiv_pos_as_xyz
  'x, y, z'

loop_
  _atom_site_type_symbol
  _atom_site_label
  _atom_site_symmetry_multiplicity
  _atom_site_fract_x
  _atom_site_fract_y
  _atom_site_fract_z
  _atom_site_occupancy
  _atom_site_charge
Pr  Pr1       1.0  0.87576  0.53337  0.96733  1.0000 2.0613414364
Pr  Pr2       1.0  0.53337  0.87575  0.53267  1.0000 2.0613414364
Pr  Pr3       1.0  0.12424  0.46663  0.03267  1.0000 2.0613414364
Pr  Pr4       1.0  0.46663  0.12425  0.46733  1.0000 2.0613414364
H   H1        1.0  0.22540  0.68441  0.28860  1.0000 0.1405958139
H   H2        1.0  0.68441  0.22540  0.21140  1.0000 0.1405958139
H   H3        1.0  0.77460  0.31560  0.71140  1.0000 0.1405958139
H   H4        1.0  0.31560  0.77460  0.78860  1.0000 0.1405958139
H   H5        1.0  0.15220  0.86101  0.43110  1.0000 0.1301741933
H   H6        1.0  0.86101  0.15220  0.06890  1.0000 0.1301741933
H   H7        1.0  0.84780  0.13900  0.56890  1.0000 0.1301741933
H   H8        1.0  0.13900  0.84780  0.93110  1.0000 0.1301741933
H   H9        1.0  0.93400  0.67221  0.22810  1.0000 0.1301741933
H   H10       1.0  0.67221  0.93400  0.27190  1.0000 0.1301741933
H   H11       1.0  0.06600  0.32780  0.77190  1.0000 0.1301741933
H   H12       1.0  0.32780  0.06600  0.72810  1.0000 0.1301741933
H   H13       1.0  0.05450  0.95531  0.39580  1.0000 0.1301741933
H   H14       1.0  0.95531  0.05450  0.10420  1.0000 0.1301741933
H   H15       1.0  0.94550  0.04469  0.60420  1.0000 0.1301741933
H   H16       1.0  0.04470  0.94550  0.89580  1.0000 0.1301741933
H   H17       1.0  0.92080  0.98321  0.44330  1.0000 0.1185584216
H   H18       1.0  0.98321  0.92080  0.05670  1.0000 0.1185584216
H   H19       1.0  0.07920  0.01680  0.55670  1.0000 0.1185584216
H   H20       1.0  0.01680  0.07920  0.94330  1.0000 0.1185584216
H   H21       1.0  0.66430  0.66231  0.38000  1.0000 0.1405958139
H   H22       1.0  0.66231  0.66430  0.12000  1.0000 0.1405958139
H   H23       1.0  0.33570  0.33769  0.62000  1.0000 0.1405958139
H   H24       1.0  0.33770  0.33570  0.88000  1.0000 0.1301741933
H   H25       1.0  0.79700  0.63380  0.33090  1.0000 0.1185584216
H   H26       1.0  0.63380  0.79700  0.16910  1.0000 0.1185584216
H   H27       1.0  0.20300  0.36620  0.66910  1.0000 0.1185584216
H   H28       1.0  0.36619  0.20300  0.83090  1.0000 0.1185584216
H   H29       1.0  0.97670  0.61850  0.75510  1.0000 0.10340772
H   H30       1.0  0.61850  0.97670  0.74490  1.0000 0.10340772
H   H31       1.0  0.02330  0.38149  0.24490  1.0000 0.10340772
H   H32       1.0  0.38149  0.02330  0.25510  1.0000 0.10340772
H   H33       1.0  0.03650  0.81671  0.57250  1.0000 0.1405958139
H   H34       1.0  0.81671  0.03650  0.92750  1.0000 0.1405958139
H   H35       1.0  0.96350  0.18330  0.42750  1.0000 0.1405958139
H   H36       1.0  0.18330  0.96350  0.07250  1.0000 0.1405958139
H   H37       1.0  0.11030  0.79310  0.64590  1.0000 0.1450279521
H   H38       1.0  0.79311  0.11030  0.85410  1.0000 0.1405958139
H   H39       1.0  0.88970  0.20689  0.35410  1.0000 0.1405958139
H   H40       1.0  0.20689  0.88970  0.14590  1.0000 0.1450279521
H   H41       1.0  0.00660  0.69041  0.59180  1.0000 0.1405958139
H   H42       1.0  0.69041  0.00660  0.90820  1.0000 0.1405958139
H   H43       1.0  0.99340  0.30960  0.40820  1.0000 0.1405958139
H   H44       1.0  0.30960  0.99340  0.09180  1.0000 0.1405958139
H   H45       1.0  0.82620  0.73401  0.72900  1.0000 0.1405958139
H   H46       1.0  0.73401  0.82620  0.77100  1.0000 0.1405958139
H   H47       1.0  0.17380  0.26599  0.27100  1.0000 0.1405958139
H   H48       1.0  0.26599  0.17380  0.22900  1.0000 0.1405958139
H   H49       1.0  0.91950  0.85471  0.68380  1.0000 0.1301741933
H   H50       1.0  0.85471  0.91950  0.81620  1.0000 0.1301741933
H   H51       1.0  0.08050  0.14530  0.31620  1.0000 0.1301741933
H   H52       1.0  0.14530  0.08050  0.18380  1.0000 0.1301741933
H   H53       1.0  0.83280  0.74941  0.62420  1.0000 0.1405958139
H   H54       1.0  0.74940  0.83280  0.87580  1.0000 0.1405958139
H   H55       1.0  0.16720  0.25060  0.37580  1.0000 0.1405958139
H   H56       1.0  0.25060  0.16720  0.12420  1.0000 0.1405958139
C   C1        1.0  0.04903  0.59857  0.16530  1.0000 0.6193806845
C   C2        1.0  0.59857  0.04903  0.33470  1.0000 0.6193806845
C   C3        1.0  0.95097  0.40142  0.83470  1.0000 0.6193806845
C   C4        1.0  0.40143  0.95097  0.66530  1.0000 0.6193806845
C   C5        1.0  0.07768  0.67073  0.24500  1.0000 -0.0265222575
C   C6        1.0  0.67073  0.07768  0.25500  1.0000 -0.0265222575
C   C7        1.0  0.92232  0.32927  0.75500  1.0000 -0.0265222575
C   C8        1.0  0.32927  0.92232  0.74500  1.0000 -0.0265222575
C   C9        1.0  0.17706  0.70754  0.29900  1.0000 -0.1174580661
C   C10       1.0  0.70754  0.17706  0.20100  1.0000 -0.1174580661
C   C11       1.0  0.82294  0.29245  0.70100  1.0000 -0.1174580661
C   C12       1.0  0.29246  0.82294  0.79900  1.0000 -0.1174580661
C   C13       1.0  0.20576  0.77865  0.36850  1.0000 -0.0265222575
C   C14       1.0  0.77865  0.20576  0.13150  1.0000 -0.0265222575
C   C15       1.0  0.79424  0.22136  0.63150  1.0000 -0.0265222575
C   C16       1.0  0.22136  0.79424  0.86850  1.0000 -0.0265222575
C   C17       1.0  0.31441  0.81800  0.42570  1.0000 0.6193806845
C   C18       1.0  0.81800  0.31441  0.07430  1.0000 0.6193806845
C   C19       1.0  0.68559  0.18201  0.57430  1.0000 0.6193806845
C   C20       1.0  0.18201  0.68559  0.92570  1.0000 0.6193806845
C   C21       1.0  0.13167  0.81094  0.38570  1.0000 -0.1580754799
C   C22       1.0  0.81093  0.13167  0.11430  1.0000 -0.1580754799
C   C23       1.0  0.86833  0.18906  0.61430  1.0000 -0.1580754799
C   C24       1.0  0.18907  0.86833  0.88570  1.0000 -0.1580754799
C   C25       1.0  0.02775  0.76885  0.33560  1.0000 0.0698085435
C   C26       1.0  0.76886  0.02775  0.16440  1.0000 0.0698085435
C   C27       1.0  0.97225  0.23114  0.66440  1.0000 0.0698085435
C   C28       1.0  0.23115  0.97225  0.83560  1.0000 0.0698085435
C   C29       1.0  0.00236  0.69925  0.26360  1.0000 -0.145707762
C   C30       1.0  0.69925  0.00236  0.23640  1.0000 -0.145707762
C   C31       1.0  0.99764  0.30075  0.73640  1.0000 -0.145707762
C   C32       1.0  0.30075  0.99764  0.76360  1.0000 -0.145707762
C   C33       1.0  0.94109  0.79071  0.35980  1.0000 0.0698085435
C   C34       1.0  0.79072  0.94109  0.14020  1.0000 0.0698085435
C   C35       1.0  0.05891  0.20929  0.64020  1.0000 0.0698085435
C   C36       1.0  0.20929  0.05891  0.85980  1.0000 0.0698085435
C   C37       1.0  0.97600  0.89521  0.39300  1.0000 -0.1580754799
C   C38       1.0  0.89521  0.97600  0.10700  1.0000 -0.1580754799
C   C39       1.0  0.02400  0.10479  0.60700  1.0000 -0.1580754799
C   C40       1.0  0.10480  0.02400  0.89300  1.0000 -0.1580754799
C   C41       1.0  0.89570  0.91190  0.42200  1.0000 -0.1146384386
C   C42       1.0  0.91191  0.89570  0.07800  1.0000 -0.1146384386
C   C43       1.0  0.10430  0.08810  0.57800  1.0000 -0.1146384386
C   C44       1.0  0.08810  0.10430  0.92200  1.0000 -0.1146384386
C   C45       1.0  0.77910  0.82391  0.41970  1.0000 -0.0213037228
C   C46       1.0  0.82391  0.77910  0.08030  1.0000 -0.0213037228
C   C47       1.0  0.22090  0.17610  0.58030  1.0000 -0.0213037228
C   C48       1.0  0.17610  0.22090  0.91970  1.0000 -0.0213037228
C   C49       1.0  0.69486  0.83935  0.46060  1.0000 0.5542328673
C   C50       1.0  0.83935  0.69486  0.03940  1.0000 0.5542328673
C   C51       1.0  0.30514  0.16065  0.53940  1.0000 0.5542328673
C   C52       1.0  0.16065  0.30514  0.96060  1.0000 0.5542328673
C   C53       1.0  0.74320  0.72120  0.38420  1.0000 -0.0927943011
C   C54       1.0  0.72121  0.74320  0.11580  1.0000 -0.0927943011
C   C55       1.0  0.25680  0.27880  0.61580  1.0000 -0.0927943011
C   C56       1.0  0.27880  0.25680  0.88420  1.0000 -0.0927943011
C   C57       1.0  0.82290  0.70411  0.35450  1.0000 -0.144304542
C   C58       1.0  0.70411  0.82290  0.14550  1.0000 -0.144304542
C   C59       1.0  0.17710  0.29590  0.64550  1.0000 -0.144304542
C   C60       1.0  0.29590  0.17710  0.85450  1.0000 -0.144304542
C   C61       1.0  0.94320  0.65960  0.75860  1.0000 0.3038857001
C   C62       1.0  0.65960  0.94320  0.74140  1.0000 0.3038857001
C   C63       1.0  0.05680  0.34040  0.24140  1.0000 0.3038857001
C   C64       1.0  0.34040  0.05680  0.25860  1.0000 0.3038857001
C   C65       1.0  0.03390  0.76191  0.61830  1.0000 -0.3359768448
C   C66       1.0  0.76191  0.03390  0.88170  1.0000 -0.3359768448
C   C67       1.0  0.96610  0.23809  0.38170  1.0000 -0.3359768448
C   C68       1.0  0.23810  0.96610  0.11830  1.0000 -0.3359768448
C   C69       1.0  0.87780  0.77221  0.68040  1.0000 -0.2697306929
C   C70       1.0  0.77221  0.87780  0.81960  1.0000 -0.2697306929
C   C71       1.0  0.12220  0.22779  0.31960  1.0000 -0.2697306929
C   C72       1.0  0.22780  0.12220  0.18040  1.0000 -0.2697306929
N   N1        1.0  0.95450  0.73991  0.68640  1.0000 0.0199926308
N   N2        1.0  0.73991  0.95450  0.81360  1.0000 0.0199926308
N   N3        1.0  0.04550  0.26010  0.31360  1.0000 0.0199926308
N   N4        1.0  0.26010  0.04550  0.18640  1.0000 0.0199926308
O   O1        1.0  0.95629  0.56691  0.12160  1.0000 -0.6257658882
O   O2        1.0  0.56692  0.95629  0.37840  1.0000 -0.6257658882
O   O3        1.0  0.04371  0.43308  0.87840  1.0000 -0.6257658882
O   O4        1.0  0.43309  0.04371  0.62160  1.0000 -0.6257658882
O   O5        1.0  0.11969  0.57412  0.15040  1.0000 -0.6223851425
O   O6        1.0  0.57412  0.11969  0.34960  1.0000 -0.6223851425
O   O7        1.0  0.88031  0.42589  0.84960  1.0000 -0.6223851425
O   O8        1.0  0.42589  0.88031  0.65040  1.0000 -0.6223851425
O   O9        1.0  0.34944  0.75236  0.43890  1.0000 -0.5509906096
O   O10       1.0  0.75236  0.34944  0.06110  1.0000 -0.5509906096
O   O11       1.0  0.65056  0.24764  0.56110  1.0000 -0.5509906096
O   O12       1.0  0.24764  0.65056  0.93890  1.0000 -0.5509906096
O   O13       1.0  0.36807  0.91554  0.46180  1.0000 -0.7334426922
O   O14       1.0  0.91554  0.36807  0.03820  1.0000 -0.7334426922
O   O15       1.0  0.63193  0.08446  0.53820  1.0000 -0.7334426922
O   O16       1.0  0.08447  0.63193  0.96180  1.0000 -0.7334426922
O   O17       1.0  0.73386  0.93195  0.49820  1.0000 -0.6223851425
O   O18       1.0  0.93195  0.73386  0.00180  1.0000 -0.6223851425
O   O19       1.0  0.26614  0.06806  0.50180  1.0000 -0.6223851425
O   O20       1.0  0.06806  0.26614  0.99820  1.0000 -0.6223851425
O   O21       1.0  0.58818  0.75882  0.45870  1.0000 -0.574602334
O   O22       1.0  0.75882  0.58818  0.04130  1.0000 -0.574602334
O   O23       1.0  0.41182  0.24118  0.54130  1.0000 -0.574602334
O   O24       1.0  0.24118  0.41182  0.95870  1.0000 -0.574602334
O   O25       1.0  0.67200  0.42301  0.89200  1.0000 -0.3667504174
O   O26       1.0  0.42301  0.67200  0.60800  1.0000 -0.3667504174
O   O27       1.0  0.32800  0.57700  0.10800  1.0000 -0.3667504174
O   O28       1.0  0.57700  0.32800  0.39200  1.0000 -0.3667504174
O   O29       1.0  0.89290  0.64411  0.82250  1.0000 -0.4554017169
O   O30       1.0  0.64411  0.89290  0.67750  1.0000 -0.4554017169
O   O31       1.0  0.10710  0.35590  0.17750  1.0000 -0.4554017169
O   O32       1.0  0.35590  0.10710  0.32250  1.0000 -0.4554017169
