# DDEC6 charges by PACMAN v1.1 (https://github.com/mtap-research/PACMAN-charge/)
data_2014[TbU][nan]3[FSR]1
_chemical_formula_sum              "Tb2 U3 H26 C30 O40"
_cell_length_a       10.5675
_cell_length_b       11.5148
_cell_length_c       13.4306
_cell_angle_alpha    69.151
_cell_angle_beta     78.569
_cell_angle_gamma    63.228

_symmetry_space_group_name_H-M    "P 1"
_symmetry_Int_Tables_number       1

loop_
  _symmetry_equiv_pos_as_xyz
  'x, y, z'

loop_
  _atom_site_type_symbol
  _atom_site_label
  _atom_site_symmetry_multiplicity
  _atom_site_fract_x
  _atom_site_fract_y
  _atom_site_fract_z
  _atom_site_occupancy
  _atom_site_charge
Tb  Tb1       1.0  0.60045  0.22954  0.75007  1.0000 2.1183584106
Tb  Tb2       1.0  0.39955  0.77046  0.24993  1.0000 2.1183584106
U   U1        1.0  0.62428  0.71303  0.83617  1.0000 2.3930647743
U   U2        1.0  0.37572  0.28697  0.16383  1.0000 2.3930647743
U   U3        1.0  0.00000  0.50000  0.50000  1.0000 2.3708114994
H   H1        1.0  0.67190  0.17750  0.54670  1.0000 0.4092899856
H   H2        1.0  0.32810  0.82250  0.45330  1.0000 0.4092899856
H   H3        1.0  0.81060  0.09090  0.60950  1.0000 0.4320628765
H   H4        1.0  0.18940  0.90910  0.39050  1.0000 0.4320628765
H   H5        1.0  0.52830  0.48660  0.57250  1.0000 0.3865724874
H   H6        1.0  0.47170  0.51340  0.42750  1.0000 0.3865724874
H   H7        1.0  0.69060  0.43130  0.58540  1.0000 0.4190343988
H   H8        1.0  0.30940  0.56870  0.41460  1.0000 0.4190343988
H   H9        1.0  0.35450  0.45370  0.62680  1.0000 0.4190343988
H   H10       1.0  0.64550  0.54630  0.37320  1.0000 0.4190343988
H   H11       1.0  0.29410  0.35480  0.71080  1.0000 0.4038758648
H   H12       1.0  0.70590  0.64520  0.28920  1.0000 0.4038758648
H   H13       1.0  0.43820  0.48120  0.81220  1.0000 0.4320628765
H   H14       1.0  0.56180  0.51880  0.18780  1.0000 0.4320628765
H   H15       1.0  0.58180  0.40960  0.86820  1.0000 0.4320628765
H   H16       1.0  0.41820  0.59040  0.13180  1.0000 0.4320628765
H   H17       1.0  0.74340  0.93830  0.86140  1.0000 0.4092899856
H   H18       1.0  0.25660  0.06170  0.13860  1.0000 0.4092899856
H   H19       1.0  0.85430  0.99750  0.84940  1.0000 0.4190343988
H   H20       1.0  0.14570  0.00250  0.15060  1.0000 0.4190343988
H   H21       1.0  0.09650  0.35850  0.95770  1.0000 0.1408126972
H   H22       1.0  0.90350  0.64150  0.04230  1.0000 0.1450602037
H   H23       1.0  0.16010  0.11180  0.73340  1.0000 0.1408126972
H   H24       1.0  0.83990  0.88820  0.26660  1.0000 0.1408126972
H   H25       1.0  0.71340  0.99810  0.41640  1.0000 0.1299209517
H   H26       1.0  0.28660  0.00190  0.58360  1.0000 0.1299209517
C   C1        1.0  0.99830  0.34330  0.85130  1.0000 -0.0448559004
C   C2        1.0  0.00170  0.65670  0.14870  1.0000 -0.0448559004
C   C3        1.0  0.11160  0.31260  0.90880  1.0000 -0.0928868654
C   C4        1.0  0.88840  0.68740  0.09120  1.0000 -0.0928868654
C   C5        1.0  0.24610  0.21550  0.89490  1.0000 -0.098440789
C   C6        1.0  0.75390  0.78450  0.10510  1.0000 -0.098440789
C   C7        1.0  0.26640  0.14240  0.82400  1.0000 -0.0332209066
C   C8        1.0  0.73360  0.85760  0.17600  1.0000 -0.0332209066
C   C9        1.0  0.14880  0.16590  0.77480  1.0000 -0.1539665016
C   C10       1.0  0.85120  0.83410  0.22520  1.0000 -0.1539665016
C   C11       1.0  0.01580  0.26710  0.78560  1.0000 -0.0162641725
C   C12       1.0  0.98420  0.73290  0.21440  1.0000 -0.0162641725
C   C13       1.0  0.62720  0.99890  0.44990  1.0000 -0.1308309885
C   C14       1.0  0.37280  0.00110  0.55010  1.0000 -0.1308309885
C   C15       1.0  0.61720  0.87550  0.50500  1.0000 -0.0332209066
C   C16       1.0  0.38280  0.12450  0.49500  1.0000 -0.0332209066
C   C17       1.0  0.48810  0.87700  0.55640  1.0000 -0.0530352465
C   C18       1.0  0.51190  0.12300  0.44360  1.0000 -0.0530352465
C   C19       1.0  0.86430  0.46270  0.85670  1.0000 0.5626308245
C   C20       1.0  0.13570  0.53730  0.14330  1.0000 0.5626308245
C   C21       1.0  0.36140  0.19480  0.95660  1.0000 0.6445817125
C   C22       1.0  0.63860  0.80520  0.04340  1.0000 0.6445817125
C   C23       1.0  0.40820  0.03920  0.79830  1.0000 0.6343546283
C   C24       1.0  0.59180  0.96080  0.20170  1.0000 0.6343546283
C   C25       1.0  0.89660  0.29110  0.72410  1.0000 0.6612400782
C   C26       1.0  0.10340  0.70890  0.27590  1.0000 0.6612400782
C   C27       1.0  0.46700  0.74890  0.62200  1.0000 0.620576061
C   C28       1.0  0.53300  0.25110  0.37800  1.0000 0.620576061
C   C29       1.0  0.74420  0.74650  0.50660  1.0000 0.5626308245
C   C30       1.0  0.25580  0.25350  0.49340  1.0000 0.5626308245
O   O1        1.0  0.53290  0.63450  0.94370  1.0000 -0.6663792658
O   O2        1.0  0.46710  0.36550  0.05630  1.0000 -0.6663792658
O   O3        1.0  0.71900  0.78830  0.73070  1.0000 -0.6597444045
O   O4        1.0  0.28100  0.21170  0.26930  1.0000 -0.6597444045
O   O5        1.0  0.06660  0.50030  0.61070  1.0000 -0.6663792658
O   O6        1.0  0.93340  0.49970  0.38930  1.0000 -0.6663792658
O   O7        1.0  0.85150  0.53610  0.91310  1.0000 -0.5729985463
O   O8        1.0  0.14850  0.46390  0.08690  1.0000 -0.5729985463
O   O9        1.0  0.76300  0.49540  0.80160  1.0000 -0.5599260705
O   O10       1.0  0.23700  0.50460  0.19840  1.0000 -0.5599260705
O   O11       1.0  0.81770  0.23300  0.77060  1.0000 -0.6421712863
O   O12       1.0  0.18230  0.76700  0.22940  1.0000 -0.6421712863
O   O13       1.0  0.88730  0.36330  0.62650  1.0000 -0.596935429
O   O14       1.0  0.11270  0.63670  0.37350  1.0000 -0.596935429
O   O15       1.0  0.41790  0.92000  0.82090  1.0000 -0.596935429
O   O16       1.0  0.58210  0.08000  0.17910  1.0000 -0.596935429
O   O17       1.0  0.50380  0.07680  0.75430  1.0000 -0.6421712863
O   O18       1.0  0.49620  0.92320  0.24570  1.0000 -0.6421712863
O   O19       1.0  0.48230  0.17660  0.91780  1.0000 -0.6174805391
O   O20       1.0  0.51770  0.82340  0.08220  1.0000 -0.6174805391
O   O21       1.0  0.32450  0.19780  0.05280  1.0000 -0.6421712863
O   O22       1.0  0.67550  0.80220  0.94720  1.0000 -0.6347676742
O   O23       1.0  0.50140  0.69690  0.71760  1.0000 -0.6107908714
O   O24       1.0  0.49860  0.30310  0.28240  1.0000 -0.6107908714
O   O25       1.0  0.41050  0.70310  0.58090  1.0000 -0.5388971793
O   O26       1.0  0.58950  0.29690  0.41910  1.0000 -0.5388971793
O   O27       1.0  0.73380  0.63400  0.53400  1.0000 -0.5772066044
O   O28       1.0  0.26620  0.36600  0.46600  1.0000 -0.5772066044
O   O29       1.0  0.86380  0.74860  0.47800  1.0000 -0.5599260705
O   O30       1.0  0.13620  0.25140  0.52200  1.0000 -0.5599260705
O   O31       1.0  0.71850  0.14980  0.60590  1.0000 -0.8276741532
O   O32       1.0  0.28150  0.85020  0.39410  1.0000 -0.8276741532
O   O33       1.0  0.60800  0.42270  0.60620  1.0000 -0.8363384235
O   O34       1.0  0.39200  0.57730  0.39380  1.0000 -0.8363384235
O   O35       1.0  0.36780  0.37680  0.68160  1.0000 -0.8276741532
O   O36       1.0  0.63220  0.62320  0.31840  1.0000 -0.8276741532
O   O37       1.0  0.52420  0.41130  0.82590  1.0000 -0.8363384235
O   O38       1.0  0.47580  0.58870  0.17410  1.0000 -0.8363384235
O   O39       1.0  0.76720  0.00980  0.83860  1.0000 -0.8276741532
O   O40       1.0  0.23280  0.99020  0.16140  1.0000 -0.8276741532
