# DDEC6 charges by PACMAN v1.1 (https://github.com/mtap-research/PACMAN-charge/)
data_2014[CuLu][nan]3[FSR]1
_chemical_formula_sum              "Lu4 Cu2 H32 C48 N16 O40"
_cell_length_a       6.0617
_cell_length_b       23.528
_cell_length_c       13.3601
_cell_angle_alpha    90
_cell_angle_beta     112.658
_cell_angle_gamma    90

_symmetry_space_group_name_H-M    "P 1"
_symmetry_Int_Tables_number       1

loop_
  _symmetry_equiv_pos_as_xyz
  'x, y, z'

loop_
  _atom_site_type_symbol
  _atom_site_label
  _atom_site_symmetry_multiplicity
  _atom_site_fract_x
  _atom_site_fract_y
  _atom_site_fract_z
  _atom_site_occupancy
  _atom_site_charge
Lu  Lu1       1.0  0.59981  0.32997  0.60967  1.0000 1.5437341958
Lu  Lu2       1.0  0.40019  0.82997  0.89033  1.0000 1.5437341958
Lu  Lu3       1.0  0.40019  0.67003  0.39033  1.0000 1.5437341958
Lu  Lu4       1.0  0.59981  0.17003  0.10967  1.0000 1.5437341958
Cu  Cu1       1.0  0.50000  0.50000  0.00000  1.0000 0.7767909795
Cu  Cu2       1.0  0.50000  0.00000  0.50000  1.0000 0.7767909795
H   H1        1.0  0.91650  0.39390  0.58360  1.0000 0.3478874147
H   H2        1.0  0.08350  0.89390  0.91640  1.0000 0.3478874147
H   H3        1.0  0.08350  0.60610  0.41640  1.0000 0.3478874147
H   H4        1.0  0.91650  0.10610  0.08360  1.0000 0.3478874147
H   H5        1.0  0.98890  0.42580  0.67670  1.0000 0.3733530372
H   H6        1.0  0.01110  0.92580  0.82330  1.0000 0.3733530372
H   H7        1.0  0.01110  0.57420  0.32330  1.0000 0.3733530372
H   H8        1.0  0.98890  0.07420  0.17670  1.0000 0.3733530372
H   H9        1.0  0.41780  0.38070  0.37370  1.0000 0.386575672
H   H10       1.0  0.58220  0.88070  0.12630  1.0000 0.386575672
H   H11       1.0  0.58220  0.61930  0.62630  1.0000 0.386575672
H   H12       1.0  0.41780  0.11930  0.87370  1.0000 0.386575672
H   H13       1.0  0.45120  0.40630  0.47080  1.0000 0.3432566926
H   H14       1.0  0.54880  0.90630  0.02920  1.0000 0.3432566926
H   H15       1.0  0.54880  0.59370  0.52920  1.0000 0.3432566926
H   H16       1.0  0.45120  0.09370  0.97080  1.0000 0.3432566926
H   H17       1.0  0.53350  0.29350  0.92280  1.0000 0.1194919123
H   H18       1.0  0.46650  0.79350  0.57720  1.0000 0.1194919123
H   H19       1.0  0.46650  0.70650  0.07720  1.0000 0.1194919123
H   H20       1.0  0.53350  0.20650  0.42280  1.0000 0.1194919123
H   H21       1.0  0.24500  0.33690  0.77640  1.0000 0.1194919123
H   H22       1.0  0.75500  0.83690  0.72360  1.0000 0.1194919123
H   H23       1.0  0.75500  0.66310  0.22360  1.0000 0.1194919123
H   H24       1.0  0.24500  0.16310  0.27640  1.0000 0.1194919123
H   H25       1.0  0.47040  0.39660  0.14380  1.0000 0.1379658162
H   H26       1.0  0.52960  0.89660  0.35620  1.0000 0.1379658162
H   H27       1.0  0.52960  0.60340  0.85620  1.0000 0.1379658162
H   H28       1.0  0.47040  0.10340  0.64380  1.0000 0.1379658162
H   H29       1.0  0.17840  0.32990  0.12630  1.0000 0.1194919123
H   H30       1.0  0.82160  0.82990  0.37370  1.0000 0.1194919123
H   H31       1.0  0.82160  0.67010  0.87370  1.0000 0.1194919123
H   H32       1.0  0.17840  0.17010  0.62630  1.0000 0.1194919123
C   C1        1.0  0.67390  0.22150  0.76800  1.0000 0.5472499162
C   C2        1.0  0.32610  0.72150  0.73200  1.0000 0.5472499162
C   C3        1.0  0.32610  0.77850  0.23200  1.0000 0.5472499162
C   C4        1.0  0.67390  0.27850  0.26800  1.0000 0.5472499162
C   C5        1.0  0.91880  0.24800  0.82730  1.0000 0.0606720849
C   C6        1.0  0.08120  0.74800  0.67270  1.0000 0.0606720849
C   C7        1.0  0.08120  0.75200  0.17270  1.0000 0.0606720849
C   C8        1.0  0.91880  0.25200  0.32730  1.0000 0.0606720849
C   C9        1.0  0.08380  0.22990  0.92740  1.0000 0.0493347339
C   C10       1.0  0.91620  0.72990  0.57260  1.0000 0.0493347339
C   C11       1.0  0.91620  0.77010  0.07260  1.0000 0.0493347339
C   C12       1.0  0.08380  0.27010  0.42740  1.0000 0.0493347339
C   C13       1.0  0.02720  0.19600  0.01150  1.0000 0.581442359
C   C14       1.0  0.97280  0.69600  0.48850  1.0000 0.581442359
C   C15       1.0  0.97280  0.80400  0.98850  1.0000 0.581442359
C   C16       1.0  0.02720  0.30400  0.51150  1.0000 0.581442359
C   C17       1.0  0.37470  0.28250  0.90180  1.0000 0.0606720849
C   C18       1.0  0.62530  0.78250  0.59820  1.0000 0.0606720849
C   C19       1.0  0.62530  0.71750  0.09820  1.0000 0.0606720849
C   C20       1.0  0.37470  0.21750  0.40180  1.0000 0.0606720849
C   C21       1.0  0.20240  0.30690  0.81040  1.0000 0.0687957814
C   C22       1.0  0.79760  0.80690  0.68960  1.0000 0.0687957814
C   C23       1.0  0.79760  0.69310  0.18960  1.0000 0.0687957814
C   C24       1.0  0.20240  0.19310  0.31040  1.0000 0.0687957814
C   C25       1.0  0.64130  0.40630  0.83660  1.0000 0.5855316549
C   C26       1.0  0.35870  0.90630  0.66340  1.0000 0.5855316549
C   C27       1.0  0.35870  0.59370  0.16340  1.0000 0.5855316549
C   C28       1.0  0.64130  0.09370  0.33660  1.0000 0.5855316549
C   C29       1.0  0.89080  0.40350  0.92340  1.0000 0.0687957814
C   C30       1.0  0.10920  0.90350  0.57660  1.0000 0.0687957814
C   C31       1.0  0.10920  0.59650  0.07660  1.0000 0.0687957814
C   C32       1.0  0.89080  0.09650  0.42340  1.0000 0.0687957814
C   C33       1.0  0.06710  0.44360  0.93280  1.0000 0.0296865135
C   C34       1.0  0.93290  0.94360  0.56720  1.0000 0.0296865135
C   C35       1.0  0.93290  0.55640  0.06720  1.0000 0.0296865135
C   C36       1.0  0.06710  0.05640  0.43280  1.0000 0.0296865135
C   C37       1.0  0.03970  0.49220  0.85530  1.0000 0.5277053743
C   C38       1.0  0.96030  0.99220  0.64470  1.0000 0.5277053743
C   C39       1.0  0.96030  0.50780  0.14470  1.0000 0.5277053743
C   C40       1.0  0.03970  0.00780  0.35530  1.0000 0.5277053743
C   C41       1.0  0.32270  0.39900  0.08620  1.0000 0.0687957814
C   C42       1.0  0.67730  0.89900  0.41380  1.0000 0.0687957814
C   C43       1.0  0.67730  0.60100  0.91380  1.0000 0.0687957814
C   C44       1.0  0.32270  0.10100  0.58620  1.0000 0.0687957814
C   C45       1.0  0.14580  0.35890  0.07530  1.0000 0.0606720849
C   C46       1.0  0.85420  0.85890  0.42470  1.0000 0.0606720849
C   C47       1.0  0.85420  0.64110  0.92470  1.0000 0.0606720849
C   C48       1.0  0.14580  0.14110  0.57530  1.0000 0.0606720849
N   N1        1.0  0.97830  0.28829  0.77030  1.0000 -0.2390893333
N   N2        1.0  0.02170  0.78829  0.72970  1.0000 -0.2390893333
N   N3        1.0  0.02170  0.71171  0.22970  1.0000 -0.2390893333
N   N4        1.0  0.97830  0.21171  0.27030  1.0000 -0.2390893333
N   N5        1.0  0.31720  0.24370  0.96000  1.0000 -0.2300812498
N   N6        1.0  0.68280  0.74370  0.54000  1.0000 -0.2300812498
N   N7        1.0  0.68280  0.75630  0.04000  1.0000 -0.2300812498
N   N8        1.0  0.31720  0.25630  0.46000  1.0000 -0.2300812498
N   N9        1.0  0.93110  0.36060  0.99420  1.0000 -0.2300812498
N   N10       1.0  0.06890  0.86060  0.50580  1.0000 -0.2300812498
N   N11       1.0  0.06890  0.63940  0.00580  1.0000 -0.2300812498
N   N12       1.0  0.93110  0.13940  0.49420  1.0000 -0.2300812498
N   N13       1.0  0.28020  0.44050  0.01470  1.0000 -0.1961624965
N   N14       1.0  0.71980  0.94050  0.48530  1.0000 -0.1961624965
N   N15       1.0  0.71980  0.55950  0.98530  1.0000 -0.1961624965
N   N16       1.0  0.28020  0.05950  0.51470  1.0000 -0.1961624965
O   O1        1.0  0.53130  0.25031  0.69100  1.0000 -0.5834984154
O   O2        1.0  0.46870  0.75031  0.80900  1.0000 -0.5834984154
O   O3        1.0  0.46870  0.74969  0.30900  1.0000 -0.5834984154
O   O4        1.0  0.53130  0.24969  0.19100  1.0000 -0.5834984154
O   O5        1.0  0.89090  0.40034  0.64080  1.0000 -0.6880984575
O   O6        1.0  0.10910  0.90034  0.85920  1.0000 -0.6880984575
O   O7        1.0  0.10910  0.59966  0.35920  1.0000 -0.6880984575
O   O8        1.0  0.89090  0.09966  0.14080  1.0000 -0.6880984575
O   O9        1.0  0.63720  0.17331  0.79530  1.0000 -0.5277726621
O   O10       1.0  0.36280  0.67331  0.70470  1.0000 -0.5277726621
O   O11       1.0  0.36280  0.82669  0.20470  1.0000 -0.5277726621
O   O12       1.0  0.63720  0.32669  0.29530  1.0000 -0.5277726621
O   O13       1.0  0.46280  0.37500  0.44150  1.0000 -0.6629275054
O   O14       1.0  0.53720  0.87500  0.05850  1.0000 -0.6629275054
O   O15       1.0  0.53720  0.62500  0.55850  1.0000 -0.6629275054
O   O16       1.0  0.46280  0.12500  0.94150  1.0000 -0.6629275054
O   O17       1.0  0.18840  0.16276  0.06880  1.0000 -0.5584547192
O   O18       1.0  0.81160  0.66276  0.43120  1.0000 -0.5584547192
O   O19       1.0  0.81160  0.83724  0.93120  1.0000 -0.5584547192
O   O20       1.0  0.18840  0.33724  0.56880  1.0000 -0.5584547192
O   O21       1.0  0.83570  0.20643  0.02200  1.0000 -0.5584547192
O   O22       1.0  0.16430  0.70643  0.47800  1.0000 -0.5584547192
O   O23       1.0  0.16430  0.79357  0.97800  1.0000 -0.5584547192
O   O24       1.0  0.83570  0.29357  0.52200  1.0000 -0.5584547192
O   O25       1.0  0.49570  0.43780  0.85240  1.0000 -0.5385559768
O   O26       1.0  0.50430  0.93780  0.64760  1.0000 -0.5385559768
O   O27       1.0  0.50430  0.56220  0.14760  1.0000 -0.5385559768
O   O28       1.0  0.49570  0.06220  0.35240  1.0000 -0.5385559768
O   O29       1.0  0.59850  0.37314  0.75690  1.0000 -0.5864618987
O   O30       1.0  0.40150  0.87314  0.74310  1.0000 -0.5864618987
O   O31       1.0  0.40150  0.62686  0.24310  1.0000 -0.5864618987
O   O32       1.0  0.59850  0.12686  0.25690  1.0000 -0.5864618987
O   O33       1.0  0.86250  0.49520  0.77120  1.0000 -0.4842225284
O   O34       1.0  0.13750  0.99520  0.72880  1.0000 -0.4842225284
O   O35       1.0  0.13750  0.50480  0.22880  1.0000 -0.4842225284
O   O36       1.0  0.86250  0.00480  0.27120  1.0000 -0.4842225284
O   O37       1.0  0.20950  0.52840  0.88610  1.0000 -0.5048828096
O   O38       1.0  0.79050  0.02840  0.61390  1.0000 -0.5053911776
O   O39       1.0  0.79050  0.47160  0.11390  1.0000 -0.5053911776
O   O40       1.0  0.20950  0.97160  0.38610  1.0000 -0.5048828096
