# DDEC6 charges by PACMAN v1.1 (https://github.com/mtap-research/PACMAN-charge/)
data_2014[Cd][pyr]3[FSR]1
_chemical_formula_sum              "Cd4 H96 C120 N48"
_cell_length_a       17.542
_cell_length_b       17.542
_cell_length_c       17.542
_cell_angle_alpha    90
_cell_angle_beta     90
_cell_angle_gamma    90

_symmetry_space_group_name_H-M    "P 1"
_symmetry_Int_Tables_number       1

loop_
  _symmetry_equiv_pos_as_xyz
  'x, y, z'

loop_
  _atom_site_type_symbol
  _atom_site_label
  _atom_site_symmetry_multiplicity
  _atom_site_fract_x
  _atom_site_fract_y
  _atom_site_fract_z
  _atom_site_occupancy
  _atom_site_charge
Cd  Cd1       1.0  0.50000  0.50000  0.00000  1.0000 0.6970253229
Cd  Cd2       1.0  0.50000  0.00000  0.50000  1.0000 0.6970253229
Cd  Cd3       1.0  0.00000  0.50000  0.50000  1.0000 0.6970253229
Cd  Cd4       1.0  0.00000  0.00000  0.00000  1.0000 0.6970253229
H   H1        1.0  0.52800  0.67060  0.24440  1.0000 0.260124023
H   H2        1.0  0.67060  0.24440  0.52800  1.0000 0.260124023
H   H3        1.0  0.24440  0.52800  0.67060  1.0000 0.260124023
H   H4        1.0  0.17060  0.25560  0.47200  1.0000 0.260124023
H   H5        1.0  0.74440  0.97200  0.32940  1.0000 0.260124023
H   H6        1.0  0.75560  0.02800  0.82940  1.0000 0.260124023
H   H7        1.0  0.47200  0.17060  0.25560  1.0000 0.260124023
H   H8        1.0  0.32940  0.74440  0.97200  1.0000 0.260124023
H   H9        1.0  0.02800  0.82940  0.75560  1.0000 0.260124023
H   H10       1.0  0.97200  0.32940  0.74440  1.0000 0.260124023
H   H11       1.0  0.82940  0.75560  0.02800  1.0000 0.260124023
H   H12       1.0  0.25560  0.47200  0.17060  1.0000 0.260124023
H   H13       1.0  0.47200  0.32940  0.75560  1.0000 0.260124023
H   H14       1.0  0.32940  0.75560  0.47200  1.0000 0.260124023
H   H15       1.0  0.75560  0.47200  0.32940  1.0000 0.260124023
H   H16       1.0  0.82940  0.74440  0.52800  1.0000 0.260124023
H   H17       1.0  0.25560  0.02800  0.67060  1.0000 0.260124023
H   H18       1.0  0.24440  0.97200  0.17060  1.0000 0.260124023
H   H19       1.0  0.52800  0.82940  0.74440  1.0000 0.260124023
H   H20       1.0  0.67060  0.25560  0.02800  1.0000 0.260124023
H   H21       1.0  0.97200  0.17060  0.24440  1.0000 0.260124023
H   H22       1.0  0.02800  0.67060  0.25560  1.0000 0.260124023
H   H23       1.0  0.17060  0.24440  0.97200  1.0000 0.260124023
H   H24       1.0  0.74440  0.52800  0.82940  1.0000 0.260124023
H   H25       1.0  0.58580  0.77990  0.26740  1.0000 0.1003701865
H   H26       1.0  0.77990  0.26740  0.58580  1.0000 0.1003701865
H   H27       1.0  0.26740  0.58580  0.77990  1.0000 0.1003701865
H   H28       1.0  0.27990  0.23260  0.41420  1.0000 0.1003701865
H   H29       1.0  0.76740  0.91420  0.22010  1.0000 0.1003701865
H   H30       1.0  0.73260  0.08580  0.72010  1.0000 0.1003701865
H   H31       1.0  0.41420  0.27990  0.23260  1.0000 0.1003701865
H   H32       1.0  0.22010  0.76740  0.91420  1.0000 0.1003701865
H   H33       1.0  0.08580  0.72010  0.73260  1.0000 0.1003701865
H   H34       1.0  0.91420  0.22010  0.76740  1.0000 0.1003701865
H   H35       1.0  0.72010  0.73260  0.08580  1.0000 0.1003701865
H   H36       1.0  0.23260  0.41420  0.27990  1.0000 0.1003701865
H   H37       1.0  0.41420  0.22010  0.73260  1.0000 0.1003701865
H   H38       1.0  0.22010  0.73260  0.41420  1.0000 0.1003701865
H   H39       1.0  0.73260  0.41420  0.22010  1.0000 0.1003701865
H   H40       1.0  0.72010  0.76740  0.58580  1.0000 0.1003701865
H   H41       1.0  0.23260  0.08580  0.77990  1.0000 0.1003701865
H   H42       1.0  0.26740  0.91420  0.27990  1.0000 0.1003701865
H   H43       1.0  0.58580  0.72010  0.76740  1.0000 0.1003701865
H   H44       1.0  0.77990  0.23260  0.08580  1.0000 0.1003701865
H   H45       1.0  0.91420  0.27990  0.26740  1.0000 0.1003701865
H   H46       1.0  0.08580  0.77990  0.23260  1.0000 0.1003701865
H   H47       1.0  0.27990  0.26740  0.91420  1.0000 0.1003701865
H   H48       1.0  0.76740  0.58580  0.72010  1.0000 0.1003701865
H   H49       1.0  0.62860  0.64030  0.04900  1.0000 0.1148870298
H   H50       1.0  0.64030  0.04900  0.62860  1.0000 0.1148870298
H   H51       1.0  0.04900  0.62860  0.64030  1.0000 0.1148870298
H   H52       1.0  0.14030  0.45100  0.37140  1.0000 0.1148870298
H   H53       1.0  0.54900  0.87140  0.35970  1.0000 0.1148870298
H   H54       1.0  0.95100  0.12860  0.85970  1.0000 0.1148870298
H   H55       1.0  0.37140  0.14030  0.45100  1.0000 0.1148870298
H   H56       1.0  0.35970  0.54900  0.87140  1.0000 0.1148870298
H   H57       1.0  0.12860  0.85970  0.95100  1.0000 0.1148870298
H   H58       1.0  0.87140  0.35970  0.54900  1.0000 0.1148870298
H   H59       1.0  0.85970  0.95100  0.12860  1.0000 0.1148870298
H   H60       1.0  0.45100  0.37140  0.14030  1.0000 0.1148870298
H   H61       1.0  0.37140  0.35970  0.95100  1.0000 0.1148870298
H   H62       1.0  0.35970  0.95100  0.37140  1.0000 0.1148870298
H   H63       1.0  0.95100  0.37140  0.35970  1.0000 0.1148870298
H   H64       1.0  0.85970  0.54900  0.62860  1.0000 0.1148870298
H   H65       1.0  0.45100  0.12860  0.64030  1.0000 0.1148870298
H   H66       1.0  0.04900  0.87140  0.14030  1.0000 0.1148870298
H   H67       1.0  0.62860  0.85970  0.54900  1.0000 0.1148870298
H   H68       1.0  0.64030  0.45100  0.12860  1.0000 0.1148870298
H   H69       1.0  0.87140  0.14030  0.04900  1.0000 0.1148870298
H   H70       1.0  0.12860  0.64030  0.45100  1.0000 0.1148870298
H   H71       1.0  0.14030  0.04900  0.87140  1.0000 0.1148870298
H   H72       1.0  0.54900  0.62860  0.85970  1.0000 0.1148870298
H   H73       1.0  0.47050  0.56140  0.18500  1.0000 0.1003701865
H   H74       1.0  0.56140  0.18500  0.47050  1.0000 0.1003701865
H   H75       1.0  0.18500  0.47050  0.56140  1.0000 0.1003701865
H   H76       1.0  0.06140  0.31500  0.52950  1.0000 0.1003701865
H   H77       1.0  0.68500  0.02950  0.43860  1.0000 0.1003701865
H   H78       1.0  0.81500  0.97050  0.93860  1.0000 0.1003701865
H   H79       1.0  0.52950  0.06140  0.31500  1.0000 0.1003701865
H   H80       1.0  0.43860  0.68500  0.02950  1.0000 0.1003701865
H   H81       1.0  0.97050  0.93860  0.81500  1.0000 0.1003701865
H   H82       1.0  0.02950  0.43860  0.68500  1.0000 0.1003701865
H   H83       1.0  0.93860  0.81500  0.97050  1.0000 0.1003701865
H   H84       1.0  0.31500  0.52950  0.06140  1.0000 0.1003701865
H   H85       1.0  0.52950  0.43860  0.81500  1.0000 0.1003701865
H   H86       1.0  0.43860  0.81500  0.52950  1.0000 0.1003701865
H   H87       1.0  0.81500  0.52950  0.43860  1.0000 0.1003701865
H   H88       1.0  0.93860  0.68500  0.47050  1.0000 0.1003701865
H   H89       1.0  0.31500  0.97050  0.56140  1.0000 0.1003701865
H   H90       1.0  0.18500  0.02950  0.06140  1.0000 0.1003701865
H   H91       1.0  0.47050  0.93860  0.68500  1.0000 0.1003701865
H   H92       1.0  0.56140  0.31500  0.97050  1.0000 0.1003701865
H   H93       1.0  0.02950  0.06140  0.18500  1.0000 0.1003701865
H   H94       1.0  0.97050  0.56140  0.31500  1.0000 0.1003701865
H   H95       1.0  0.06140  0.18500  0.02950  1.0000 0.1003701865
H   H96       1.0  0.68500  0.47050  0.93860  1.0000 0.1003701865
C   C1        1.0  0.64470  0.74670  0.17280  1.0000 0.0607792608
C   C2        1.0  0.74670  0.17280  0.64470  1.0000 0.0607792608
C   C3        1.0  0.17280  0.64470  0.74670  1.0000 0.0607792608
C   C4        1.0  0.24670  0.32720  0.35530  1.0000 0.0607792608
C   C5        1.0  0.67280  0.85530  0.25330  1.0000 0.0607792608
C   C6        1.0  0.82720  0.14470  0.75330  1.0000 0.0607792608
C   C7        1.0  0.35530  0.24670  0.32720  1.0000 0.0607792608
C   C8        1.0  0.25330  0.67280  0.85530  1.0000 0.0607792608
C   C9        1.0  0.14470  0.75330  0.82720  1.0000 0.0607792608
C   C10       1.0  0.85530  0.25330  0.67280  1.0000 0.0607792608
C   C11       1.0  0.75330  0.82720  0.14470  1.0000 0.0607792608
C   C12       1.0  0.32720  0.35530  0.24670  1.0000 0.0607792608
C   C13       1.0  0.35530  0.25330  0.82720  1.0000 0.0607792608
C   C14       1.0  0.25330  0.82720  0.35530  1.0000 0.0607792608
C   C15       1.0  0.82720  0.35530  0.25330  1.0000 0.0607792608
C   C16       1.0  0.75330  0.67280  0.64470  1.0000 0.0607792608
C   C17       1.0  0.32720  0.14470  0.74670  1.0000 0.0607792608
C   C18       1.0  0.17280  0.85530  0.24670  1.0000 0.0607792608
C   C19       1.0  0.64470  0.75330  0.67280  1.0000 0.0607792608
C   C20       1.0  0.74670  0.32720  0.14470  1.0000 0.0607792608
C   C21       1.0  0.85530  0.24670  0.17280  1.0000 0.0607792608
C   C22       1.0  0.14470  0.74670  0.32720  1.0000 0.0607792608
C   C23       1.0  0.24670  0.17280  0.85530  1.0000 0.0607792608
C   C24       1.0  0.67280  0.64470  0.75330  1.0000 0.0607792608
C   C25       1.0  0.62810  0.79220  0.23590  1.0000 -0.225602724
C   C26       1.0  0.79220  0.23590  0.62810  1.0000 -0.225602724
C   C27       1.0  0.23590  0.62810  0.79220  1.0000 -0.225602724
C   C28       1.0  0.29220  0.26410  0.37190  1.0000 -0.225602724
C   C29       1.0  0.73590  0.87190  0.20780  1.0000 -0.225602724
C   C30       1.0  0.76410  0.12810  0.70780  1.0000 -0.225602724
C   C31       1.0  0.37190  0.29220  0.26410  1.0000 -0.225602724
C   C32       1.0  0.20780  0.73590  0.87190  1.0000 -0.225602724
C   C33       1.0  0.12810  0.70780  0.76410  1.0000 -0.225602724
C   C34       1.0  0.87190  0.20780  0.73590  1.0000 -0.225602724
C   C35       1.0  0.70780  0.76410  0.12810  1.0000 -0.225602724
C   C36       1.0  0.26410  0.37190  0.29220  1.0000 -0.225602724
C   C37       1.0  0.37190  0.20780  0.76410  1.0000 -0.225602724
C   C38       1.0  0.20780  0.76410  0.37190  1.0000 -0.225602724
C   C39       1.0  0.76410  0.37190  0.20780  1.0000 -0.225602724
C   C40       1.0  0.70780  0.73590  0.62810  1.0000 -0.225602724
C   C41       1.0  0.26410  0.12810  0.79220  1.0000 -0.225602724
C   C42       1.0  0.23590  0.87190  0.29220  1.0000 -0.225602724
C   C43       1.0  0.62810  0.70780  0.73590  1.0000 -0.225602724
C   C44       1.0  0.79220  0.26410  0.12810  1.0000 -0.225602724
C   C45       1.0  0.87190  0.29220  0.23590  1.0000 -0.225602724
C   C46       1.0  0.12810  0.79220  0.26410  1.0000 -0.225602724
C   C47       1.0  0.29220  0.23590  0.87190  1.0000 -0.225602724
C   C48       1.0  0.73590  0.62810  0.70780  1.0000 -0.225602724
C   C49       1.0  0.59790  0.68010  0.15420  1.0000 0.0797701046
C   C50       1.0  0.68010  0.15420  0.59790  1.0000 0.0797701046
C   C51       1.0  0.15420  0.59790  0.68010  1.0000 0.0797701046
C   C52       1.0  0.18010  0.34580  0.40210  1.0000 0.0797701046
C   C53       1.0  0.65420  0.90210  0.31990  1.0000 0.0797701046
C   C54       1.0  0.84580  0.09790  0.81990  1.0000 0.0797701046
C   C55       1.0  0.40210  0.18010  0.34580  1.0000 0.0797701046
C   C56       1.0  0.31990  0.65420  0.90210  1.0000 0.0797701046
C   C57       1.0  0.09790  0.81990  0.84580  1.0000 0.0797701046
C   C58       1.0  0.90210  0.31990  0.65420  1.0000 0.0797701046
C   C59       1.0  0.81990  0.84580  0.09790  1.0000 0.0797701046
C   C60       1.0  0.34580  0.40210  0.18010  1.0000 0.0797701046
C   C61       1.0  0.40210  0.31990  0.84580  1.0000 0.0797701046
C   C62       1.0  0.31990  0.84580  0.40210  1.0000 0.0797701046
C   C63       1.0  0.84580  0.40210  0.31990  1.0000 0.0797701046
C   C64       1.0  0.81990  0.65420  0.59790  1.0000 0.0797701046
C   C65       1.0  0.34580  0.09790  0.68010  1.0000 0.0797701046
C   C66       1.0  0.15420  0.90210  0.18010  1.0000 0.0797701046
C   C67       1.0  0.59790  0.81990  0.65420  1.0000 0.0797701046
C   C68       1.0  0.68010  0.34580  0.09790  1.0000 0.0797701046
C   C69       1.0  0.90210  0.18010  0.15420  1.0000 0.0797701046
C   C70       1.0  0.09790  0.68010  0.34580  1.0000 0.0797701046
C   C71       1.0  0.18010  0.15420  0.90210  1.0000 0.0797701046
C   C72       1.0  0.65420  0.59790  0.81990  1.0000 0.0797701046
C   C73       1.0  0.59610  0.63450  0.09190  1.0000 -0.1321666226
C   C74       1.0  0.63450  0.09190  0.59610  1.0000 -0.1321666226
C   C75       1.0  0.09190  0.59610  0.63450  1.0000 -0.1321666226
C   C76       1.0  0.13450  0.40810  0.40390  1.0000 -0.1321666226
C   C77       1.0  0.59190  0.90390  0.36550  1.0000 -0.1321666226
C   C78       1.0  0.90810  0.09610  0.86550  1.0000 -0.1321666226
C   C79       1.0  0.40390  0.13450  0.40810  1.0000 -0.1321666226
C   C80       1.0  0.36550  0.59190  0.90390  1.0000 -0.1321666226
C   C81       1.0  0.09610  0.86550  0.90810  1.0000 -0.1321666226
C   C82       1.0  0.90390  0.36550  0.59190  1.0000 -0.1321666226
C   C83       1.0  0.86550  0.90810  0.09610  1.0000 -0.1321666226
C   C84       1.0  0.40810  0.40390  0.13450  1.0000 -0.1321666226
C   C85       1.0  0.40390  0.36550  0.90810  1.0000 -0.1321666226
C   C86       1.0  0.36550  0.90810  0.40390  1.0000 -0.1321666226
C   C87       1.0  0.90810  0.40390  0.36550  1.0000 -0.1321666226
C   C88       1.0  0.86550  0.59190  0.59610  1.0000 -0.1321666226
C   C89       1.0  0.40810  0.09610  0.63450  1.0000 -0.1321666226
C   C90       1.0  0.09190  0.90390  0.13450  1.0000 -0.1321666226
C   C91       1.0  0.59610  0.86550  0.59190  1.0000 -0.1321666226
C   C92       1.0  0.63450  0.40810  0.09610  1.0000 -0.1321666226
C   C93       1.0  0.90390  0.13450  0.09190  1.0000 -0.1321666226
C   C94       1.0  0.09610  0.63450  0.40810  1.0000 -0.1321666226
C   C95       1.0  0.13450  0.09190  0.90390  1.0000 -0.1321666226
C   C96       1.0  0.59190  0.59610  0.86550  1.0000 -0.1321666226
C   C97       1.0  0.51050  0.59150  0.16440  1.0000 0.0682988036
C   C98       1.0  0.59150  0.16440  0.51050  1.0000 0.0682988036
C   C99       1.0  0.16440  0.51050  0.59150  1.0000 0.0682988036
C   C100      1.0  0.09150  0.33560  0.48950  1.0000 0.0682988036
C   C101      1.0  0.66440  0.98950  0.40850  1.0000 0.0682988036
C   C102      1.0  0.83560  0.01050  0.90850  1.0000 0.0682988036
C   C103      1.0  0.48950  0.09150  0.33560  1.0000 0.0682988036
C   C104      1.0  0.40850  0.66440  0.98950  1.0000 0.0682988036
C   C105      1.0  0.01050  0.90850  0.83560  1.0000 0.0682988036
C   C106      1.0  0.98950  0.40850  0.66440  1.0000 0.0682988036
C   C107      1.0  0.90850  0.83560  0.01050  1.0000 0.0682988036
C   C108      1.0  0.33560  0.48950  0.09150  1.0000 0.0682988036
C   C109      1.0  0.48950  0.40850  0.83560  1.0000 0.0682988036
C   C110      1.0  0.40850  0.83560  0.48950  1.0000 0.0682988036
C   C111      1.0  0.83560  0.48950  0.40850  1.0000 0.0682988036
C   C112      1.0  0.90850  0.66440  0.51050  1.0000 0.0682988036
C   C113      1.0  0.33560  0.01050  0.59150  1.0000 0.0682988036
C   C114      1.0  0.16440  0.98950  0.09150  1.0000 0.0682988036
C   C115      1.0  0.51050  0.90850  0.66440  1.0000 0.0682988036
C   C116      1.0  0.59150  0.33560  0.01050  1.0000 0.0682988036
C   C117      1.0  0.98950  0.09150  0.16440  1.0000 0.0682988036
C   C118      1.0  0.01050  0.59150  0.33560  1.0000 0.0682988036
C   C119      1.0  0.09150  0.16440  0.98950  1.0000 0.0682988036
C   C120      1.0  0.66440  0.51050  0.90850  1.0000 0.0682988036
N   N1        1.0  0.54160  0.65220  0.19970  1.0000 -0.2489996556
N   N2        1.0  0.65220  0.19970  0.54160  1.0000 -0.2489996556
N   N3        1.0  0.19970  0.54160  0.65220  1.0000 -0.2489996556
N   N4        1.0  0.15220  0.30030  0.45840  1.0000 -0.2489996556
N   N5        1.0  0.69970  0.95840  0.34780  1.0000 -0.2489996556
N   N6        1.0  0.80030  0.04160  0.84780  1.0000 -0.2489996556
N   N7        1.0  0.45840  0.15220  0.30030  1.0000 -0.2489996556
N   N8        1.0  0.34780  0.69970  0.95840  1.0000 -0.2489996556
N   N9        1.0  0.04160  0.84780  0.80030  1.0000 -0.2489996556
N   N10       1.0  0.95840  0.34780  0.69970  1.0000 -0.2489996556
N   N11       1.0  0.84780  0.80030  0.04160  1.0000 -0.2489996556
N   N12       1.0  0.30030  0.45840  0.15220  1.0000 -0.2489996556
N   N13       1.0  0.45840  0.34780  0.80030  1.0000 -0.2489996556
N   N14       1.0  0.34780  0.80030  0.45840  1.0000 -0.2489996556
N   N15       1.0  0.80030  0.45840  0.34780  1.0000 -0.2489996556
N   N16       1.0  0.84780  0.69970  0.54160  1.0000 -0.2489996556
N   N17       1.0  0.30030  0.04160  0.65220  1.0000 -0.2489996556
N   N18       1.0  0.19970  0.95840  0.15220  1.0000 -0.2489996556
N   N19       1.0  0.54160  0.84780  0.69970  1.0000 -0.2489996556
N   N20       1.0  0.65220  0.30030  0.04160  1.0000 -0.2489996556
N   N21       1.0  0.95840  0.15220  0.19970  1.0000 -0.2489996556
N   N22       1.0  0.04160  0.65220  0.30030  1.0000 -0.2489996556
N   N23       1.0  0.15220  0.19970  0.95840  1.0000 -0.2489996556
N   N24       1.0  0.69970  0.54160  0.84780  1.0000 -0.2489996556
N   N25       1.0  0.54200  0.57940  0.09840  1.0000 -0.2935154597
N   N26       1.0  0.57940  0.09840  0.54200  1.0000 -0.2935154597
N   N27       1.0  0.09840  0.54200  0.57940  1.0000 -0.2935154597
N   N28       1.0  0.07940  0.40160  0.45800  1.0000 -0.2954595397
N   N29       1.0  0.59840  0.95800  0.42060  1.0000 -0.2935154597
N   N30       1.0  0.90160  0.04200  0.92060  1.0000 -0.2935154597
N   N31       1.0  0.45800  0.07940  0.40160  1.0000 -0.2954595397
N   N32       1.0  0.42060  0.59840  0.95800  1.0000 -0.2935154597
N   N33       1.0  0.04200  0.92060  0.90160  1.0000 -0.2935154597
N   N34       1.0  0.95800  0.42060  0.59840  1.0000 -0.2935154597
N   N35       1.0  0.92060  0.90160  0.04200  1.0000 -0.2935154597
N   N36       1.0  0.40160  0.45800  0.07940  1.0000 -0.2954595397
N   N37       1.0  0.45800  0.42060  0.90160  1.0000 -0.2935154597
N   N38       1.0  0.42060  0.90160  0.45800  1.0000 -0.2935154597
N   N39       1.0  0.90160  0.45800  0.42060  1.0000 -0.2935154597
N   N40       1.0  0.92060  0.59840  0.54200  1.0000 -0.2935154597
N   N41       1.0  0.40160  0.04200  0.57940  1.0000 -0.2954595397
N   N42       1.0  0.09840  0.95800  0.07940  1.0000 -0.2935154597
N   N43       1.0  0.54200  0.92060  0.59840  1.0000 -0.2935154597
N   N44       1.0  0.57940  0.40160  0.04200  1.0000 -0.2954595397
N   N45       1.0  0.95800  0.07940  0.09840  1.0000 -0.2935154597
N   N46       1.0  0.04200  0.57940  0.40160  1.0000 -0.2954595397
N   N47       1.0  0.07940  0.09840  0.95800  1.0000 -0.2935154597
N   N48       1.0  0.59840  0.54200  0.92060  1.0000 -0.2935154597
