# DDEC6 charges by PACMAN v1.1 (https://github.com/mtap-research/PACMAN-charge/)
data_2014[Zn][srs]3[FSR]2
_chemical_formula_sum              "Zn24 H192 C288 I48 N96"
_cell_length_a       13.8353
_cell_length_b       27.5504
_cell_length_c       44.5398
_cell_angle_alpha    90
_cell_angle_beta     90
_cell_angle_gamma    90

_symmetry_space_group_name_H-M    "P 1"
_symmetry_Int_Tables_number       1

loop_
  _symmetry_equiv_pos_as_xyz
  'x, y, z'

loop_
  _atom_site_type_symbol
  _atom_site_label
  _atom_site_symmetry_multiplicity
  _atom_site_fract_x
  _atom_site_fract_y
  _atom_site_fract_z
  _atom_site_occupancy
  _atom_site_charge
Zn  Zn1       1.0  0.67407  0.73991  0.67879  1.0000 0.4557944716
Zn  Zn2       1.0  0.32593  0.76009  0.17879  1.0000 0.4548173786
Zn  Zn3       1.0  0.82593  0.23991  0.32121  1.0000 0.4557944716
Zn  Zn4       1.0  0.17407  0.26009  0.82121  1.0000 0.4557944716
Zn  Zn5       1.0  0.87545  0.52228  0.58477  1.0000 0.4428694711
Zn  Zn6       1.0  0.12455  0.97772  0.08477  1.0000 0.4428694711
Zn  Zn7       1.0  0.62455  0.02228  0.41523  1.0000 0.4428694711
Zn  Zn8       1.0  0.37545  0.47772  0.91523  1.0000 0.4428694711
Zn  Zn9       1.0  0.84444  0.04602  0.58434  1.0000 0.4236280002
Zn  Zn10      1.0  0.15556  0.45398  0.08434  1.0000 0.4236280002
Zn  Zn11      1.0  0.65556  0.54602  0.41566  1.0000 0.4236280002
Zn  Zn12      1.0  0.34444  0.95398  0.91566  1.0000 0.4236280002
Zn  Zn13      1.0  0.32593  0.26009  0.32121  1.0000 0.4548173786
Zn  Zn14      1.0  0.67407  0.23991  0.82121  1.0000 0.4557944716
Zn  Zn15      1.0  0.17407  0.76009  0.67879  1.0000 0.4548173786
Zn  Zn16      1.0  0.82593  0.73991  0.17879  1.0000 0.4557944716
Zn  Zn17      1.0  0.12455  0.47772  0.41523  1.0000 0.4428694711
Zn  Zn18      1.0  0.87545  0.02228  0.91523  1.0000 0.4428694711
Zn  Zn19      1.0  0.37545  0.97772  0.58477  1.0000 0.4428694711
Zn  Zn20      1.0  0.62455  0.52228  0.08477  1.0000 0.4428694711
Zn  Zn21      1.0  0.15556  0.95398  0.41566  1.0000 0.4236280002
Zn  Zn22      1.0  0.84444  0.54602  0.91566  1.0000 0.4236280002
Zn  Zn23      1.0  0.34444  0.45398  0.58434  1.0000 0.4236280002
Zn  Zn24      1.0  0.65556  0.04602  0.08434  1.0000 0.4236280002
H   H1        1.0  0.89680  0.41640  0.57020  1.0000 0.1081730849
H   H2        1.0  0.10320  0.08360  0.07020  1.0000 0.1081730849
H   H3        1.0  0.60320  0.91640  0.42980  1.0000 0.1081730849
H   H4        1.0  0.39680  0.58360  0.92980  1.0000 0.1081730849
H   H5        1.0  0.90300  0.22500  0.59160  1.0000 0.1373078615
H   H6        1.0  0.09700  0.27500  0.09160  1.0000 0.1373078615
H   H7        1.0  0.59700  0.72500  0.40840  1.0000 0.1373078615
H   H8        1.0  0.40300  0.77500  0.90840  1.0000 0.1373078615
H   H9        1.0  0.96130  0.41470  0.67120  1.0000 0.131146395
H   H10       1.0  0.03870  0.08530  0.17120  1.0000 0.131146395
H   H11       1.0  0.53870  0.91470  0.32880  1.0000 0.131146395
H   H12       1.0  0.46130  0.58530  0.82880  1.0000 0.131146395
H   H13       1.0  0.96570  0.14980  0.66730  1.0000 0.131146395
H   H14       1.0  0.03430  0.35020  0.16730  1.0000 0.131146395
H   H15       1.0  0.53430  0.64980  0.33270  1.0000 0.131146395
H   H16       1.0  0.46570  0.85020  0.83270  1.0000 0.131146395
H   H17       1.0  0.46500  0.72080  0.66380  1.0000 0.1017420741
H   H18       1.0  0.53500  0.77920  0.16380  1.0000 0.1017420741
H   H19       1.0  0.03500  0.22080  0.33620  1.0000 0.1017420741
H   H20       1.0  0.96500  0.27920  0.83620  1.0000 0.1017420741
H   H21       1.0  0.93490  0.07960  0.64160  1.0000 0.1017420741
H   H22       1.0  0.06510  0.42040  0.14160  1.0000 0.1017420741
H   H23       1.0  0.56510  0.57960  0.35840  1.0000 0.1017420741
H   H24       1.0  0.43490  0.92040  0.85840  1.0000 0.1017420741
H   H25       1.0  0.45840  0.53280  0.44130  1.0000 0.1017420741
H   H26       1.0  0.54160  0.96720  0.94130  1.0000 0.1017420741
H   H27       1.0  0.04160  0.03280  0.55870  1.0000 0.1017420741
H   H28       1.0  0.95840  0.46720  0.05870  1.0000 0.1017420741
H   H29       1.0  0.37200  0.55500  0.48370  1.0000 0.131146395
H   H30       1.0  0.62800  0.94500  0.98370  1.0000 0.131146395
H   H31       1.0  0.12800  0.05500  0.51630  1.0000 0.131146395
H   H32       1.0  0.87200  0.44500  0.01630  1.0000 0.131146395
H   H33       1.0  0.91980  0.34220  0.59420  1.0000 0.131146395
H   H34       1.0  0.08020  0.15780  0.09420  1.0000 0.131146395
H   H35       1.0  0.58020  0.84220  0.40580  1.0000 0.131146395
H   H36       1.0  0.41980  0.65780  0.90580  1.0000 0.131146395
H   H37       1.0  0.70430  0.56410  0.48120  1.0000 0.1017420741
H   H38       1.0  0.29570  0.93590  0.98120  1.0000 0.1017420741
H   H39       1.0  0.79570  0.06410  0.51880  1.0000 0.1017420741
H   H40       1.0  0.20430  0.43590  0.01880  1.0000 0.1017420741
H   H41       1.0  0.93050  0.48590  0.64680  1.0000 0.1081730849
H   H42       1.0  0.06950  0.01410  0.14680  1.0000 0.1081730849
H   H43       1.0  0.56950  0.98590  0.35320  1.0000 0.1081730849
H   H44       1.0  0.43050  0.51410  0.85320  1.0000 0.1081730849
H   H45       1.0  0.01850  0.52920  0.53340  1.0000 0.1081730849
H   H46       1.0  0.98150  0.97080  0.03340  1.0000 0.1081730849
H   H47       1.0  0.48150  0.02920  0.46660  1.0000 0.1081730849
H   H48       1.0  0.51850  0.47080  0.96660  1.0000 0.1081730849
H   H49       1.0  0.87010  0.15360  0.56860  1.0000 0.1081730849
H   H50       1.0  0.12990  0.34640  0.06860  1.0000 0.1081730849
H   H51       1.0  0.62990  0.65360  0.43140  1.0000 0.1081730849
H   H52       1.0  0.37010  0.84640  0.93140  1.0000 0.1081730849
H   H53       1.0  0.02550  0.58180  0.61550  1.0000 0.1081730849
H   H54       1.0  0.97450  0.91820  0.11550  1.0000 0.1081730849
H   H55       1.0  0.47450  0.08180  0.38450  1.0000 0.1081730849
H   H56       1.0  0.52550  0.41820  0.88450  1.0000 0.1081730849
H   H57       1.0  0.17380  0.55410  0.52460  1.0000 0.131146395
H   H58       1.0  0.82620  0.94590  0.02460  1.0000 0.131146395
H   H59       1.0  0.32620  0.05410  0.47540  1.0000 0.131146395
H   H60       1.0  0.67380  0.44590  0.97540  1.0000 0.131146395
H   H61       1.0  0.18100  0.61080  0.60790  1.0000 0.131146395
H   H62       1.0  0.81900  0.88920  0.10790  1.0000 0.131146395
H   H63       1.0  0.31900  0.11080  0.39210  1.0000 0.131146395
H   H64       1.0  0.68100  0.38920  0.89210  1.0000 0.131146395
H   H65       1.0  0.62180  0.63440  0.59000  1.0000 0.131146395
H   H66       1.0  0.37820  0.86560  0.09000  1.0000 0.131146395
H   H67       1.0  0.87820  0.13440  0.41000  1.0000 0.131146395
H   H68       1.0  0.12180  0.36560  0.91000  1.0000 0.131146395
H   H69       1.0  0.62660  0.58530  0.52420  1.0000 0.1373078615
H   H70       1.0  0.37340  0.91470  0.02420  1.0000 0.1373078615
H   H71       1.0  0.87340  0.08530  0.47580  1.0000 0.1373078615
H   H72       1.0  0.12660  0.41470  0.97580  1.0000 0.1373078615
H   H73       1.0  0.37350  0.68100  0.62610  1.0000 0.131146395
H   H74       1.0  0.62650  0.81900  0.12610  1.0000 0.131146395
H   H75       1.0  0.12650  0.18100  0.37390  1.0000 0.131146395
H   H76       1.0  0.87350  0.31900  0.87390  1.0000 0.131146395
H   H77       1.0  0.70620  0.66860  0.62910  1.0000 0.1081730849
H   H78       1.0  0.29380  0.83140  0.12910  1.0000 0.1081730849
H   H79       1.0  0.79380  0.16860  0.37090  1.0000 0.1081730849
H   H80       1.0  0.20620  0.33140  0.87090  1.0000 0.1081730849
H   H81       1.0  0.05400  0.34830  0.73100  1.0000 0.1373078615
H   H82       1.0  0.94600  0.15170  0.23100  1.0000 0.1373078615
H   H83       1.0  0.44600  0.84830  0.26900  1.0000 0.1373078615
H   H84       1.0  0.55400  0.65170  0.76900  1.0000 0.1373078615
H   H85       1.0  0.00240  0.20370  0.72860  1.0000 0.131146395
H   H86       1.0  0.99760  0.29630  0.22860  1.0000 0.131146395
H   H87       1.0  0.49760  0.70370  0.27140  1.0000 0.131146395
H   H88       1.0  0.50240  0.79630  0.77140  1.0000 0.131146395
H   H89       1.0  0.06380  0.19820  0.77700  1.0000 0.1017420741
H   H90       1.0  0.93620  0.30180  0.27700  1.0000 0.1017420741
H   H91       1.0  0.43620  0.69820  0.22300  1.0000 0.1017420741
H   H92       1.0  0.56380  0.80180  0.72300  1.0000 0.1017420741
H   H93       1.0  0.11760  0.33920  0.77820  1.0000 0.1160535083
H   H94       1.0  0.88240  0.16080  0.27820  1.0000 0.1160535083
H   H95       1.0  0.38240  0.83920  0.22180  1.0000 0.1160535083
H   H96       1.0  0.61760  0.66080  0.72180  1.0000 0.1160535083
H   H97       1.0  0.10320  0.58360  0.42980  1.0000 0.1081730849
H   H98       1.0  0.89680  0.91640  0.92980  1.0000 0.1081730849
H   H99       1.0  0.39680  0.08360  0.57020  1.0000 0.1081730849
H   H100      1.0  0.60320  0.41640  0.07020  1.0000 0.1081730849
H   H101      1.0  0.09700  0.77500  0.40840  1.0000 0.1373078615
H   H102      1.0  0.90300  0.72500  0.90840  1.0000 0.1373078615
H   H103      1.0  0.40300  0.27500  0.59160  1.0000 0.1373078615
H   H104      1.0  0.59700  0.22500  0.09160  1.0000 0.1373078615
H   H105      1.0  0.03870  0.58530  0.32880  1.0000 0.131146395
H   H106      1.0  0.96130  0.91470  0.82880  1.0000 0.131146395
H   H107      1.0  0.46130  0.08530  0.67120  1.0000 0.131146395
H   H108      1.0  0.53870  0.41470  0.17120  1.0000 0.131146395
H   H109      1.0  0.03430  0.85020  0.33270  1.0000 0.131146395
H   H110      1.0  0.96570  0.64980  0.83270  1.0000 0.131146395
H   H111      1.0  0.46570  0.35020  0.66730  1.0000 0.131146395
H   H112      1.0  0.53430  0.14980  0.16730  1.0000 0.131146395
H   H113      1.0  0.53500  0.27920  0.33620  1.0000 0.1017420741
H   H114      1.0  0.46500  0.22080  0.83620  1.0000 0.1017420741
H   H115      1.0  0.96500  0.77920  0.66380  1.0000 0.1017420741
H   H116      1.0  0.03500  0.72080  0.16380  1.0000 0.1017420741
H   H117      1.0  0.06510  0.92040  0.35840  1.0000 0.1017420741
H   H118      1.0  0.93490  0.57960  0.85840  1.0000 0.1017420741
H   H119      1.0  0.43490  0.42040  0.64160  1.0000 0.1017420741
H   H120      1.0  0.56510  0.07960  0.14160  1.0000 0.1017420741
H   H121      1.0  0.54160  0.46720  0.55870  1.0000 0.1017420741
H   H122      1.0  0.45840  0.03280  0.05870  1.0000 0.1017420741
H   H123      1.0  0.95840  0.96720  0.44130  1.0000 0.1017420741
H   H124      1.0  0.04160  0.53280  0.94130  1.0000 0.1017420741
H   H125      1.0  0.62800  0.44500  0.51630  1.0000 0.131146395
H   H126      1.0  0.37200  0.05500  0.01630  1.0000 0.131146395
H   H127      1.0  0.87200  0.94500  0.48370  1.0000 0.131146395
H   H128      1.0  0.12800  0.55500  0.98370  1.0000 0.131146395
H   H129      1.0  0.08020  0.65780  0.40580  1.0000 0.131146395
H   H130      1.0  0.91980  0.84220  0.90580  1.0000 0.131146395
H   H131      1.0  0.41980  0.15780  0.59420  1.0000 0.131146395
H   H132      1.0  0.58020  0.34220  0.09420  1.0000 0.131146395
H   H133      1.0  0.29570  0.43590  0.51880  1.0000 0.1017420741
H   H134      1.0  0.70430  0.06410  0.01880  1.0000 0.1017420741
H   H135      1.0  0.20430  0.93590  0.48120  1.0000 0.1017420741
H   H136      1.0  0.79570  0.56410  0.98120  1.0000 0.1017420741
H   H137      1.0  0.06950  0.51410  0.35320  1.0000 0.1081730849
H   H138      1.0  0.93050  0.98590  0.85320  1.0000 0.1081730849
H   H139      1.0  0.43050  0.01410  0.64680  1.0000 0.1081730849
H   H140      1.0  0.56950  0.48590  0.14680  1.0000 0.1081730849
H   H141      1.0  0.98150  0.47080  0.46660  1.0000 0.1081730849
H   H142      1.0  0.01850  0.02920  0.96660  1.0000 0.1081730849
H   H143      1.0  0.51850  0.97080  0.53340  1.0000 0.1081730849
H   H144      1.0  0.48150  0.52920  0.03340  1.0000 0.1081730849
H   H145      1.0  0.12990  0.84640  0.43140  1.0000 0.1081730849
H   H146      1.0  0.87010  0.65360  0.93140  1.0000 0.1081730849
H   H147      1.0  0.37010  0.34640  0.56860  1.0000 0.1081730849
H   H148      1.0  0.62990  0.15360  0.06860  1.0000 0.1081730849
H   H149      1.0  0.97450  0.41820  0.38450  1.0000 0.1081730849
H   H150      1.0  0.02550  0.08180  0.88450  1.0000 0.1081730849
H   H151      1.0  0.52550  0.91820  0.61550  1.0000 0.1081730849
H   H152      1.0  0.47450  0.58180  0.11550  1.0000 0.1081730849
H   H153      1.0  0.82620  0.44590  0.47540  1.0000 0.131146395
H   H154      1.0  0.17380  0.05410  0.97540  1.0000 0.131146395
H   H155      1.0  0.67380  0.94590  0.52460  1.0000 0.131146395
H   H156      1.0  0.32620  0.55410  0.02460  1.0000 0.131146395
H   H157      1.0  0.81900  0.38920  0.39210  1.0000 0.131146395
H   H158      1.0  0.18100  0.11080  0.89210  1.0000 0.131146395
H   H159      1.0  0.68100  0.88920  0.60790  1.0000 0.131146395
H   H160      1.0  0.31900  0.61080  0.10790  1.0000 0.131146395
H   H161      1.0  0.37820  0.36560  0.41000  1.0000 0.131146395
H   H162      1.0  0.62180  0.13440  0.91000  1.0000 0.131146395
H   H163      1.0  0.12180  0.86560  0.59000  1.0000 0.131146395
H   H164      1.0  0.87820  0.63440  0.09000  1.0000 0.131146395
H   H165      1.0  0.37340  0.41470  0.47580  1.0000 0.1373078615
H   H166      1.0  0.62660  0.08530  0.97580  1.0000 0.1373078615
H   H167      1.0  0.12660  0.91470  0.52420  1.0000 0.1373078615
H   H168      1.0  0.87340  0.58530  0.02420  1.0000 0.1373078615
H   H169      1.0  0.62650  0.31900  0.37390  1.0000 0.131146395
H   H170      1.0  0.37350  0.18100  0.87390  1.0000 0.131146395
H   H171      1.0  0.87350  0.81900  0.62610  1.0000 0.131146395
H   H172      1.0  0.12650  0.68100  0.12610  1.0000 0.131146395
H   H173      1.0  0.29380  0.33140  0.37090  1.0000 0.1081730849
H   H174      1.0  0.70620  0.16860  0.87090  1.0000 0.1081730849
H   H175      1.0  0.20620  0.83140  0.62910  1.0000 0.1081730849
H   H176      1.0  0.79380  0.66860  0.12910  1.0000 0.1081730849
H   H177      1.0  0.94600  0.65170  0.26900  1.0000 0.1373078615
H   H178      1.0  0.05400  0.84830  0.76900  1.0000 0.1373078615
H   H179      1.0  0.55400  0.15170  0.73100  1.0000 0.1373078615
H   H180      1.0  0.44600  0.34830  0.23100  1.0000 0.1373078615
H   H181      1.0  0.99760  0.79630  0.27140  1.0000 0.131146395
H   H182      1.0  0.00240  0.70370  0.77140  1.0000 0.131146395
H   H183      1.0  0.50240  0.29630  0.72860  1.0000 0.131146395
H   H184      1.0  0.49760  0.20370  0.22860  1.0000 0.131146395
H   H185      1.0  0.93620  0.80180  0.22300  1.0000 0.1017420741
H   H186      1.0  0.06380  0.69820  0.72300  1.0000 0.1017420741
H   H187      1.0  0.56380  0.30180  0.77700  1.0000 0.1017420741
H   H188      1.0  0.43620  0.19820  0.27700  1.0000 0.1017420741
H   H189      1.0  0.88240  0.66080  0.22180  1.0000 0.1160535083
H   H190      1.0  0.11760  0.83920  0.72180  1.0000 0.1160535083
H   H191      1.0  0.61760  0.16080  0.77820  1.0000 0.1160535083
H   H192      1.0  0.38240  0.33920  0.27820  1.0000 0.1160535083
C   C1        1.0  0.90830  0.41610  0.59123  1.0000 0.1017420741
C   C2        1.0  0.09170  0.08390  0.09123  1.0000 0.1017420741
C   C3        1.0  0.59170  0.91610  0.40877  1.0000 0.1017420741
C   C4        1.0  0.40830  0.58390  0.90877  1.0000 0.1017420741
C   C5        1.0  0.90860  0.19550  0.60247  1.0000 -0.1593331549
C   C6        1.0  0.09140  0.30450  0.10247  1.0000 -0.1593331549
C   C7        1.0  0.59140  0.69550  0.39753  1.0000 -0.1593331549
C   C8        1.0  0.40860  0.80450  0.89753  1.0000 -0.1593331549
C   C9        1.0  0.95310  0.24150  0.64922  1.0000 0.3580794871
C   C10       1.0  0.04690  0.25850  0.14922  1.0000 0.3580794871
C   C11       1.0  0.54690  0.74150  0.35078  1.0000 0.3580794871
C   C12       1.0  0.45310  0.75850  0.85078  1.0000 0.3580794871
C   C13       1.0  0.94580  0.41410  0.65043  1.0000 -0.1517446734
C   C14       1.0  0.05420  0.08590  0.15043  1.0000 -0.1517446734
C   C15       1.0  0.55420  0.91410  0.34957  1.0000 -0.1517446734
C   C16       1.0  0.44580  0.58590  0.84957  1.0000 -0.1517446734
C   C17       1.0  0.99140  0.28010  0.69214  1.0000 0.3684622127
C   C18       1.0  0.00860  0.21990  0.19214  1.0000 0.3684622127
C   C19       1.0  0.50860  0.78010  0.30786  1.0000 0.3684622127
C   C20       1.0  0.49140  0.71990  0.80786  1.0000 0.3684622127
C   C21       1.0  0.93730  0.19610  0.63274  1.0000 0.0586591537
C   C22       1.0  0.06270  0.30390  0.13274  1.0000 0.0586591537
C   C23       1.0  0.56270  0.69610  0.36726  1.0000 0.0586591537
C   C24       1.0  0.43730  0.80390  0.86726  1.0000 0.0586591537
C   C25       1.0  0.94060  0.37020  0.63555  1.0000 0.0586591537
C   C26       1.0  0.05940  0.12980  0.13555  1.0000 0.0586591537
C   C27       1.0  0.55940  0.87020  0.36445  1.0000 0.0586591537
C   C28       1.0  0.44060  0.62980  0.86445  1.0000 0.0586591537
C   C29       1.0  0.94600  0.15140  0.64686  1.0000 -0.1593331549
C   C30       1.0  0.05400  0.34860  0.14686  1.0000 -0.1593331549
C   C31       1.0  0.55400  0.65140  0.35314  1.0000 -0.1593331549
C   C32       1.0  0.44600  0.84860  0.85314  1.0000 -0.1593331549
C   C33       1.0  0.02410  0.27590  0.72374  1.0000 0.0586591537
C   C34       1.0  0.97590  0.22410  0.22374  1.0000 0.0586591537
C   C35       1.0  0.47590  0.77590  0.27626  1.0000 0.0586591537
C   C36       1.0  0.52410  0.72410  0.77626  1.0000 0.0586591537
C   C37       1.0  0.29740  0.59720  0.56141  1.0000 0.3788322114
C   C38       1.0  0.70260  0.90280  0.06141  1.0000 0.3788322114
C   C39       1.0  0.20260  0.09720  0.43859  1.0000 0.3788322114
C   C40       1.0  0.79740  0.40280  0.93859  1.0000 0.3788322114
C   C41       1.0  0.43720  0.58910  0.53567  1.0000 0.3684622127
C   C42       1.0  0.56280  0.91090  0.03567  1.0000 0.3684622127
C   C43       1.0  0.06280  0.08910  0.46433  1.0000 0.3684622127
C   C44       1.0  0.93720  0.41090  0.96433  1.0000 0.3684622127
C   C45       1.0  0.49760  0.70270  0.64869  1.0000 0.1017420741
C   C46       1.0  0.50240  0.79730  0.14869  1.0000 0.1017420741
C   C47       1.0  0.00240  0.20270  0.35131  1.0000 0.1017420741
C   C48       1.0  0.99760  0.29730  0.85131  1.0000 0.1017420741
C   C49       1.0  0.92630  0.10970  0.63159  1.0000 0.0938216538
C   C50       1.0  0.07370  0.39030  0.13159  1.0000 0.0938216538
C   C51       1.0  0.57370  0.60970  0.36841  1.0000 0.0938216538
C   C52       1.0  0.42630  0.89030  0.86841  1.0000 0.0938216538
C   C53       1.0  0.49230  0.54500  0.45825  1.0000 0.0586591537
C   C54       1.0  0.50770  0.95500  0.95825  1.0000 0.0586591537
C   C55       1.0  0.00770  0.04500  0.54175  1.0000 0.0586591537
C   C56       1.0  0.99230  0.45500  0.04175  1.0000 0.0586591537
C   C57       1.0  0.95470  0.32320  0.65119  1.0000 0.3684622127
C   C58       1.0  0.04530  0.17680  0.15119  1.0000 0.3684622127
C   C59       1.0  0.54530  0.82320  0.34881  1.0000 0.3684622127
C   C60       1.0  0.45470  0.67680  0.84881  1.0000 0.3684622127
C   C61       1.0  0.44050  0.55740  0.48354  1.0000 -0.1414552489
C   C62       1.0  0.55950  0.94260  0.98354  1.0000 -0.1414552489
C   C63       1.0  0.05950  0.05740  0.51646  1.0000 -0.1414552489
C   C64       1.0  0.94050  0.44260  0.01646  1.0000 -0.1414552489
C   C65       1.0  0.92260  0.37150  0.60547  1.0000 -0.1414552489
C   C66       1.0  0.07740  0.12850  0.10547  1.0000 -0.1414552489
C   C67       1.0  0.57740  0.87150  0.39453  1.0000 -0.1414552489
C   C68       1.0  0.42260  0.62850  0.89453  1.0000 -0.1414552489
C   C69       1.0  0.63570  0.56310  0.48151  1.0000 0.0784170419
C   C70       1.0  0.36430  0.93690  0.98151  1.0000 0.0784170419
C   C71       1.0  0.86430  0.06310  0.51849  1.0000 0.0784170419
C   C72       1.0  0.13570  0.43690  0.01849  1.0000 0.0784170419
C   C73       1.0  0.43570  0.62880  0.58001  1.0000 0.3788322114
C   C74       1.0  0.56430  0.87120  0.08001  1.0000 0.3788322114
C   C75       1.0  0.06430  0.12880  0.41999  1.0000 0.3788322114
C   C76       1.0  0.93570  0.37120  0.91999  1.0000 0.3788322114
C   C77       1.0  0.19360  0.58490  0.56543  1.0000 0.0586591537
C   C78       1.0  0.80640  0.91510  0.06543  1.0000 0.0586591537
C   C79       1.0  0.30640  0.08490  0.43457  1.0000 0.0586591537
C   C80       1.0  0.69360  0.41510  0.93457  1.0000 0.0586591537
C   C81       1.0  0.92900  0.45630  0.63570  1.0000 0.0732431274
C   C82       1.0  0.07100  0.04370  0.13570  1.0000 0.0732431274
C   C83       1.0  0.57100  0.95630  0.36430  1.0000 0.0732431274
C   C84       1.0  0.42900  0.54370  0.86430  1.0000 0.0732431274
C   C85       1.0  0.05250  0.54560  0.54900  1.0000 0.0732431274
C   C86       1.0  0.94750  0.95440  0.04900  1.0000 0.0732431274
C   C87       1.0  0.44750  0.04560  0.45100  1.0000 0.0732431274
C   C88       1.0  0.55250  0.45440  0.95100  1.0000 0.0732431274
C   C89       1.0  0.88930  0.15320  0.58911  1.0000 0.0586591537
C   C90       1.0  0.11070  0.34680  0.08911  1.0000 0.0586591537
C   C91       1.0  0.61070  0.65320  0.41089  1.0000 0.0586591537
C   C92       1.0  0.38930  0.84680  0.91089  1.0000 0.0586591537
C   C93       1.0  0.05600  0.57650  0.59670  1.0000 0.0784170419
C   C94       1.0  0.94400  0.92350  0.09670  1.0000 0.0784170419
C   C95       1.0  0.44400  0.07650  0.40330  1.0000 0.0784170419
C   C96       1.0  0.55600  0.42350  0.90330  1.0000 0.0784170419
C   C97       1.0  0.14420  0.56050  0.54340  1.0000 -0.1414552489
C   C98       1.0  0.85580  0.93950  0.04340  1.0000 -0.1414552489
C   C99       1.0  0.35580  0.06050  0.45660  1.0000 -0.1414552489
C   C100      1.0  0.64420  0.43950  0.95660  1.0000 -0.1414552489
C   C101      1.0  0.48940  0.65340  0.60444  1.0000 0.0479365717
C   C102      1.0  0.51060  0.84660  0.10444  1.0000 0.0479365717
C   C103      1.0  0.01060  0.15340  0.39556  1.0000 0.0479365717
C   C104      1.0  0.98940  0.34660  0.89556  1.0000 0.0479365717
C   C105      1.0  0.14870  0.59350  0.59244  1.0000 -0.118561442
C   C106      1.0  0.85130  0.90650  0.09244  1.0000 -0.118561442
C   C107      1.0  0.35130  0.09350  0.40756  1.0000 -0.118561442
C   C108      1.0  0.64870  0.40650  0.90756  1.0000 -0.118561442
C   C109      1.0  0.58790  0.65120  0.60530  1.0000 -0.118561442
C   C110      1.0  0.41210  0.84880  0.10530  1.0000 -0.118561442
C   C111      1.0  0.91210  0.15120  0.39470  1.0000 -0.118561442
C   C112      1.0  0.08790  0.34880  0.89470  1.0000 -0.118561442
C   C113      1.0  0.59010  0.57530  0.50720  1.0000 -0.1517446734
C   C114      1.0  0.40990  0.92470  0.00720  1.0000 -0.1517446734
C   C115      1.0  0.90990  0.07530  0.49280  1.0000 -0.1517446734
C   C116      1.0  0.09010  0.42470  0.99280  1.0000 -0.1517446734
C   C117      1.0  0.48960  0.57350  0.50886  1.0000 0.0479365717
C   C118      1.0  0.51040  0.92650  0.00886  1.0000 0.0479365717
C   C119      1.0  0.01040  0.07350  0.49114  1.0000 0.0479365717
C   C120      1.0  0.98960  0.42650  0.99114  1.0000 0.0479365717
C   C121      1.0  0.44200  0.67900  0.62610  1.0000 -0.118561442
C   C122      1.0  0.55800  0.82100  0.12610  1.0000 -0.118561442
C   C123      1.0  0.05800  0.17900  0.37390  1.0000 -0.118561442
C   C124      1.0  0.94200  0.32100  0.87390  1.0000 -0.118561442
C   C125      1.0  0.63810  0.67280  0.62810  1.0000 0.0784170419
C   C126      1.0  0.36190  0.82720  0.12810  1.0000 0.0784170419
C   C127      1.0  0.86190  0.17280  0.37190  1.0000 0.0784170419
C   C128      1.0  0.13810  0.32720  0.87190  1.0000 0.0784170419
C   C129      1.0  0.05730  0.31700  0.73983  1.0000 -0.1517446734
C   C130      1.0  0.94270  0.18300  0.23983  1.0000 -0.1517446734
C   C131      1.0  0.44270  0.81700  0.26017  1.0000 -0.1517446734
C   C132      1.0  0.55730  0.68300  0.76017  1.0000 -0.1517446734
C   C133      1.0  0.02620  0.23200  0.73831  1.0000 -0.1517446734
C   C134      1.0  0.97380  0.26800  0.23831  1.0000 -0.1517446734
C   C135      1.0  0.47380  0.73200  0.26169  1.0000 -0.1517446734
C   C136      1.0  0.52620  0.76800  0.76169  1.0000 -0.1517446734
C   C137      1.0  0.06300  0.22900  0.76728  1.0000 0.1081730849
C   C138      1.0  0.93700  0.27100  0.26728  1.0000 0.1081730849
C   C139      1.0  0.43700  0.72900  0.23272  1.0000 0.1081730849
C   C140      1.0  0.56300  0.77100  0.73272  1.0000 0.1081730849
C   C141      1.0  0.09360  0.31150  0.76788  1.0000 0.0586591537
C   C142      1.0  0.90640  0.18850  0.26788  1.0000 0.0586591537
C   C143      1.0  0.40640  0.81150  0.23212  1.0000 0.0586591537
C   C144      1.0  0.59360  0.68850  0.73212  1.0000 0.0586591537
C   C145      1.0  0.09170  0.58390  0.40877  1.0000 0.1017420741
C   C146      1.0  0.90830  0.91610  0.90877  1.0000 0.1017420741
C   C147      1.0  0.40830  0.08390  0.59123  1.0000 0.1017420741
C   C148      1.0  0.59170  0.41610  0.09123  1.0000 0.1017420741
C   C149      1.0  0.09140  0.80450  0.39753  1.0000 -0.1593331549
C   C150      1.0  0.90860  0.69550  0.89753  1.0000 -0.1593331549
C   C151      1.0  0.40860  0.30450  0.60247  1.0000 -0.1593331549
C   C152      1.0  0.59140  0.19550  0.10247  1.0000 -0.1593331549
C   C153      1.0  0.04690  0.75850  0.35078  1.0000 0.3580794871
C   C154      1.0  0.95310  0.74150  0.85078  1.0000 0.3580794871
C   C155      1.0  0.45310  0.25850  0.64922  1.0000 0.3580794871
C   C156      1.0  0.54690  0.24150  0.14922  1.0000 0.3580794871
C   C157      1.0  0.05420  0.58590  0.34957  1.0000 -0.1517446734
C   C158      1.0  0.94580  0.91410  0.84957  1.0000 -0.1517446734
C   C159      1.0  0.44580  0.08590  0.65043  1.0000 -0.1517446734
C   C160      1.0  0.55420  0.41410  0.15043  1.0000 -0.1517446734
C   C161      1.0  0.00860  0.71990  0.30786  1.0000 0.3684622127
C   C162      1.0  0.99140  0.78010  0.80786  1.0000 0.3684622127
C   C163      1.0  0.49140  0.21990  0.69214  1.0000 0.3684622127
C   C164      1.0  0.50860  0.28010  0.19214  1.0000 0.3684622127
C   C165      1.0  0.06270  0.80390  0.36726  1.0000 0.0479365717
C   C166      1.0  0.93730  0.69610  0.86726  1.0000 0.0586591537
C   C167      1.0  0.43730  0.30390  0.63274  1.0000 0.0586591537
C   C168      1.0  0.56270  0.19610  0.13274  1.0000 0.0586591537
C   C169      1.0  0.05940  0.62980  0.36445  1.0000 0.0586591537
C   C170      1.0  0.94060  0.87020  0.86445  1.0000 0.0586591537
C   C171      1.0  0.44060  0.12980  0.63555  1.0000 0.0586591537
C   C172      1.0  0.55940  0.37020  0.13555  1.0000 0.0586591537
C   C173      1.0  0.05400  0.84860  0.35314  1.0000 -0.1593331549
C   C174      1.0  0.94600  0.65140  0.85314  1.0000 -0.1593331549
C   C175      1.0  0.44600  0.34860  0.64686  1.0000 -0.1593331549
C   C176      1.0  0.55400  0.15140  0.14686  1.0000 -0.1593331549
C   C177      1.0  0.97590  0.72410  0.27626  1.0000 0.0586591537
C   C178      1.0  0.02410  0.77590  0.77626  1.0000 0.0586591537
C   C179      1.0  0.52410  0.22410  0.72374  1.0000 0.0586591537
C   C180      1.0  0.47590  0.27590  0.22374  1.0000 0.0586591537
C   C181      1.0  0.70260  0.40280  0.43859  1.0000 0.3788322114
C   C182      1.0  0.29740  0.09720  0.93859  1.0000 0.3788322114
C   C183      1.0  0.79740  0.90280  0.56141  1.0000 0.3788322114
C   C184      1.0  0.20260  0.59720  0.06141  1.0000 0.3788322114
C   C185      1.0  0.56280  0.41090  0.46433  1.0000 0.3684622127
C   C186      1.0  0.43720  0.08910  0.96433  1.0000 0.3684622127
C   C187      1.0  0.93720  0.91090  0.53567  1.0000 0.3684622127
C   C188      1.0  0.06280  0.58910  0.03567  1.0000 0.3684622127
C   C189      1.0  0.50240  0.29730  0.35131  1.0000 0.1017420741
C   C190      1.0  0.49760  0.20270  0.85131  1.0000 0.1017420741
C   C191      1.0  0.99760  0.79730  0.64869  1.0000 0.1017420741
C   C192      1.0  0.00240  0.70270  0.14869  1.0000 0.1017420741
C   C193      1.0  0.07370  0.89030  0.36841  1.0000 0.0938216538
C   C194      1.0  0.92630  0.60970  0.86841  1.0000 0.1017420741
C   C195      1.0  0.42630  0.39030  0.63159  1.0000 0.0938216538
C   C196      1.0  0.57370  0.10970  0.13159  1.0000 0.0938216538
C   C197      1.0  0.50770  0.45500  0.54175  1.0000 0.0586591537
C   C198      1.0  0.49230  0.04500  0.04175  1.0000 0.0586591537
C   C199      1.0  0.99230  0.95500  0.45825  1.0000 0.0586591537
C   C200      1.0  0.00770  0.54500  0.95825  1.0000 0.0586591537
C   C201      1.0  0.04530  0.67680  0.34881  1.0000 0.3684622127
C   C202      1.0  0.95470  0.82320  0.84881  1.0000 0.3684622127
C   C203      1.0  0.45470  0.17680  0.65119  1.0000 0.3684622127
C   C204      1.0  0.54530  0.32320  0.15119  1.0000 0.3684622127
C   C205      1.0  0.55950  0.44260  0.51646  1.0000 -0.1414552489
C   C206      1.0  0.44050  0.05740  0.01646  1.0000 -0.1414552489
C   C207      1.0  0.94050  0.94260  0.48354  1.0000 -0.1414552489
C   C208      1.0  0.05950  0.55740  0.98354  1.0000 -0.1414552489
C   C209      1.0  0.07740  0.62850  0.39453  1.0000 -0.1414552489
C   C210      1.0  0.92260  0.87150  0.89453  1.0000 -0.1414552489
C   C211      1.0  0.42260  0.12850  0.60547  1.0000 -0.1414552489
C   C212      1.0  0.57740  0.37150  0.10547  1.0000 -0.1414552489
C   C213      1.0  0.36430  0.43690  0.51849  1.0000 0.0784170419
C   C214      1.0  0.63570  0.06310  0.01849  1.0000 0.0784170419
C   C215      1.0  0.13570  0.93690  0.48151  1.0000 0.0784170419
C   C216      1.0  0.86430  0.56310  0.98151  1.0000 0.0784170419
C   C217      1.0  0.56430  0.37120  0.41999  1.0000 0.3788322114
C   C218      1.0  0.43570  0.12880  0.91999  1.0000 0.3788322114
C   C219      1.0  0.93570  0.87120  0.58001  1.0000 0.3788322114
C   C220      1.0  0.06430  0.62880  0.08001  1.0000 0.3788322114
C   C221      1.0  0.80640  0.41510  0.43457  1.0000 0.0586591537
C   C222      1.0  0.19360  0.08490  0.93457  1.0000 0.0586591537
C   C223      1.0  0.69360  0.91510  0.56543  1.0000 0.0586591537
C   C224      1.0  0.30640  0.58490  0.06543  1.0000 0.0586591537
C   C225      1.0  0.07100  0.54370  0.36430  1.0000 0.0732431274
C   C226      1.0  0.92900  0.95630  0.86430  1.0000 0.0732431274
C   C227      1.0  0.42900  0.04370  0.63570  1.0000 0.0732431274
C   C228      1.0  0.57100  0.45630  0.13570  1.0000 0.0732431274
C   C229      1.0  0.94750  0.45440  0.45100  1.0000 0.0732431274
C   C230      1.0  0.05250  0.04560  0.95100  1.0000 0.0732431274
C   C231      1.0  0.55250  0.95440  0.54900  1.0000 0.0732431274
C   C232      1.0  0.44750  0.54560  0.04900  1.0000 0.0732431274
C   C233      1.0  0.11070  0.84680  0.41089  1.0000 0.0586591537
C   C234      1.0  0.88930  0.65320  0.91089  1.0000 0.0586591537
C   C235      1.0  0.38930  0.34680  0.58911  1.0000 0.0586591537
C   C236      1.0  0.61070  0.15320  0.08911  1.0000 0.0586591537
C   C237      1.0  0.94400  0.42350  0.40330  1.0000 0.0784170419
C   C238      1.0  0.05600  0.07650  0.90330  1.0000 0.0784170419
C   C239      1.0  0.55600  0.92350  0.59670  1.0000 0.0784170419
C   C240      1.0  0.44400  0.57650  0.09670  1.0000 0.0784170419
C   C241      1.0  0.85580  0.43950  0.45660  1.0000 -0.1414552489
C   C242      1.0  0.14420  0.06050  0.95660  1.0000 -0.1414552489
C   C243      1.0  0.64420  0.93950  0.54340  1.0000 -0.1414552489
C   C244      1.0  0.35580  0.56050  0.04340  1.0000 -0.1414552489
C   C245      1.0  0.51060  0.34660  0.39556  1.0000 0.0479365717
C   C246      1.0  0.48940  0.15340  0.89556  1.0000 0.0479365717
C   C247      1.0  0.98940  0.84660  0.60444  1.0000 0.0479365717
C   C248      1.0  0.01060  0.65340  0.10444  1.0000 0.0479365717
C   C249      1.0  0.85130  0.40650  0.40756  1.0000 -0.118561442
C   C250      1.0  0.14870  0.09350  0.90756  1.0000 -0.118561442
C   C251      1.0  0.64870  0.90650  0.59244  1.0000 -0.118561442
C   C252      1.0  0.35130  0.59350  0.09244  1.0000 -0.118561442
C   C253      1.0  0.41210  0.34880  0.39470  1.0000 -0.118561442
C   C254      1.0  0.58790  0.15120  0.89470  1.0000 -0.118561442
C   C255      1.0  0.08790  0.84880  0.60530  1.0000 -0.118561442
C   C256      1.0  0.91210  0.65120  0.10530  1.0000 -0.118561442
C   C257      1.0  0.40990  0.42470  0.49280  1.0000 -0.1517446734
C   C258      1.0  0.59010  0.07530  0.99280  1.0000 -0.1517446734
C   C259      1.0  0.09010  0.92470  0.50720  1.0000 -0.1517446734
C   C260      1.0  0.90990  0.57530  0.00720  1.0000 -0.1517446734
C   C261      1.0  0.51040  0.42650  0.49114  1.0000 0.0479365717
C   C262      1.0  0.48960  0.07350  0.99114  1.0000 0.0479365717
C   C263      1.0  0.98960  0.92650  0.50886  1.0000 0.0479365717
C   C264      1.0  0.01040  0.57350  0.00886  1.0000 0.0479365717
C   C265      1.0  0.55800  0.32100  0.37390  1.0000 -0.118561442
C   C266      1.0  0.44200  0.17900  0.87390  1.0000 -0.118561442
C   C267      1.0  0.94200  0.82100  0.62610  1.0000 -0.118561442
C   C268      1.0  0.05800  0.67900  0.12610  1.0000 -0.118561442
C   C269      1.0  0.36190  0.32720  0.37190  1.0000 0.0784170419
C   C270      1.0  0.63810  0.17280  0.87190  1.0000 0.0784170419
C   C271      1.0  0.13810  0.82720  0.62810  1.0000 0.0784170419
C   C272      1.0  0.86190  0.67280  0.12810  1.0000 0.0784170419
C   C273      1.0  0.94270  0.68300  0.26017  1.0000 -0.1517446734
C   C274      1.0  0.05730  0.81700  0.76017  1.0000 -0.1517446734
C   C275      1.0  0.55730  0.18300  0.73983  1.0000 -0.1517446734
C   C276      1.0  0.44270  0.31700  0.23983  1.0000 -0.1517446734
C   C277      1.0  0.97380  0.76800  0.26169  1.0000 -0.1517446734
C   C278      1.0  0.02620  0.73200  0.76169  1.0000 -0.1517446734
C   C279      1.0  0.52620  0.26800  0.73831  1.0000 -0.1517446734
C   C280      1.0  0.47380  0.23200  0.23831  1.0000 -0.1517446734
C   C281      1.0  0.93700  0.77100  0.23272  1.0000 0.1081730849
C   C282      1.0  0.06300  0.72900  0.73272  1.0000 0.1081730849
C   C283      1.0  0.56300  0.27100  0.76728  1.0000 0.1081730849
C   C284      1.0  0.43700  0.22900  0.26728  1.0000 0.1081730849
C   C285      1.0  0.90640  0.68850  0.23212  1.0000 0.0586591537
C   C286      1.0  0.09360  0.81150  0.73212  1.0000 0.0586591537
C   C287      1.0  0.59360  0.18850  0.76788  1.0000 0.0586591537
C   C288      1.0  0.40640  0.31150  0.26788  1.0000 0.0586591537
I   I1        1.0  0.67136  0.05983  0.57782  1.0000 -0.4308629561
I   I2        1.0  0.32864  0.44017  0.07782  1.0000 -0.4308629561
I   I3        1.0  0.82864  0.55983  0.42218  1.0000 -0.4308629561
I   I4        1.0  0.17136  0.94017  0.92218  1.0000 -0.4308629561
I   I5        1.0  0.67590  0.82513  0.66426  1.0000 -0.4393897116
I   I6        1.0  0.32410  0.67487  0.16426  1.0000 -0.4393897116
I   I7        1.0  0.82410  0.32513  0.33574  1.0000 -0.4393897116
I   I8        1.0  0.17590  0.17487  0.83574  1.0000 -0.4393897116
I   I9        1.0  0.79960  0.50240  0.53709  1.0000 -0.4308629561
I   I10       1.0  0.20040  0.99760  0.03709  1.0000 -0.4308629561
I   I11       1.0  0.70040  0.00240  0.46291  1.0000 -0.4308629561
I   I12       1.0  0.29960  0.49760  0.96291  1.0000 -0.4308629561
I   I13       1.0  0.83015  0.69774  0.68451  1.0000 -0.4477399349
I   I14       1.0  0.16985  0.80226  0.18451  1.0000 -0.4477399349
I   I15       1.0  0.66985  0.19774  0.31549  1.0000 -0.4477399349
I   I16       1.0  0.33015  0.30226  0.81549  1.0000 -0.4477399349
I   I17       1.0  0.79990  0.57231  0.62246  1.0000 -0.4154858574
I   I18       1.0  0.20010  0.92769  0.12246  1.0000 -0.4154858574
I   I19       1.0  0.70010  0.07231  0.37754  1.0000 -0.4154858574
I   I20       1.0  0.29990  0.42769  0.87754  1.0000 -0.4154858574
I   I21       1.0  0.91909  0.98380  0.61294  1.0000 -0.3986636758
I   I22       1.0  0.08091  0.51620  0.11294  1.0000 -0.3986636758
I   I23       1.0  0.58091  0.48380  0.38706  1.0000 -0.3986636758
I   I24       1.0  0.41909  0.01620  0.88706  1.0000 -0.3986636758
I   I25       1.0  0.32864  0.94017  0.42218  1.0000 -0.4308629561
I   I26       1.0  0.67136  0.55983  0.92218  1.0000 -0.4308629561
I   I27       1.0  0.17136  0.44017  0.57782  1.0000 -0.4308629561
I   I28       1.0  0.82864  0.05983  0.07782  1.0000 -0.4308629561
I   I29       1.0  0.32410  0.17487  0.33574  1.0000 -0.4393897116
I   I30       1.0  0.67590  0.32513  0.83574  1.0000 -0.4393897116
I   I31       1.0  0.17590  0.67487  0.66426  1.0000 -0.4393897116
I   I32       1.0  0.82410  0.82513  0.16426  1.0000 -0.4393897116
I   I33       1.0  0.20040  0.49760  0.46291  1.0000 -0.4308629561
I   I34       1.0  0.79960  0.00240  0.96291  1.0000 -0.4308629561
I   I35       1.0  0.29960  0.99760  0.53709  1.0000 -0.4308629561
I   I36       1.0  0.70040  0.50240  0.03709  1.0000 -0.4308629561
I   I37       1.0  0.16985  0.30226  0.31549  1.0000 -0.4477399349
I   I38       1.0  0.83015  0.19774  0.81549  1.0000 -0.4477399349
I   I39       1.0  0.33015  0.80226  0.68451  1.0000 -0.4477399349
I   I40       1.0  0.66985  0.69774  0.18451  1.0000 -0.4477399349
I   I41       1.0  0.20010  0.42769  0.37754  1.0000 -0.4154858574
I   I42       1.0  0.79990  0.07231  0.87754  1.0000 -0.4154858574
I   I43       1.0  0.29990  0.92769  0.62246  1.0000 -0.4154858574
I   I44       1.0  0.70010  0.57231  0.12246  1.0000 -0.4154858574
I   I45       1.0  0.08091  0.01620  0.38706  1.0000 -0.3986636758
I   I46       1.0  0.91909  0.48380  0.88706  1.0000 -0.3986636758
I   I47       1.0  0.41909  0.51620  0.61294  1.0000 -0.3986636758
I   I48       1.0  0.58091  0.98380  0.11294  1.0000 -0.3986636758
N   N1        1.0  0.97980  0.23750  0.67821  1.0000 -0.408979541
N   N2        1.0  0.02020  0.26250  0.17821  1.0000 -0.408979541
N   N3        1.0  0.52020  0.73750  0.32179  1.0000 -0.408979541
N   N4        1.0  0.47980  0.76250  0.82179  1.0000 -0.408979541
N   N5        1.0  0.91000  0.45810  0.60572  1.0000 -0.1709462296
N   N6        1.0  0.09000  0.04190  0.10572  1.0000 -0.1709462296
N   N7        1.0  0.59000  0.95810  0.39428  1.0000 -0.1709462296
N   N8        1.0  0.41000  0.54190  0.89428  1.0000 -0.1709462296
N   N9        1.0  0.94060  0.28370  0.63459  1.0000 -0.408979541
N   N10       1.0  0.05940  0.21630  0.13459  1.0000 -0.408979541
N   N11       1.0  0.55940  0.78370  0.36541  1.0000 -0.408979541
N   N12       1.0  0.44060  0.71630  0.86541  1.0000 -0.408979541
N   N13       1.0  0.97990  0.32360  0.68009  1.0000 -0.408979541
N   N14       1.0  0.02010  0.17640  0.18009  1.0000 -0.408979541
N   N15       1.0  0.52010  0.82360  0.31991  1.0000 -0.408979541
N   N16       1.0  0.47990  0.67640  0.81991  1.0000 -0.408979541
N   N17       1.0  0.00740  0.55280  0.57519  1.0000 -0.1709462296
N   N18       1.0  0.99260  0.94720  0.07519  1.0000 -0.1709462296
N   N19       1.0  0.49260  0.05280  0.42481  1.0000 -0.1709462296
N   N20       1.0  0.50740  0.44720  0.92481  1.0000 -0.1709462296
N   N21       1.0  0.48760  0.61240  0.55657  1.0000 -0.3921761572
N   N22       1.0  0.51240  0.88760  0.05657  1.0000 -0.3921761572
N   N23       1.0  0.01240  0.11240  0.44343  1.0000 -0.3921761572
N   N24       1.0  0.98760  0.38760  0.94343  1.0000 -0.3921761572
N   N25       1.0  0.33990  0.62360  0.58330  1.0000 -0.3788551785
N   N26       1.0  0.66010  0.87640  0.08330  1.0000 -0.3788551785
N   N27       1.0  0.16010  0.12360  0.41670  1.0000 -0.3788551785
N   N28       1.0  0.83990  0.37640  0.91670  1.0000 -0.3788551785
N   N29       1.0  0.59290  0.70050  0.64941  1.0000 -0.1709462296
N   N30       1.0  0.40710  0.79950  0.14941  1.0000 -0.1709462296
N   N31       1.0  0.90710  0.20050  0.35059  1.0000 -0.1709462296
N   N32       1.0  0.09290  0.29950  0.85059  1.0000 -0.1709462296
N   N33       1.0  0.34260  0.57950  0.53741  1.0000 -0.3788551785
N   N34       1.0  0.65740  0.92050  0.03741  1.0000 -0.3788551785
N   N35       1.0  0.15740  0.07950  0.46259  1.0000 -0.3788551785
N   N36       1.0  0.84260  0.42050  0.96259  1.0000 -0.3788551785
N   N37       1.0  0.89540  0.10930  0.60317  1.0000 -0.1794775281
N   N38       1.0  0.10460  0.39070  0.10317  1.0000 -0.1794775281
N   N39       1.0  0.60460  0.60930  0.39683  1.0000 -0.1794775281
N   N40       1.0  0.39540  0.89070  0.89683  1.0000 -0.1794775281
N   N41       1.0  0.58990  0.54950  0.45663  1.0000 -0.185133776
N   N42       1.0  0.41010  0.95050  0.95663  1.0000 -0.185133776
N   N43       1.0  0.91010  0.04950  0.54337  1.0000 -0.185133776
N   N44       1.0  0.08990  0.45050  0.04337  1.0000 -0.185133776
N   N45       1.0  0.09680  0.26710  0.78192  1.0000 -0.1794775281
N   N46       1.0  0.90320  0.23290  0.28192  1.0000 -0.1794775281
N   N47       1.0  0.40320  0.76710  0.21808  1.0000 -0.1794775281
N   N48       1.0  0.59680  0.73290  0.71808  1.0000 -0.1794775281
N   N49       1.0  0.02020  0.76250  0.32179  1.0000 -0.408979541
N   N50       1.0  0.97980  0.73750  0.82179  1.0000 -0.408979541
N   N51       1.0  0.47980  0.26250  0.67821  1.0000 -0.408979541
N   N52       1.0  0.52020  0.23750  0.17821  1.0000 -0.408979541
N   N53       1.0  0.09000  0.54190  0.39428  1.0000 -0.1709462296
N   N54       1.0  0.91000  0.95810  0.89428  1.0000 -0.1709462296
N   N55       1.0  0.41000  0.04190  0.60572  1.0000 -0.1709462296
N   N56       1.0  0.59000  0.45810  0.10572  1.0000 -0.1709462296
N   N57       1.0  0.05940  0.71630  0.36541  1.0000 -0.408979541
N   N58       1.0  0.94060  0.78370  0.86541  1.0000 -0.408979541
N   N59       1.0  0.44060  0.21630  0.63459  1.0000 -0.408979541
N   N60       1.0  0.55940  0.28370  0.13459  1.0000 -0.408979541
N   N61       1.0  0.02010  0.67640  0.31991  1.0000 -0.408979541
N   N62       1.0  0.97990  0.82360  0.81991  1.0000 -0.408979541
N   N63       1.0  0.47990  0.17640  0.68009  1.0000 -0.408979541
N   N64       1.0  0.52010  0.32360  0.18009  1.0000 -0.408979541
N   N65       1.0  0.99260  0.44720  0.42481  1.0000 -0.1709462296
N   N66       1.0  0.00740  0.05280  0.92481  1.0000 -0.1709462296
N   N67       1.0  0.50740  0.94720  0.57519  1.0000 -0.1709462296
N   N68       1.0  0.49260  0.55280  0.07519  1.0000 -0.1709462296
N   N69       1.0  0.51240  0.38760  0.44343  1.0000 -0.3921761572
N   N70       1.0  0.48760  0.11240  0.94343  1.0000 -0.3921761572
N   N71       1.0  0.98760  0.88760  0.55657  1.0000 -0.3921761572
N   N72       1.0  0.01240  0.61240  0.05657  1.0000 -0.3921761572
N   N73       1.0  0.66010  0.37640  0.41670  1.0000 -0.3788551785
N   N74       1.0  0.33990  0.12360  0.91670  1.0000 -0.3788551785
N   N75       1.0  0.83990  0.87640  0.58330  1.0000 -0.3788551785
N   N76       1.0  0.16010  0.62360  0.08330  1.0000 -0.3788551785
N   N77       1.0  0.40710  0.29950  0.35059  1.0000 -0.1709462296
N   N78       1.0  0.59290  0.20050  0.85059  1.0000 -0.1709462296
N   N79       1.0  0.09290  0.79950  0.64941  1.0000 -0.1709462296
N   N80       1.0  0.90710  0.70050  0.14941  1.0000 -0.1709462296
N   N81       1.0  0.65740  0.42050  0.46259  1.0000 -0.3788551785
N   N82       1.0  0.34260  0.07950  0.96259  1.0000 -0.3788551785
N   N83       1.0  0.84260  0.92050  0.53741  1.0000 -0.3788551785
N   N84       1.0  0.15740  0.57950  0.03741  1.0000 -0.3788551785
N   N85       1.0  0.10460  0.89070  0.39683  1.0000 -0.1794775281
N   N86       1.0  0.89540  0.60930  0.89683  1.0000 -0.1794775281
N   N87       1.0  0.39540  0.39070  0.60317  1.0000 -0.1794775281
N   N88       1.0  0.60460  0.10930  0.10317  1.0000 -0.1794775281
N   N89       1.0  0.41010  0.45050  0.54337  1.0000 -0.185133776
N   N90       1.0  0.58990  0.04950  0.04337  1.0000 -0.185133776
N   N91       1.0  0.08990  0.95050  0.45663  1.0000 -0.185133776
N   N92       1.0  0.91010  0.54950  0.95663  1.0000 -0.185133776
N   N93       1.0  0.90320  0.73290  0.21808  1.0000 -0.1794775281
N   N94       1.0  0.09680  0.76710  0.71808  1.0000 -0.1794775281
N   N95       1.0  0.59680  0.23290  0.78192  1.0000 -0.1794775281
N   N96       1.0  0.40320  0.26710  0.28192  1.0000 -0.1794775281
