# DDEC6 charges by PACMAN v1.1 (https://github.com/mtap-research/PACMAN-charge/)
data_2014[Co][nan]3[FSR]20
_chemical_formula_sum              "Co6 H6 C24 O18"
_cell_length_a       15.0963
_cell_length_b       15.0963
_cell_length_c       15.0963
_cell_angle_alpha    117.793
_cell_angle_beta     117.793
_cell_angle_gamma    117.793

_symmetry_space_group_name_H-M    "P 1"
_symmetry_Int_Tables_number       1

loop_
  _symmetry_equiv_pos_as_xyz
  'x, y, z'

loop_
  _atom_site_type_symbol
  _atom_site_label
  _atom_site_symmetry_multiplicity
  _atom_site_fract_x
  _atom_site_fract_y
  _atom_site_fract_z
  _atom_site_occupancy
  _atom_site_charge
Co  Co1       1.0  0.88230  0.18300  0.59970  1.0000 1.0173916683
Co  Co2       1.0  0.18300  0.59970  0.88230  1.0000 1.0173916683
Co  Co3       1.0  0.59970  0.88230  0.18300  1.0000 1.0173916683
Co  Co4       1.0  0.18300  0.88230  0.59970  1.0000 1.0173916683
Co  Co5       1.0  0.88230  0.59970  0.18300  1.0000 1.0173916683
Co  Co6       1.0  0.59970  0.18300  0.88230  1.0000 1.0173916683
H   H1        1.0  0.75530  0.27140  0.75530  1.0000 0.1495525256
H   H2        1.0  0.27140  0.75530  0.75530  1.0000 0.1495525256
H   H3        1.0  0.75530  0.75530  0.27140  1.0000 0.1495525256
H   H4        1.0  0.46530  0.88840  0.46530  1.0000 0.1331655994
H   H5        1.0  0.88840  0.46530  0.46530  1.0000 0.1331655994
H   H6        1.0  0.46530  0.46530  0.88840  1.0000 0.1331655994
C   C1        1.0  0.05560  0.49530  0.96370  1.0000 0.3375264272
C   C2        1.0  0.49530  0.96370  0.05560  1.0000 0.3375264272
C   C3        1.0  0.96370  0.05560  0.49530  1.0000 0.3375264272
C   C4        1.0  0.49530  0.05560  0.96370  1.0000 0.3375264272
C   C5        1.0  0.05560  0.96370  0.49530  1.0000 0.3375264272
C   C6        1.0  0.96370  0.49530  0.05560  1.0000 0.3375264272
C   C7        1.0  0.92185  0.41830  0.92185  1.0000 -0.2963218525
C   C8        1.0  0.41830  0.92185  0.92185  1.0000 -0.2963218525
C   C9        1.0  0.92185  0.92185  0.41830  1.0000 -0.2963218525
C   C10       1.0  0.27030  0.68530  0.17640  1.0000 -0.1872374972
C   C11       1.0  0.68530  0.17640  0.27030  1.0000 -0.1872374972
C   C12       1.0  0.17640  0.27030  0.68530  1.0000 -0.1872374972
C   C13       1.0  0.68530  0.27030  0.17640  1.0000 -0.1872374972
C   C14       1.0  0.27030  0.17640  0.68530  1.0000 -0.1872374972
C   C15       1.0  0.17640  0.68530  0.27030  1.0000 -0.1872374972
C   C16       1.0  0.44170  0.79740  0.25590  1.0000 0.6268335646
C   C17       1.0  0.79740  0.25590  0.44170  1.0000 0.6268335646
C   C18       1.0  0.25590  0.44170  0.79740  1.0000 0.6268335646
C   C19       1.0  0.79740  0.44170  0.25590  1.0000 0.6268335646
C   C20       1.0  0.44170  0.25590  0.79740  1.0000 0.6268335646
C   C21       1.0  0.25590  0.79740  0.44170  1.0000 0.6268335646
C   C22       1.0  0.31925  0.76050  0.31925  1.0000 -0.0639447033
C   C23       1.0  0.76050  0.31925  0.31925  1.0000 -0.0639447033
C   C24       1.0  0.31925  0.31925  0.76050  1.0000 -0.0639447033
O   O1        1.0  0.00520  0.42030  0.82360  1.0000 -0.6082356805
O   O2        1.0  0.42030  0.82360  0.00520  1.0000 -0.6082356805
O   O3        1.0  0.82360  0.00520  0.42030  1.0000 -0.6082356805
O   O4        1.0  0.42030  0.00520  0.82360  1.0000 -0.6082356805
O   O5        1.0  0.00520  0.82360  0.42030  1.0000 -0.6082356805
O   O6        1.0  0.82360  0.42030  0.00520  1.0000 -0.6082356805
O   O7        1.0  0.40200  0.74330  0.12740  1.0000 -0.6160673334
O   O8        1.0  0.74330  0.12740  0.40200  1.0000 -0.6160673334
O   O9        1.0  0.12740  0.40200  0.74330  1.0000 -0.6160673334
O   O10       1.0  0.74330  0.40200  0.12740  1.0000 -0.6160673334
O   O11       1.0  0.40200  0.12740  0.74330  1.0000 -0.6160673334
O   O12       1.0  0.12740  0.74330  0.40200  1.0000 -0.6160673334
O   O13       1.0  0.61940  0.94420  0.44320  1.0000 -0.5314369335
O   O14       1.0  0.94420  0.44320  0.61940  1.0000 -0.5314369335
O   O15       1.0  0.44320  0.61940  0.94420  1.0000 -0.5314369335
O   O16       1.0  0.94420  0.61940  0.44320  1.0000 -0.5314369335
O   O17       1.0  0.61940  0.44320  0.94420  1.0000 -0.5314369335
O   O18       1.0  0.44320  0.94420  0.61940  1.0000 -0.5314369335
