# DDEC6 charges by PACMAN v1.1 (https://github.com/mtap-research/PACMAN-charge/)
data_2014[Mn][dia]3[FSR]1
_chemical_formula_sum              "Mn12 H24 C24 O48"
_cell_length_a       11.6976
_cell_length_b       10.2455
_cell_length_c       18.8943
_cell_angle_alpha    90
_cell_angle_beta     126.612
_cell_angle_gamma    90

_symmetry_space_group_name_H-M    "P 1"
_symmetry_Int_Tables_number       1

loop_
  _symmetry_equiv_pos_as_xyz
  'x, y, z'

loop_
  _atom_site_type_symbol
  _atom_site_label
  _atom_site_symmetry_multiplicity
  _atom_site_fract_x
  _atom_site_fract_y
  _atom_site_fract_z
  _atom_site_occupancy
  _atom_site_charge
Mn  Mn1       1.0  0.62473  0.42390  0.86867  1.0000 0.9536083492
Mn  Mn2       1.0  0.37527  0.92390  0.63133  1.0000 0.9536083492
Mn  Mn3       1.0  0.37527  0.57610  0.13133  1.0000 0.9536083492
Mn  Mn4       1.0  0.62473  0.07610  0.36867  1.0000 0.9536083492
Mn  Mn5       1.0  0.43061  0.61325  0.69106  1.0000 0.9670203628
Mn  Mn6       1.0  0.56939  0.11325  0.80894  1.0000 0.9670203628
Mn  Mn7       1.0  0.56939  0.38675  0.30894  1.0000 0.9670203628
Mn  Mn8       1.0  0.43061  0.88675  0.19106  1.0000 0.9670203628
Mn  Mn9       1.0  0.50000  0.50000  0.00000  1.0000 0.9824775161
Mn  Mn10      1.0  0.50000  0.00000  0.50000  1.0000 0.9824775161
Mn  Mn11      1.0  0.00000  0.50000  0.00000  1.0000 0.9929281773
Mn  Mn12      1.0  0.00000  0.00000  0.50000  1.0000 0.9929281773
H   H1        1.0  0.77110  0.64940  0.07240  1.0000 0.1012536702
H   H2        1.0  0.22890  0.14940  0.42760  1.0000 0.1012536702
H   H3        1.0  0.22890  0.35060  0.92760  1.0000 0.1012536702
H   H4        1.0  0.77110  0.85060  0.57240  1.0000 0.1012536702
H   H5        1.0  0.49350  0.87240  0.05090  1.0000 0.1012536702
H   H6        1.0  0.50650  0.37240  0.44910  1.0000 0.1012536702
H   H7        1.0  0.50650  0.12760  0.94910  1.0000 0.1012536702
H   H8        1.0  0.49350  0.62760  0.55090  1.0000 0.1012536702
H   H9        1.0  0.22330  0.54310  0.74370  1.0000 0.1012536702
H   H10       1.0  0.77670  0.04310  0.75630  1.0000 0.1012536702
H   H11       1.0  0.77670  0.45690  0.25630  1.0000 0.1012536702
H   H12       1.0  0.22330  0.95690  0.24370  1.0000 0.1012536702
H   H13       1.0  0.48250  0.26560  0.63330  1.0000 0.1012536702
H   H14       1.0  0.51750  0.76560  0.86670  1.0000 0.1012536702
H   H15       1.0  0.51750  0.73440  0.36670  1.0000 0.1012536702
H   H16       1.0  0.48250  0.23440  0.13330  1.0000 0.1012536702
H   H17       1.0  0.74810  0.71060  0.78480  1.0000 0.1012536702
H   H18       1.0  0.25190  0.21060  0.71520  1.0000 0.1012536702
H   H19       1.0  0.25190  0.28940  0.21520  1.0000 0.1012536702
H   H20       1.0  0.74810  0.78940  0.28480  1.0000 0.1012536702
H   H21       1.0  0.02810  0.71430  0.53480  1.0000 0.1012536702
H   H22       1.0  0.97190  0.21430  0.96520  1.0000 0.1012536702
H   H23       1.0  0.97190  0.28570  0.46520  1.0000 0.1012536702
H   H24       1.0  0.02810  0.78570  0.03480  1.0000 0.1012536702
C   C1        1.0  0.77570  0.59570  0.03450  1.0000 0.4684943671
C   C2        1.0  0.22430  0.09570  0.46550  1.0000 0.4684943671
C   C3        1.0  0.22430  0.40430  0.96550  1.0000 0.4684943671
C   C4        1.0  0.77570  0.90430  0.53450  1.0000 0.4684943671
C   C5        1.0  0.47850  0.78460  0.05530  1.0000 0.460815795
C   C6        1.0  0.52150  0.28460  0.44470  1.0000 0.460815795
C   C7        1.0  0.52150  0.21540  0.94470  1.0000 0.460815795
C   C8        1.0  0.47850  0.71540  0.55530  1.0000 0.460815795
C   C9        1.0  0.31330  0.52230  0.79410  1.0000 0.451650154
C   C10       1.0  0.68670  0.02230  0.70590  1.0000 0.451650154
C   C11       1.0  0.68670  0.47770  0.20590  1.0000 0.451650154
C   C12       1.0  0.31330  0.97770  0.29410  1.0000 0.451650154
C   C13       1.0  0.49170  0.33270  0.66950  1.0000 0.4684943671
C   C14       1.0  0.50830  0.83270  0.83050  1.0000 0.4684943671
C   C15       1.0  0.50830  0.66730  0.33050  1.0000 0.4684943671
C   C16       1.0  0.49170  0.16730  0.16950  1.0000 0.4684943671
C   C17       1.0  0.76440  0.64420  0.82340  1.0000 0.451650154
C   C18       1.0  0.23560  0.14420  0.67660  1.0000 0.451650154
C   C19       1.0  0.23560  0.35580  0.17660  1.0000 0.451650154
C   C20       1.0  0.76440  0.85580  0.32340  1.0000 0.451650154
C   C21       1.0  0.12550  0.72970  0.56690  1.0000 0.4801285716
C   C22       1.0  0.87450  0.22970  0.93310  1.0000 0.4801285716
C   C23       1.0  0.87450  0.27030  0.43310  1.0000 0.4801285716
C   C24       1.0  0.12550  0.77030  0.06690  1.0000 0.4801285716
O   O1        1.0  0.66562  0.52930  0.97938  1.0000 -0.5587447552
O   O2        1.0  0.33438  0.02930  0.52062  1.0000 -0.5587447552
O   O3        1.0  0.33438  0.47070  0.02062  1.0000 -0.5587447552
O   O4        1.0  0.66562  0.97070  0.47938  1.0000 -0.5587447552
O   O5        1.0  0.88727  0.59570  0.04257  1.0000 -0.50027992
O   O6        1.0  0.11273  0.09570  0.45743  1.0000 -0.50027992
O   O7        1.0  0.11273  0.40430  0.95743  1.0000 -0.50027992
O   O8        1.0  0.88727  0.90430  0.54257  1.0000 -0.50027992
O   O9        1.0  0.48498  0.70770  0.00748  1.0000 -0.50027992
O   O10       1.0  0.51502  0.20770  0.49252  1.0000 -0.50027992
O   O11       1.0  0.51502  0.29230  0.99252  1.0000 -0.50027992
O   O12       1.0  0.48498  0.79230  0.50748  1.0000 -0.50027992
O   O13       1.0  0.45326  0.75470  0.10966  1.0000 -0.5587447552
O   O14       1.0  0.54674  0.25470  0.39034  1.0000 -0.5587447552
O   O15       1.0  0.54674  0.24530  0.89034  1.0000 -0.5587447552
O   O16       1.0  0.45326  0.74530  0.60966  1.0000 -0.5587447552
O   O17       1.0  0.41171  0.51280  0.78521  1.0000 -0.5587447552
O   O18       1.0  0.58829  0.01280  0.71479  1.0000 -0.5587447552
O   O19       1.0  0.58829  0.48720  0.21479  1.0000 -0.5587447552
O   O20       1.0  0.41171  0.98720  0.28521  1.0000 -0.5587447552
O   O21       1.0  0.32340  0.50740  0.86120  1.0000 -0.4787395222
O   O22       1.0  0.67660  0.00740  0.63880  1.0000 -0.4787395222
O   O23       1.0  0.67660  0.49260  0.13880  1.0000 -0.4787395222
O   O24       1.0  0.32340  0.99260  0.36120  1.0000 -0.4787395222
O   O25       1.0  0.44265  0.44060  0.63485  1.0000 -0.50027992
O   O26       1.0  0.55735  0.94060  0.86515  1.0000 -0.50027992
O   O27       1.0  0.55735  0.55940  0.36515  1.0000 -0.50027992
O   O28       1.0  0.44265  0.05940  0.13485  1.0000 -0.50027992
O   O29       1.0  0.55332  0.30570  0.74992  1.0000 -0.5587447552
O   O30       1.0  0.44668  0.80570  0.75008  1.0000 -0.5587447552
O   O31       1.0  0.44668  0.69430  0.25008  1.0000 -0.5587447552
O   O32       1.0  0.55332  0.19430  0.24992  1.0000 -0.5587447552
O   O33       1.0  0.88794  0.62430  0.88514  1.0000 -0.4787395222
O   O34       1.0  0.11206  0.12430  0.61486  1.0000 -0.4787395222
O   O35       1.0  0.11206  0.37570  0.11486  1.0000 -0.4787395222
O   O36       1.0  0.88794  0.87570  0.38514  1.0000 -0.4787395222
O   O37       1.0  0.65611  0.58460  0.80608  1.0000 -0.5587447552
O   O38       1.0  0.34389  0.08460  0.69392  1.0000 -0.5587447552
O   O39       1.0  0.34389  0.41540  0.19392  1.0000 -0.5587447552
O   O40       1.0  0.65611  0.91540  0.30608  1.0000 -0.5587447552
O   O41       1.0  0.16284  0.84480  0.56728  1.0000 -0.5458635984
O   O42       1.0  0.83716  0.34480  0.93272  1.0000 -0.5443981188
O   O43       1.0  0.83716  0.15520  0.43272  1.0000 -0.5443981188
O   O44       1.0  0.16284  0.65520  0.06728  1.0000 -0.5443981188
O   O45       1.0  0.20475  0.63480  0.60475  1.0000 -0.50027992
O   O46       1.0  0.79525  0.13480  0.89525  1.0000 -0.50027992
O   O47       1.0  0.79525  0.36520  0.39525  1.0000 -0.50027992
O   O48       1.0  0.20475  0.86520  0.10475  1.0000 -0.50027992
