# DDEC6 charges by PACMAN v1.1 (https://github.com/mtap-research/PACMAN-charge/)
data_2014[UDy][nan]3[FSR]1
_chemical_formula_sum              "Dy2 U3 H26 C30 O40"
_cell_length_a       10.5363
_cell_length_b       11.4698
_cell_length_c       13.4114
_cell_angle_alpha    69.028
_cell_angle_beta     78.406
_cell_angle_gamma    63.414

_symmetry_space_group_name_H-M    "P 1"
_symmetry_Int_Tables_number       1

loop_
  _symmetry_equiv_pos_as_xyz
  'x, y, z'

loop_
  _atom_site_type_symbol
  _atom_site_label
  _atom_site_symmetry_multiplicity
  _atom_site_fract_x
  _atom_site_fract_y
  _atom_site_fract_z
  _atom_site_occupancy
  _atom_site_charge
Dy  Dy1       1.0  0.60033  0.22942  0.74930  1.0000 2.1209575291
Dy  Dy2       1.0  0.39967  0.77058  0.25070  1.0000 2.1209575291
U   U1        1.0  0.62382  0.71245  0.83696  1.0000 2.3911638613
U   U2        1.0  0.37618  0.28755  0.16304  1.0000 2.3911638613
U   U3        1.0  0.00000  0.50000  0.50000  1.0000 2.3728146906
H   H1        1.0  0.09580  0.35770  0.95970  1.0000 0.1384057756
H   H2        1.0  0.90420  0.64230  0.04030  1.0000 0.1384057756
H   H3        1.0  0.15570  0.10960  0.73490  1.0000 0.1384057756
H   H4        1.0  0.84430  0.89040  0.26510  1.0000 0.1384057756
H   H5        1.0  0.71260  0.99800  0.41830  1.0000 0.1310610528
H   H6        1.0  0.28740  0.00200  0.58170  1.0000 0.1310610528
H   H7        1.0  0.67160  0.18110  0.54400  1.0000 0.4028066154
H   H8        1.0  0.32840  0.81890  0.45600  1.0000 0.4028066154
H   H9        1.0  0.81020  0.09330  0.60690  1.0000 0.4265228267
H   H10       1.0  0.18980  0.90670  0.39310  1.0000 0.4265228267
H   H11       1.0  0.52840  0.48580  0.57210  1.0000 0.4028066154
H   H12       1.0  0.47160  0.51420  0.42790  1.0000 0.4028066154
H   H13       1.0  0.69160  0.42870  0.58290  1.0000 0.4215666856
H   H14       1.0  0.30840  0.57130  0.41710  1.0000 0.4215666856
H   H15       1.0  0.31650  0.45320  0.70070  1.0000 0.4215666856
H   H16       1.0  0.68350  0.54680  0.29930  1.0000 0.4215666856
H   H17       1.0  0.33190  0.35490  0.63920  1.0000 0.4265228267
H   H18       1.0  0.66810  0.64510  0.36080  1.0000 0.4265228267
H   H19       1.0  0.43700  0.47970  0.81250  1.0000 0.4215666856
H   H20       1.0  0.56300  0.52030  0.18750  1.0000 0.4215666856
H   H21       1.0  0.58080  0.40890  0.86820  1.0000 0.4376592393
H   H22       1.0  0.41920  0.59110  0.13180  1.0000 0.4376592393
H   H23       1.0  0.74280  0.93870  0.85890  1.0000 0.4122608061
H   H24       1.0  0.25720  0.06130  0.14110  1.0000 0.4122608061
H   H25       1.0  0.85460  0.99810  0.84550  1.0000 0.4215666856
H   H26       1.0  0.14540  0.00190  0.15450  1.0000 0.4215666856
C   C1        1.0  0.99640  0.34150  0.85380  1.0000 -0.0326311583
C   C2        1.0  0.00360  0.65850  0.14620  1.0000 -0.0326311583
C   C3        1.0  0.11100  0.31200  0.91050  1.0000 -0.1022687573
C   C4        1.0  0.88900  0.68800  0.08950  1.0000 -0.1022687573
C   C5        1.0  0.24790  0.21510  0.89470  1.0000 -0.0897935872
C   C6        1.0  0.75210  0.78490  0.10530  1.0000 -0.0897935872
C   C7        1.0  0.26660  0.14190  0.82370  1.0000 -0.0193955936
C   C8        1.0  0.73340  0.85810  0.17630  1.0000 -0.0193955936
C   C9        1.0  0.14570  0.16480  0.77510  1.0000 -0.149524117
C   C10       1.0  0.85430  0.83520  0.22490  1.0000 -0.149524117
C   C11       1.0  0.01550  0.26560  0.78610  1.0000 -0.0326311583
C   C12       1.0  0.98450  0.73440  0.21390  1.0000 -0.0326311583
C   C13       1.0  0.62600  0.99870  0.45150  1.0000 -0.1170852874
C   C14       1.0  0.37400  0.00130  0.54850  1.0000 -0.1170852874
C   C15       1.0  0.61860  0.87570  0.50600  1.0000 -0.0326311583
C   C16       1.0  0.38140  0.12430  0.49400  1.0000 -0.0326311583
C   C17       1.0  0.48790  0.87590  0.55710  1.0000 -0.0549944957
C   C18       1.0  0.51210  0.12410  0.44290  1.0000 -0.0549944957
C   C19       1.0  0.86210  0.46300  0.86070  1.0000 0.5607419069
C   C20       1.0  0.13790  0.53700  0.13930  1.0000 0.5607419069
C   C21       1.0  0.36230  0.19270  0.95790  1.0000 0.6464436407
C   C22       1.0  0.63770  0.80730  0.04210  1.0000 0.6464436407
C   C23       1.0  0.40830  0.04100  0.79480  1.0000 0.6211806591
C   C24       1.0  0.59170  0.95900  0.20520  1.0000 0.6211806591
C   C25       1.0  0.89640  0.29130  0.72500  1.0000 0.6642217691
C   C26       1.0  0.10360  0.70870  0.27500  1.0000 0.6642217691
C   C27       1.0  0.46800  0.74740  0.62210  1.0000 0.6211806591
C   C28       1.0  0.53200  0.25260  0.37790  1.0000 0.6211806591
C   C29       1.0  0.74310  0.74550  0.50840  1.0000 0.5607419069
C   C30       1.0  0.25690  0.25450  0.49160  1.0000 0.5607419069
O   O1        1.0  0.53140  0.63420  0.94520  1.0000 -0.6672970101
O   O2        1.0  0.46860  0.36580  0.05480  1.0000 -0.6672970101
O   O3        1.0  0.71910  0.78870  0.73060  1.0000 -0.6672970101
O   O4        1.0  0.28090  0.21130  0.26940  1.0000 -0.6672970101
O   O5        1.0  0.06840  0.49980  0.60960  1.0000 -0.6672970101
O   O6        1.0  0.93160  0.50020  0.39040  1.0000 -0.6672970101
O   O7        1.0  0.85040  0.53530  0.91480  1.0000 -0.5484964196
O   O8        1.0  0.14960  0.46470  0.08520  1.0000 -0.5484964196
O   O9        1.0  0.76190  0.49500  0.80310  1.0000 -0.5794428234
O   O10       1.0  0.23810  0.50500  0.19690  1.0000 -0.5794428234
O   O11       1.0  0.81500  0.23380  0.77200  1.0000 -0.6597988253
O   O12       1.0  0.18500  0.76620  0.22800  1.0000 -0.6597988253
O   O13       1.0  0.88770  0.36230  0.62830  1.0000 -0.5872661714
O   O14       1.0  0.11230  0.63770  0.37170  1.0000 -0.5872661714
O   O15       1.0  0.41700  0.92010  0.82000  1.0000 -0.6109225993
O   O16       1.0  0.58300  0.07990  0.18000  1.0000 -0.6109225993
O   O17       1.0  0.50210  0.07710  0.75190  1.0000 -0.6109225993
O   O18       1.0  0.49790  0.92290  0.24810  1.0000 -0.6109225993
O   O19       1.0  0.48360  0.17480  0.91670  1.0000 -0.6327123289
O   O20       1.0  0.51640  0.82520  0.08330  1.0000 -0.6327123289
O   O21       1.0  0.32630  0.19650  0.05240  1.0000 -0.6229643469
O   O22       1.0  0.67370  0.80350  0.94760  1.0000 -0.6229643469
O   O23       1.0  0.50200  0.69510  0.71840  1.0000 -0.6109225993
O   O24       1.0  0.49800  0.30490  0.28160  1.0000 -0.6109225993
O   O25       1.0  0.41070  0.70150  0.58160  1.0000 -0.5371265058
O   O26       1.0  0.58930  0.29850  0.41840  1.0000 -0.5371265058
O   O27       1.0  0.73300  0.63360  0.53360  1.0000 -0.5794428234
O   O28       1.0  0.26700  0.36640  0.46640  1.0000 -0.5794428234
O   O29       1.0  0.86610  0.75050  0.47910  1.0000 -0.5984806661
O   O30       1.0  0.13390  0.24950  0.52090  1.0000 -0.5984806661
O   O31       1.0  0.71810  0.15230  0.60350  1.0000 -0.8319440727
O   O32       1.0  0.28190  0.84770  0.39650  1.0000 -0.8319440727
O   O33       1.0  0.60840  0.42100  0.60490  1.0000 -0.8319440727
O   O34       1.0  0.39160  0.57900  0.39510  1.0000 -0.8319440727
O   O35       1.0  0.36790  0.37620  0.68220  1.0000 -0.8366362099
O   O36       1.0  0.63210  0.62380  0.31780  1.0000 -0.8366362099
O   O37       1.0  0.52340  0.41020  0.82590  1.0000 -0.8319440727
O   O38       1.0  0.47660  0.58980  0.17410  1.0000 -0.8319440727
O   O39       1.0  0.76690  0.01040  0.83580  1.0000 -0.8319440727
O   O40       1.0  0.23310  0.98960  0.16420  1.0000 -0.8319440727
