# DDEC6 charges by PACMAN v1.1 (https://github.com/mtap-research/PACMAN-charge/)
data_2014[U][nan]3[FSR]2
_chemical_formula_sum              "U3 P6 H28 C18 O26"
_cell_length_a       8.7982
_cell_length_b       11.8876
_cell_length_c       12.6446
_cell_angle_alpha    95.219
_cell_angle_beta     106.752
_cell_angle_gamma    96.98

_symmetry_space_group_name_H-M    "P 1"
_symmetry_Int_Tables_number       1

loop_
  _symmetry_equiv_pos_as_xyz
  'x, y, z'

loop_
  _atom_site_type_symbol
  _atom_site_label
  _atom_site_symmetry_multiplicity
  _atom_site_fract_x
  _atom_site_fract_y
  _atom_site_fract_z
  _atom_site_occupancy
  _atom_site_charge
U   U1        1.0  0.50000  0.50000  0.50000  1.0000 2.5880517787
U   U2        1.0  0.15561  0.09440  0.24609  1.0000 2.614290697
U   U3        1.0  0.84439  0.90560  0.75391  1.0000 2.614290697
P   P1        1.0  0.32400  0.21704  0.54220  1.0000 1.4177232212
P   P2        1.0  0.67600  0.78296  0.45780  1.0000 1.4177232212
P   P3        1.0  0.84662  0.58652  0.73305  1.0000 1.3986713713
P   P4        1.0  0.15338  0.41348  0.26695  1.0000 1.3986713713
P   P5        1.0  0.97965  0.17263  0.96548  1.0000 1.4177232212
P   P6        1.0  0.02035  0.82737  0.03452  1.0000 1.4177232212
H   H1        1.0  0.07010  0.42550  0.59210  1.0000 0.1364691234
H   H2        1.0  0.92990  0.57450  0.40790  1.0000 0.1364691234
H   H3        1.0  0.12380  0.44760  0.92270  1.0000 0.1364691234
H   H4        1.0  0.87620  0.55240  0.07730  1.0000 0.1364691234
H   H5        1.0  0.16850  0.15250  0.75490  1.0000 0.1364691234
H   H6        1.0  0.83150  0.84750  0.24510  1.0000 0.1349129355
H   H7        1.0  0.05840  0.24400  0.48590  1.0000 0.1718491255
H   H8        1.0  0.94160  0.75600  0.51410  1.0000 0.1718491255
H   H9        1.0  0.07610  0.13170  0.54670  1.0000 0.1601802534
H   H10       1.0  0.92390  0.86830  0.45330  1.0000 0.1601802534
H   H11       1.0  0.09240  0.61060  0.69980  1.0000 0.177498065
H   H12       1.0  0.90760  0.38940  0.30020  1.0000 0.177498065
H   H13       1.0  0.11700  0.61980  0.83070  1.0000 0.177498065
H   H14       1.0  0.88300  0.38020  0.16930  1.0000 0.177498065
H   H15       1.0  0.22530  0.29290  0.02560  1.0000 0.1718491255
H   H16       1.0  0.77470  0.70710  0.97440  1.0000 0.1718491255
H   H17       1.0  0.24140  0.17550  0.95930  1.0000 0.1873969896
H   H18       1.0  0.75860  0.82450  0.04070  1.0000 0.1873969896
H   H19       1.0  0.40700  0.07850  0.62500  1.0000 0.3906514472
H   H20       1.0  0.59300  0.92150  0.37500  1.0000 0.3906514472
H   H21       1.0  0.70200  0.51100  0.82600  1.0000 0.4030806249
H   H22       1.0  0.29800  0.48900  0.17400  1.0000 0.4030806249
H   H23       1.0  0.81700  0.27800  0.87790  1.0000 0.3906514472
H   H24       1.0  0.18300  0.72200  0.12210  1.0000 0.3906514472
H   H25       1.0  0.29100  0.94100  0.42620  1.0000 0.4289086288
H   H26       1.0  0.70900  0.05900  0.57380  1.0000 0.4289086288
H   H27       1.0  0.21100  0.85520  0.31900  1.0000 0.4289086288
H   H28       1.0  0.78900  0.14480  0.68100  1.0000 0.4289086288
C   C1        1.0  0.12050  0.27930  0.65690  1.0000 0.1873969896
C   C2        1.0  0.87950  0.72070  0.34310  1.0000 0.1873969896
C   C3        1.0  0.09100  0.39150  0.65890  1.0000 -0.2391393805
C   C4        1.0  0.90900  0.60850  0.34110  1.0000 -0.2391393805
C   C5        1.0  0.09140  0.45480  0.75730  1.0000 0.2006037956
C   C6        1.0  0.90860  0.54520  0.24270  1.0000 0.2006037956
C   C7        1.0  0.12250  0.40480  0.85520  1.0000 -0.259627896
C   C8        1.0  0.87750  0.59520  0.14480  1.0000 -0.259627896
C   C9        1.0  0.15200  0.29190  0.85460  1.0000 0.177498065
C   C10       1.0  0.84800  0.70810  0.14540  1.0000 0.177498065
C   C11       1.0  0.14990  0.22950  0.75560  1.0000 -0.259627896
C   C12       1.0  0.85010  0.77050  0.24440  1.0000 -0.259627896
C   C13       1.0  0.12420  0.21230  0.55050  1.0000 -0.584681111
C   C14       1.0  0.87580  0.78770  0.44950  1.0000 -0.584681111
C   C15       1.0  0.05500  0.57540  0.75770  1.0000 -0.555479663
C   C16       1.0  0.94500  0.42460  0.24230  1.0000 -0.555479663
C   C17       1.0  0.17230  0.23540  0.95930  1.0000 -0.5886129314
C   C18       1.0  0.82770  0.76460  0.04070  1.0000 -0.5886129314
O   O1        1.0  0.40470  0.34080  0.56520  1.0000 -0.8108842943
O   O2        1.0  0.59530  0.65920  0.43480  1.0000 -0.8108842943
O   O3        1.0  0.32290  0.15170  0.43400  1.0000 -0.8504611029
O   O4        1.0  0.67710  0.84830  0.56600  1.0000 -0.8504611029
O   O5        1.0  0.42070  0.15880  0.64160  1.0000 -0.6299264246
O   O6        1.0  0.57930  0.84120  0.35840  1.0000 -0.6299264246
O   O7        1.0  0.82430  0.70810  0.71960  1.0000 -0.8396016532
O   O8        1.0  0.17570  0.29190  0.28040  1.0000 -0.8396016532
O   O9        1.0  0.74540  0.50220  0.63100  1.0000 -0.8504611029
O   O10       1.0  0.25460  0.49780  0.36900  1.0000 -0.8504611029
O   O11       1.0  0.80750  0.54850  0.83840  1.0000 -0.6299264246
O   O12       1.0  0.19250  0.45150  0.16160  1.0000 -0.6299264246
O   O13       1.0  0.86960  0.26860  0.95210  1.0000 -0.6248746091
O   O14       1.0  0.13040  0.73140  0.04790  1.0000 -0.6299264246
O   O15       1.0  0.90900  0.07780  0.87010  1.0000 -0.8504611029
O   O16       1.0  0.09100  0.92220  0.12990  1.0000 -0.8504611029
O   O17       1.0  0.99290  0.13930  0.07980  1.0000 -0.8039223725
O   O18       1.0  0.00710  0.86070  0.92020  1.0000 -0.8108842943
O   O19       1.0  0.56020  0.41380  0.40200  1.0000 -0.6807292873
O   O20       1.0  0.43980  0.58620  0.59800  1.0000 -0.6807292873
O   O21       1.0  0.33230  0.11380  0.20550  1.0000 -0.6576075131
O   O22       1.0  0.66770  0.88620  0.79450  1.0000 -0.6576075131
O   O23       1.0  0.98070  0.07600  0.28840  1.0000 -0.6927282983
O   O24       1.0  0.01930  0.92400  0.71160  1.0000 -0.6927282983
O   O25       1.0  0.23080  0.93290  0.34990  1.0000 -0.790274995
O   O26       1.0  0.76920  0.06710  0.65010  1.0000 -0.790274995
