# DDEC6 charges by PACMAN v1.1 (https://github.com/mtap-research/PACMAN-charge/)
data_2014[Cu][pcu]3[FSR]2
_chemical_formula_sum              "Cu2 H24 C24 N48"
_cell_length_a       8.0203
_cell_length_b       20.455
_cell_length_c       11.7015
_cell_angle_alpha    90
_cell_angle_beta     132.614
_cell_angle_gamma    90

_symmetry_space_group_name_H-M    "P 1"
_symmetry_Int_Tables_number       1

loop_
  _symmetry_equiv_pos_as_xyz
  'x, y, z'

loop_
  _atom_site_type_symbol
  _atom_site_label
  _atom_site_symmetry_multiplicity
  _atom_site_fract_x
  _atom_site_fract_y
  _atom_site_fract_z
  _atom_site_occupancy
  _atom_site_charge
Cu  Cu1       1.0  0.50000  0.50000  0.50000  1.0000 0.5096149263
Cu  Cu2       1.0  0.50000  0.00000  0.00000  1.0000 0.5096149263
H   H1        1.0  0.76710  0.49950  0.37030  1.0000 0.1204312013
H   H2        1.0  0.23290  0.99950  0.12970  1.0000 0.1204312013
H   H3        1.0  0.23290  0.50050  0.62970  1.0000 0.1204312013
H   H4        1.0  0.76710  0.00050  0.87030  1.0000 0.1204312013
H   H5        1.0  0.13590  0.50240  0.95490  1.0000 0.1137002698
H   H6        1.0  0.86410  0.00240  0.54510  1.0000 0.1137002698
H   H7        1.0  0.86410  0.49760  0.04510  1.0000 0.1137002698
H   H8        1.0  0.13590  0.99760  0.45490  1.0000 0.1137002698
H   H9        1.0  0.61710  0.63640  0.67030  1.0000 0.1204312013
H   H10       1.0  0.38290  0.13640  0.82970  1.0000 0.1204312013
H   H11       1.0  0.38290  0.36360  0.32970  1.0000 0.1204312013
H   H12       1.0  0.61710  0.86360  0.17030  1.0000 0.1204312013
H   H13       1.0  0.11400  0.65160  0.67050  1.0000 0.1137002698
H   H14       1.0  0.88600  0.15160  0.82950  1.0000 0.1137002698
H   H15       1.0  0.88600  0.34840  0.32950  1.0000 0.1137002698
H   H16       1.0  0.11400  0.84840  0.17050  1.0000 0.1137002698
H   H17       1.0  0.29440  0.85920  0.79690  1.0000 0.1204312013
H   H18       1.0  0.70560  0.35920  0.70310  1.0000 0.1204312013
H   H19       1.0  0.70560  0.14080  0.20310  1.0000 0.1204312013
H   H20       1.0  0.29440  0.64080  0.29690  1.0000 0.1204312013
H   H21       1.0  0.85730  0.83730  0.85150  1.0000 0.1137002698
H   H22       1.0  0.14270  0.33730  0.64850  1.0000 0.1137002698
H   H23       1.0  0.14270  0.16270  0.14850  1.0000 0.1137002698
H   H24       1.0  0.85730  0.66270  0.35150  1.0000 0.1137002698
C   C1        1.0  0.60640  0.50034  0.29090  1.0000 0.0714298379
C   C2        1.0  0.39360  0.00034  0.20910  1.0000 0.0714298379
C   C3        1.0  0.39360  0.49966  0.70910  1.0000 0.0714298379
C   C4        1.0  0.60640  0.99966  0.79090  1.0000 0.0714298379
C   C5        1.0  0.26080  0.50194  0.06400  1.0000 0.0415059695
C   C6        1.0  0.73920  0.00194  0.43600  1.0000 0.0415059695
C   C7        1.0  0.73920  0.49806  0.93600  1.0000 0.0415059695
C   C8        1.0  0.26080  0.99806  0.56400  1.0000 0.0415059695
C   C9        1.0  0.71880  0.62727  0.65660  1.0000 0.0415059695
C   C10       1.0  0.28120  0.12727  0.84340  1.0000 0.0415059695
C   C11       1.0  0.28120  0.37273  0.34340  1.0000 0.0415059695
C   C12       1.0  0.71880  0.87273  0.15660  1.0000 0.0415059695
C   C13       1.0  0.99090  0.63496  0.65680  1.0000 0.0066068372
C   C14       1.0  0.00910  0.13496  0.84320  1.0000 0.0066068372
C   C15       1.0  0.00910  0.36504  0.34320  1.0000 0.0066068372
C   C16       1.0  0.99090  0.86504  0.15680  1.0000 0.0066068372
C   C17       1.0  0.20570  0.86723  0.82200  1.0000 0.0415059695
C   C18       1.0  0.79430  0.36723  0.67800  1.0000 0.0415059695
C   C19       1.0  0.79430  0.13277  0.17800  1.0000 0.0415059695
C   C20       1.0  0.20570  0.63277  0.32200  1.0000 0.0415059695
C   C21       1.0  0.96660  0.85549  0.85180  1.0000 -0.0004614476
C   C22       1.0  0.03340  0.35549  0.64820  1.0000 2.342e-07
C   C23       1.0  0.03340  0.14451  0.14820  1.0000 -0.0004614476
C   C24       1.0  0.96660  0.64451  0.35180  1.0000 -0.0004614476
N   N1        1.0  0.46636  0.50163  0.31216  1.0000 -0.1800209764
N   N2        1.0  0.53364  0.00163  0.18784  1.0000 -0.1800209764
N   N3        1.0  0.53364  0.49837  0.68784  1.0000 -0.1800209764
N   N4        1.0  0.46636  0.99837  0.81216  1.0000 -0.1800209764
N   N5        1.0  0.24620  0.50271  0.16810  1.0000 -0.2085126113
N   N6        1.0  0.75380  0.00271  0.33190  1.0000 -0.2085126113
N   N7        1.0  0.75380  0.49729  0.83190  1.0000 -0.2085126113
N   N8        1.0  0.24620  0.99729  0.66810  1.0000 -0.2085126113
N   N9        1.0  0.48320  0.50042  0.13590  1.0000 0.07930233
N   N10       1.0  0.51680  0.00042  0.36410  1.0000 0.07930233
N   N11       1.0  0.51680  0.49958  0.86410  1.0000 0.07930233
N   N12       1.0  0.48320  0.99958  0.63590  1.0000 0.07930233
N   N13       1.0  0.57720  0.50004  0.07220  1.0000 -0.0776798291
N   N14       1.0  0.42280  0.00004  0.42780  1.0000 -0.0776798291
N   N15       1.0  0.42280  0.49996  0.92780  1.0000 -0.074248809
N   N16       1.0  0.57720  0.99996  0.57220  1.0000 -0.0776798291
N   N17       1.0  0.72260  0.57402  0.59700  1.0000 -0.1650620136
N   N18       1.0  0.27740  0.07402  0.90300  1.0000 -0.1642008457
N   N19       1.0  0.27740  0.42598  0.40300  1.0000 -0.1650620136
N   N20       1.0  0.72260  0.92598  0.09700  1.0000 -0.1650620136
N   N21       1.0  0.89660  0.57788  0.59830  1.0000 -0.1976851389
N   N22       1.0  0.10340  0.07788  0.90170  1.0000 -0.1976851389
N   N23       1.0  0.10340  0.42212  0.40170  1.0000 -0.1976851389
N   N24       1.0  0.89660  0.92212  0.09830  1.0000 -0.1976851389
N   N25       1.0  0.88480  0.66724  0.69540  1.0000 0.0714298379
N   N26       1.0  0.11520  0.16724  0.80460  1.0000 0.0714298379
N   N27       1.0  0.11520  0.33276  0.30460  1.0000 0.0714298379
N   N28       1.0  0.88480  0.83276  0.19540  1.0000 0.0714298379
N   N29       1.0  0.90560  0.73034  0.74890  1.0000 -0.0776798291
N   N30       1.0  0.09440  0.23034  0.75110  1.0000 -0.0776798291
N   N31       1.0  0.09440  0.26966  0.25110  1.0000 -0.0776798291
N   N32       1.0  0.90560  0.76966  0.24890  1.0000 -0.0776798291
N   N33       1.0  0.20590  0.92095  0.88090  1.0000 -0.1976851389
N   N34       1.0  0.79410  0.42095  0.61910  1.0000 -0.1976851389
N   N35       1.0  0.79410  0.07905  0.11910  1.0000 -0.1976851389
N   N36       1.0  0.20590  0.57905  0.38090  1.0000 -0.1976851389
N   N37       1.0  0.05210  0.91426  0.89960  1.0000 -0.2085126113
N   N38       1.0  0.94790  0.41426  0.60040  1.0000 -0.2085126113
N   N39       1.0  0.94790  0.08574  0.10040  1.0000 -0.2085126113
N   N40       1.0  0.05210  0.58574  0.39960  1.0000 -0.2085126113
N   N41       1.0  0.05890  0.82424  0.80200  1.0000 0.07930233
N   N42       1.0  0.94110  0.32424  0.69800  1.0000 0.07930233
N   N43       1.0  0.94110  0.17576  0.19800  1.0000 0.07930233
N   N44       1.0  0.05890  0.67576  0.30200  1.0000 0.07930233
N   N45       1.0  0.03850  0.76140  0.74980  1.0000 -0.0776798291
N   N46       1.0  0.96150  0.26140  0.75020  1.0000 -0.0776798291
N   N47       1.0  0.96150  0.23860  0.25020  1.0000 -0.0776798291
N   N48       1.0  0.03850  0.73860  0.24980  1.0000 -0.0776798291
