# DDEC6 charges by PACMAN v1.1 (https://github.com/mtap-research/PACMAN-charge/)
data_2014[YbCu][nan]3[FSR]1
_chemical_formula_sum              "Yb4 Cu2 H32 C48 N16 O40"
_cell_length_a       6.0214
_cell_length_b       23.592
_cell_length_c       13.3244
_cell_angle_alpha    90
_cell_angle_beta     112.782
_cell_angle_gamma    90

_symmetry_space_group_name_H-M    "P 1"
_symmetry_Int_Tables_number       1

loop_
  _symmetry_equiv_pos_as_xyz
  'x, y, z'

loop_
  _atom_site_type_symbol
  _atom_site_label
  _atom_site_symmetry_multiplicity
  _atom_site_fract_x
  _atom_site_fract_y
  _atom_site_fract_z
  _atom_site_occupancy
  _atom_site_charge
Yb  Yb1       1.0  0.09764  0.32782  0.60979  1.0000 2.0176457206
Yb  Yb2       1.0  0.90236  0.82782  0.89021  1.0000 2.0176457206
Yb  Yb3       1.0  0.90236  0.67218  0.39021  1.0000 2.0176457206
Yb  Yb4       1.0  0.09764  0.17218  0.10979  1.0000 2.0176457206
Cu  Cu1       1.0  0.00000  0.50000  0.00000  1.0000 0.781383876
Cu  Cu2       1.0  0.00000  0.00000  0.50000  1.0000 0.781383876
H   H1        1.0  0.87460  0.38080  0.38340  1.0000 0.405918468
H   H2        1.0  0.12540  0.88080  0.11660  1.0000 0.405918468
H   H3        1.0  0.12540  0.61920  0.61660  1.0000 0.405918468
H   H4        1.0  0.87460  0.11920  0.88340  1.0000 0.405918468
H   H5        1.0  0.03820  0.40920  0.47070  1.0000 0.3670976053
H   H6        1.0  0.96180  0.90920  0.02930  1.0000 0.3670976053
H   H7        1.0  0.96180  0.59080  0.52930  1.0000 0.3670976053
H   H8        1.0  0.03820  0.09080  0.97070  1.0000 0.3670976053
H   H9        1.0  0.37280  0.41870  0.69340  1.0000 0.3456374446
H   H10       1.0  0.62720  0.91870  0.80660  1.0000 0.3456374446
H   H11       1.0  0.62720  0.58130  0.30660  1.0000 0.3456374446
H   H12       1.0  0.37280  0.08130  0.19340  1.0000 0.3456374446
H   H13       1.0  0.50550  0.41000  0.63110  1.0000 0.3979957143
H   H14       1.0  0.49450  0.91000  0.86890  1.0000 0.3979957143
H   H15       1.0  0.49450  0.59000  0.36890  1.0000 0.3979957143
H   H16       1.0  0.50550  0.09000  0.13110  1.0000 0.3979957143
H   H17       1.0  0.67060  0.32850  0.12120  1.0000 0.1230460048
H   H18       1.0  0.32940  0.82850  0.37880  1.0000 0.1230460048
H   H19       1.0  0.32940  0.67150  0.87880  1.0000 0.1230460048
H   H20       1.0  0.67060  0.17150  0.62120  1.0000 0.1230460048
H   H21       1.0  0.96490  0.39520  0.14120  1.0000 0.1384604911
H   H22       1.0  0.03510  0.89520  0.35880  1.0000 0.1384604911
H   H23       1.0  0.03510  0.60480  0.85880  1.0000 0.1384604911
H   H24       1.0  0.96490  0.10480  0.64120  1.0000 0.1384604911
H   H25       1.0  0.74140  0.33560  0.77440  1.0000 0.1230460048
H   H26       1.0  0.25860  0.83560  0.72560  1.0000 0.1230460048
H   H27       1.0  0.25860  0.66440  0.22560  1.0000 0.1230460048
H   H28       1.0  0.74140  0.16440  0.27440  1.0000 0.1230460048
H   H29       1.0  0.03150  0.29260  0.92150  1.0000 0.1230460048
H   H30       1.0  0.96850  0.79260  0.57850  1.0000 0.1230460048
H   H31       1.0  0.96850  0.70740  0.07850  1.0000 0.1230460048
H   H32       1.0  0.03150  0.20740  0.42150  1.0000 0.1230460048
C   C1        1.0  0.13240  0.40810  0.83130  1.0000 0.6091126243
C   C2        1.0  0.86760  0.90810  0.66870  1.0000 0.6091126243
C   C3        1.0  0.86760  0.59190  0.16870  1.0000 0.6091126243
C   C4        1.0  0.13240  0.09190  0.33130  1.0000 0.6091126243
C   C5        1.0  0.38400  0.40430  0.91840  1.0000 0.0720878373
C   C6        1.0  0.61600  0.90430  0.58160  1.0000 0.0720878373
C   C7        1.0  0.61600  0.59570  0.08160  1.0000 0.0720878373
C   C8        1.0  0.38400  0.09570  0.41840  1.0000 0.0720878373
C   C9        1.0  0.63920  0.35790  0.07100  1.0000 0.0588534071
C   C10       1.0  0.36080  0.85790  0.42900  1.0000 0.0588534071
C   C11       1.0  0.36080  0.64210  0.92900  1.0000 0.0588534071
C   C12       1.0  0.63920  0.14210  0.57100  1.0000 0.0588534071
C   C13       1.0  0.81670  0.39810  0.08310  1.0000 0.0720878373
C   C14       1.0  0.18330  0.89810  0.41690  1.0000 0.0720878373
C   C15       1.0  0.18330  0.60190  0.91690  1.0000 0.0720878373
C   C16       1.0  0.81670  0.10190  0.58310  1.0000 0.0720878373
C   C17       1.0  0.56210  0.44420  0.92920  1.0000 0.0180876965
C   C18       1.0  0.43790  0.94420  0.57080  1.0000 0.0180876965
C   C19       1.0  0.43790  0.55580  0.07080  1.0000 0.0180876965
C   C20       1.0  0.56210  0.05580  0.42920  1.0000 0.0180876965
C   C21       1.0  0.53790  0.49270  0.85350  1.0000 0.535506312
C   C22       1.0  0.46210  0.99270  0.64650  1.0000 0.535506312
C   C23       1.0  0.46210  0.50730  0.14650  1.0000 0.535506312
C   C24       1.0  0.53790  0.00730  0.35350  1.0000 0.535506312
C   C25       1.0  0.16500  0.22170  0.76860  1.0000 0.5676754753
C   C26       1.0  0.83500  0.72170  0.73140  1.0000 0.5676754753
C   C27       1.0  0.83500  0.77830  0.23140  1.0000 0.5676754753
C   C28       1.0  0.16500  0.27830  0.26860  1.0000 0.5676754753
C   C29       1.0  0.41260  0.24750  0.82710  1.0000 0.0720878373
C   C30       1.0  0.58740  0.74750  0.67290  1.0000 0.0720878373
C   C31       1.0  0.58740  0.75250  0.17290  1.0000 0.0720878373
C   C32       1.0  0.41260  0.25250  0.32710  1.0000 0.0720878373
C   C33       1.0  0.69830  0.30600  0.80920  1.0000 0.0720878373
C   C34       1.0  0.30170  0.80600  0.69080  1.0000 0.0720878373
C   C35       1.0  0.30170  0.69400  0.19080  1.0000 0.0720878373
C   C36       1.0  0.69830  0.19400  0.30920  1.0000 0.0720878373
C   C37       1.0  0.87150  0.28150  0.90060  1.0000 0.0720878373
C   C38       1.0  0.12850  0.78150  0.59940  1.0000 0.0720878373
C   C39       1.0  0.12850  0.71850  0.09940  1.0000 0.0720878373
C   C40       1.0  0.87150  0.21850  0.40060  1.0000 0.0720878373
C   C41       1.0  0.57960  0.22970  0.92690  1.0000 0.0588534071
C   C42       1.0  0.42040  0.72970  0.57310  1.0000 0.0588534071
C   C43       1.0  0.42040  0.77030  0.07310  1.0000 0.0588534071
C   C44       1.0  0.57960  0.27030  0.42690  1.0000 0.0588534071
C   C45       1.0  0.52500  0.19649  0.01140  1.0000 0.6330792347
C   C46       1.0  0.47500  0.69649  0.48860  1.0000 0.6330792347
C   C47       1.0  0.47500  0.80351  0.98860  1.0000 0.6330792347
C   C48       1.0  0.52500  0.30351  0.51140  1.0000 0.6330792347
N   N1        1.0  0.77810  0.44069  0.01340  1.0000 -0.2019970377
N   N2        1.0  0.22190  0.94069  0.48660  1.0000 -0.2019970377
N   N3        1.0  0.22190  0.55931  0.98660  1.0000 -0.2019970377
N   N4        1.0  0.77810  0.05931  0.51340  1.0000 -0.2019970377
N   N5        1.0  0.42240  0.36065  0.98760  1.0000 -0.2269376775
N   N6        1.0  0.57760  0.86065  0.51240  1.0000 -0.2269376775
N   N7        1.0  0.57760  0.63935  0.01240  1.0000 -0.2269376775
N   N8        1.0  0.42240  0.13935  0.48760  1.0000 -0.2269376775
N   N9        1.0  0.46930  0.28774  0.77010  1.0000 -0.312257733
N   N10       1.0  0.53070  0.78774  0.72990  1.0000 -0.312257733
N   N11       1.0  0.53070  0.71226  0.22990  1.0000 -0.312257733
N   N12       1.0  0.46930  0.21226  0.27010  1.0000 -0.312257733
N   N13       1.0  0.81510  0.24251  0.95960  1.0000 -0.2974108865
N   N14       1.0  0.18490  0.74251  0.54040  1.0000 -0.2974108865
N   N15       1.0  0.18490  0.75749  0.04040  1.0000 -0.2974108865
N   N16       1.0  0.81510  0.25749  0.45960  1.0000 -0.2974108865
O   O1        1.0  0.08530  0.37600  0.74860  1.0000 -0.7134303411
O   O2        1.0  0.91470  0.87600  0.75140  1.0000 -0.7134303411
O   O3        1.0  0.91470  0.62400  0.25140  1.0000 -0.7134303411
O   O4        1.0  0.08530  0.12400  0.24860  1.0000 -0.7134303411
O   O5        1.0  0.98760  0.43974  0.84730  1.0000 -0.5201416572
O   O6        1.0  0.01240  0.93974  0.65270  1.0000 -0.5201416572
O   O7        1.0  0.01240  0.56026  0.15270  1.0000 -0.5201416572
O   O8        1.0  0.98760  0.06026  0.34730  1.0000 -0.5201416572
O   O9        1.0  0.36250  0.49517  0.76740  1.0000 -0.4848684033
O   O10       1.0  0.63750  0.99517  0.73260  1.0000 -0.4848684033
O   O11       1.0  0.63750  0.50483  0.23260  1.0000 -0.4848684033
O   O12       1.0  0.36250  0.00483  0.26740  1.0000 -0.4848684033
O   O13       1.0  0.70850  0.52945  0.88600  1.0000 -0.5095611175
O   O14       1.0  0.29150  0.02945  0.61400  1.0000 -0.5095611175
O   O15       1.0  0.29150  0.47055  0.11400  1.0000 -0.5095611175
O   O16       1.0  0.70850  0.97055  0.38600  1.0000 -0.5095611175
O   O17       1.0  0.02160  0.25044  0.68990  1.0000 -0.6858217081
O   O18       1.0  0.97840  0.75044  0.81010  1.0000 -0.6858217081
O   O19       1.0  0.97840  0.74956  0.31010  1.0000 -0.6858217081
O   O20       1.0  0.02160  0.24956  0.18990  1.0000 -0.6858217081
O   O21       1.0  0.12380  0.17479  0.79660  1.0000 -0.5001316627
O   O22       1.0  0.87620  0.67479  0.70340  1.0000 -0.5001316627
O   O23       1.0  0.87620  0.82521  0.20340  1.0000 -0.5001316627
O   O24       1.0  0.12380  0.32521  0.29660  1.0000 -0.5001316627
O   O25       1.0  0.32990  0.20642  0.02230  1.0000 -0.6548172196
O   O26       1.0  0.67010  0.70642  0.47770  1.0000 -0.6548172196
O   O27       1.0  0.67010  0.79358  0.97770  1.0000 -0.6548172196
O   O28       1.0  0.32990  0.29358  0.52230  1.0000 -0.6548172196
O   O29       1.0  0.68510  0.16296  0.06940  1.0000 -0.6140993794
O   O30       1.0  0.31490  0.66296  0.43060  1.0000 -0.6140993794
O   O31       1.0  0.31490  0.83704  0.93060  1.0000 -0.6140993794
O   O32       1.0  0.68510  0.33704  0.56940  1.0000 -0.6140993794
O   O33       1.0  0.95540  0.37860  0.45130  1.0000 -0.772477444
O   O34       1.0  0.04460  0.87860  0.04870  1.0000 -0.772477444
O   O35       1.0  0.04460  0.62140  0.54870  1.0000 -0.772477444
O   O36       1.0  0.95540  0.12140  0.95130  1.0000 -0.772477444
O   O37       1.0  0.37960  0.39971  0.64050  1.0000 -0.7802404722
O   O38       1.0  0.62040  0.89971  0.85950  1.0000 -0.7802404722
O   O39       1.0  0.62040  0.60029  0.35950  1.0000 -0.7802404722
O   O40       1.0  0.37960  0.10029  0.14050  1.0000 -0.7802404722
