# DDEC6 charges by PACMAN v1.1 (https://github.com/mtap-research/PACMAN-charge/)
data_2014[HoU][nan]3[FSR]1
_chemical_formula_sum              "Ho2 U3 H26 C30 O40"
_cell_length_a       10.5626
_cell_length_b       11.4559
_cell_length_c       13.4839
_cell_angle_alpha    69.112
_cell_angle_beta     78.889
_cell_angle_gamma    63.614

_symmetry_space_group_name_H-M    "P 1"
_symmetry_Int_Tables_number       1

loop_
  _symmetry_equiv_pos_as_xyz
  'x, y, z'

loop_
  _atom_site_type_symbol
  _atom_site_label
  _atom_site_symmetry_multiplicity
  _atom_site_fract_x
  _atom_site_fract_y
  _atom_site_fract_z
  _atom_site_occupancy
  _atom_site_charge
Ho  Ho1       1.0  0.59942  0.23148  0.75050  1.0000 2.13341226
Ho  Ho2       1.0  0.40058  0.76852  0.24950  1.0000 2.13341226
U   U1        1.0  0.62316  0.71341  0.83667  1.0000 2.4086344422
U   U2        1.0  0.37684  0.28659  0.16333  1.0000 2.4086344422
U   U3        1.0  0.00000  0.50000  0.50000  1.0000 2.381758231
H   H1        1.0  0.09870  0.36320  0.95530  1.0000 0.1400749119
H   H2        1.0  0.90130  0.63680  0.04470  1.0000 0.1400749119
H   H3        1.0  0.15710  0.11150  0.73410  1.0000 0.1400749119
H   H4        1.0  0.84290  0.88850  0.26590  1.0000 0.1400749119
H   H5        1.0  0.71380  0.99980  0.41690  1.0000 0.1264193834
H   H6        1.0  0.28620  0.00020  0.58310  1.0000 0.1264193834
H   H7        1.0  0.66230  0.18300  0.54820  1.0000 0.4097226045
H   H8        1.0  0.33770  0.81700  0.45180  1.0000 0.4097226045
H   H9        1.0  0.80210  0.09430  0.60940  1.0000 0.4298132838
H   H10       1.0  0.19790  0.90570  0.39060  1.0000 0.4298132838
H   H11       1.0  0.53160  0.48720  0.57150  1.0000 0.3828973354
H   H12       1.0  0.46840  0.51280  0.42850  1.0000 0.3828973354
H   H13       1.0  0.69250  0.43240  0.58780  1.0000 0.419035115
H   H14       1.0  0.30750  0.56760  0.41220  1.0000 0.419035115
H   H15       1.0  0.35880  0.45450  0.62220  1.0000 0.419035115
H   H16       1.0  0.64120  0.54550  0.37780  1.0000 0.419035115
H   H17       1.0  0.29590  0.35620  0.70450  1.0000 0.4097226045
H   H18       1.0  0.70410  0.64380  0.29550  1.0000 0.4097226045
H   H19       1.0  0.43800  0.48130  0.80940  1.0000 0.4368270294
H   H20       1.0  0.56200  0.51870  0.19060  1.0000 0.4368270294
H   H21       1.0  0.57910  0.40880  0.86850  1.0000 0.4368270294
H   H22       1.0  0.42090  0.59120  0.13150  1.0000 0.4368270294
H   H23       1.0  0.74020  0.94130  0.86020  1.0000 0.4097226045
H   H24       1.0  0.25980  0.05870  0.13980  1.0000 0.4097226045
H   H25       1.0  0.84860  0.00210  0.85340  1.0000 0.419035115
H   H26       1.0  0.15140  0.99790  0.14660  1.0000 0.419035115
C   C1        1.0  0.99770  0.34570  0.85000  1.0000 -0.0366486839
C   C2        1.0  0.00230  0.65430  0.15000  1.0000 -0.0366486839
C   C3        1.0  0.11300  0.31650  0.90720  1.0000 -0.0991165458
C   C4        1.0  0.88700  0.68350  0.09280  1.0000 -0.0991165458
C   C5        1.0  0.24830  0.21870  0.89270  1.0000 -0.0991165458
C   C6        1.0  0.75170  0.78130  0.10730  1.0000 -0.0991165458
C   C7        1.0  0.26690  0.14400  0.82260  1.0000 -0.0487122244
C   C8        1.0  0.73310  0.85600  0.17740  1.0000 -0.0487122244
C   C9        1.0  0.14700  0.16620  0.77460  1.0000 -0.1507722257
C   C10       1.0  0.85300  0.83380  0.22540  1.0000 -0.1507722257
C   C11       1.0  0.01460  0.26740  0.78620  1.0000 -0.0261141999
C   C12       1.0  0.98540  0.73260  0.21380  1.0000 -0.0261141999
C   C13       1.0  0.62810  0.99960  0.45010  1.0000 -0.1284263624
C   C14       1.0  0.37190  0.00040  0.54990  1.0000 -0.1284263624
C   C15       1.0  0.61800  0.87430  0.50570  1.0000 -0.0366486839
C   C16       1.0  0.38200  0.12570  0.49430  1.0000 -0.0366486839
C   C17       1.0  0.49100  0.87370  0.55610  1.0000 -0.0487122244
C   C18       1.0  0.50900  0.12630  0.44390  1.0000 -0.0487122244
C   C19       1.0  0.86180  0.46560  0.85410  1.0000 0.5587804497
C   C20       1.0  0.13820  0.53440  0.14590  1.0000 0.5587804497
C   C21       1.0  0.36340  0.19570  0.95540  1.0000 0.6431936802
C   C22       1.0  0.63660  0.80430  0.04460  1.0000 0.6431936802
C   C23       1.0  0.40740  0.04240  0.79780  1.0000 0.6332300485
C   C24       1.0  0.59260  0.95760  0.20220  1.0000 0.6332300485
C   C25       1.0  0.89430  0.29210  0.72490  1.0000 0.6609175981
C   C26       1.0  0.10570  0.70790  0.27510  1.0000 0.6609175981
C   C27       1.0  0.47170  0.74420  0.62200  1.0000 0.6198746742
C   C28       1.0  0.52830  0.25580  0.37800  1.0000 0.6198746742
C   C29       1.0  0.74430  0.74730  0.50790  1.0000 0.5650766076
C   C30       1.0  0.25570  0.25270  0.49210  1.0000 0.5650766076
O   O1        1.0  0.53130  0.63340  0.94460  1.0000 -0.6774427114
O   O2        1.0  0.46870  0.36660  0.05540  1.0000 -0.6774427114
O   O3        1.0  0.71670  0.79220  0.73100  1.0000 -0.6722835122
O   O4        1.0  0.28330  0.20780  0.26900  1.0000 -0.6722835122
O   O5        1.0  0.06940  0.49920  0.61020  1.0000 -0.6722835122
O   O6        1.0  0.93060  0.50080  0.38980  1.0000 -0.6722835122
O   O7        1.0  0.85090  0.53870  0.91190  1.0000 -0.5890935281
O   O8        1.0  0.14910  0.46130  0.08810  1.0000 -0.5890935281
O   O9        1.0  0.76220  0.49580  0.80100  1.0000 -0.5369646369
O   O10       1.0  0.23780  0.50420  0.19900  1.0000 -0.5369646369
O   O11       1.0  0.81450  0.23540  0.77090  1.0000 -0.6375185965
O   O12       1.0  0.18550  0.76460  0.22910  1.0000 -0.6375185965
O   O13       1.0  0.88720  0.36170  0.62800  1.0000 -0.5890935281
O   O14       1.0  0.11280  0.63830  0.37200  1.0000 -0.5890935281
O   O15       1.0  0.41680  0.92210  0.81750  1.0000 -0.6102173893
O   O16       1.0  0.58320  0.07790  0.18250  1.0000 -0.6102173893
O   O17       1.0  0.50230  0.08010  0.75400  1.0000 -0.6321003257
O   O18       1.0  0.49770  0.91990  0.24600  1.0000 -0.6321003257
O   O19       1.0  0.48160  0.18060  0.91510  1.0000 -0.6102173893
O   O20       1.0  0.51840  0.81940  0.08490  1.0000 -0.6102173893
O   O21       1.0  0.32700  0.19520  0.05190  1.0000 -0.6375185965
O   O22       1.0  0.67300  0.80480  0.94810  1.0000 -0.6375185965
O   O23       1.0  0.50270  0.69400  0.71840  1.0000 -0.6157168864
O   O24       1.0  0.49730  0.30600  0.28160  1.0000 -0.6157168864
O   O25       1.0  0.41700  0.69730  0.58010  1.0000 -0.5335633575
O   O26       1.0  0.58300  0.30270  0.41990  1.0000 -0.5335633575
O   O27       1.0  0.73700  0.63460  0.53680  1.0000 -0.5519897758
O   O28       1.0  0.26300  0.36540  0.46320  1.0000 -0.5519897758
O   O29       1.0  0.86590  0.75100  0.47760  1.0000 -0.5890935281
O   O30       1.0  0.13410  0.24900  0.52240  1.0000 -0.5890935281
O   O31       1.0  0.71060  0.15380  0.60670  1.0000 -0.8307253613
O   O32       1.0  0.28940  0.84620  0.39330  1.0000 -0.8307253613
O   O33       1.0  0.60990  0.42370  0.60680  1.0000 -0.8307253613
O   O34       1.0  0.39010  0.57630  0.39320  1.0000 -0.8307253613
O   O35       1.0  0.37020  0.37800  0.67720  1.0000 -0.8307253613
O   O36       1.0  0.62980  0.62200  0.32280  1.0000 -0.8307253613
O   O37       1.0  0.52310  0.41080  0.82480  1.0000 -0.8409395038
O   O38       1.0  0.47690  0.58920  0.17520  1.0000 -0.8409395038
O   O39       1.0  0.76310  0.01360  0.83960  1.0000 -0.8307253613
O   O40       1.0  0.23690  0.98640  0.16040  1.0000 -0.8307253613
