# DDEC6 charges by PACMAN v1.1 (https://github.com/mtap-research/PACMAN-charge/)
data_2014[Zn][nan]3[FSR]14
_chemical_formula_sum              "Zn12 H86 C174 N8 O60"
_cell_length_a       13.9309
_cell_length_b       13.9309
_cell_length_c       26.8248
_cell_angle_alpha    81.8902
_cell_angle_beta     98.1098
_cell_angle_gamma    93.324

_symmetry_space_group_name_H-M    "P 1"
_symmetry_Int_Tables_number       1

loop_
  _symmetry_equiv_pos_as_xyz
  'x, y, z'

loop_
  _atom_site_type_symbol
  _atom_site_label
  _atom_site_symmetry_multiplicity
  _atom_site_fract_x
  _atom_site_fract_y
  _atom_site_fract_z
  _atom_site_occupancy
  _atom_site_charge
Zn  Zn1       1.0  0.97085  0.99759  0.94490  1.0000 0.8919466726
Zn  Zn2       1.0  0.99759  0.97085  0.55510  1.0000 0.8919466726
Zn  Zn3       1.0  0.02915  0.00241  0.05510  1.0000 0.8919466726
Zn  Zn4       1.0  0.00241  0.02915  0.44490  1.0000 0.8919466726
Zn  Zn5       1.0  0.95627  0.22929  0.75717  1.0000 0.9342934481
Zn  Zn6       1.0  0.22929  0.95627  0.74283  1.0000 0.9342934481
Zn  Zn7       1.0  0.04373  0.77071  0.24283  1.0000 0.9342934481
Zn  Zn8       1.0  0.77071  0.04373  0.25717  1.0000 0.9377055757
Zn  Zn9       1.0  0.87040  0.44486  0.73616  1.0000 0.9377055757
Zn  Zn10      1.0  0.44486  0.87040  0.76384  1.0000 0.9377055757
Zn  Zn11      1.0  0.12960  0.55514  0.26384  1.0000 0.9377055757
Zn  Zn12      1.0  0.55514  0.12960  0.23616  1.0000 0.9377055757
H   H1        1.0  0.59920  0.83940  0.11730  1.0000 0.1395235534
H   H2        1.0  0.83940  0.59920  0.38270  1.0000 0.1395235534
H   H3        1.0  0.40080  0.16060  0.88270  1.0000 0.1395235534
H   H4        1.0  0.16060  0.40080  0.61730  1.0000 0.1395235534
H   H5        1.0  0.75500  0.88340  0.10110  1.0000 0.1313035598
H   H6        1.0  0.88340  0.75500  0.39890  1.0000 0.1313035598
H   H7        1.0  0.24500  0.11660  0.89890  1.0000 0.1313035598
H   H8        1.0  0.11660  0.24500  0.60110  1.0000 0.1313035598
H   H9        1.0  0.66780  0.91900  0.95110  1.0000 0.1313035598
H   H10       1.0  0.91900  0.66780  0.54890  1.0000 0.1313035598
H   H11       1.0  0.33220  0.08100  0.04890  1.0000 0.1313035598
H   H12       1.0  0.08100  0.33220  0.45110  1.0000 0.1313035598
H   H13       1.0  0.48120  0.91240  0.88610  1.0000 0.1395235534
H   H14       1.0  0.91240  0.48120  0.61390  1.0000 0.1395235534
H   H15       1.0  0.51880  0.08760  0.11390  1.0000 0.1395235534
H   H16       1.0  0.08760  0.51880  0.38610  1.0000 0.1395235534
H   H17       1.0  0.20420  0.85660  0.91000  1.0000 0.1313035598
H   H18       1.0  0.85660  0.20420  0.59000  1.0000 0.1313035598
H   H19       1.0  0.79580  0.14340  0.09000  1.0000 0.1313035598
H   H20       1.0  0.14340  0.79580  0.41000  1.0000 0.1313035598
H   H21       1.0  0.25210  0.82090  0.99650  1.0000 0.1313035598
H   H22       1.0  0.82090  0.25210  0.50350  1.0000 0.1313035598
H   H23       1.0  0.74790  0.17910  0.00350  1.0000 0.1313035598
H   H24       1.0  0.17910  0.74790  0.49650  1.0000 0.1313035598
H   H25       1.0  0.31370  0.92090  0.08210  1.0000 0.1395235534
H   H26       1.0  0.92090  0.31370  0.41790  1.0000 0.1395235534
H   H27       1.0  0.68630  0.07910  0.91790  1.0000 0.1395235534
H   H28       1.0  0.07910  0.68630  0.58210  1.0000 0.1395235534
H   H29       1.0  0.23350  0.86630  0.14990  1.0000 0.1395235534
H   H30       1.0  0.86630  0.23350  0.35010  1.0000 0.1395235534
H   H31       1.0  0.76650  0.13370  0.85010  1.0000 0.1395235534
H   H32       1.0  0.13370  0.76650  0.64990  1.0000 0.1395235534
H   H33       1.0  0.37550  0.62030  0.17200  1.0000 0.1395235534
H   H34       1.0  0.62030  0.37550  0.32800  1.0000 0.1395235534
H   H35       1.0  0.62450  0.37970  0.82800  1.0000 0.1395235534
H   H36       1.0  0.37970  0.62450  0.67200  1.0000 0.1395235534
H   H37       1.0  0.45780  0.67700  0.10560  1.0000 0.1395235534
H   H38       1.0  0.67700  0.45780  0.39440  1.0000 0.1395235534
H   H39       1.0  0.54220  0.32300  0.89440  1.0000 0.1395235534
H   H40       1.0  0.32300  0.54220  0.60560  1.0000 0.1395235534
H   H41       1.0  0.18570  0.28070  0.97160  1.0000 0.1313035598
H   H42       1.0  0.28070  0.18570  0.52840  1.0000 0.1313035598
H   H43       1.0  0.81430  0.71930  0.02840  1.0000 0.1313035598
H   H44       1.0  0.71930  0.81430  0.47160  1.0000 0.1313035598
H   H45       1.0  0.11260  0.27080  0.88900  1.0000 0.1179128077
H   H46       1.0  0.27080  0.11260  0.61100  1.0000 0.1179128077
H   H47       1.0  0.88740  0.72920  0.11100  1.0000 0.1179128077
H   H48       1.0  0.72920  0.88740  0.38900  1.0000 0.1179128077
H   H49       1.0  0.01930  0.54270  0.87500  1.0000 0.1395235534
H   H50       1.0  0.54270  0.01930  0.62500  1.0000 0.1395235534
H   H51       1.0  0.98070  0.45730  0.12500  1.0000 0.1395235534
H   H52       1.0  0.45730  0.98070  0.37500  1.0000 0.1395235534
H   H53       1.0  0.19720  0.55880  0.09630  1.0000 0.1395235534
H   H54       1.0  0.55880  0.19720  0.40370  1.0000 0.1395235534
H   H55       1.0  0.80280  0.44120  0.90370  1.0000 0.1395235534
H   H56       1.0  0.44120  0.80280  0.59630  1.0000 0.1395235534
H   H57       1.0  0.13580  0.71340  0.08580  1.0000 0.1179128077
H   H58       1.0  0.71340  0.13580  0.41420  1.0000 0.1179128077
H   H59       1.0  0.86420  0.28660  0.91420  1.0000 0.1179128077
H   H60       1.0  0.28660  0.86420  0.58580  1.0000 0.1179128077
H   H61       1.0  0.03380  0.69200  0.93880  1.0000 0.1313035598
H   H62       1.0  0.69200  0.03380  0.56120  1.0000 0.1313035598
H   H63       1.0  0.96620  0.30800  0.06120  1.0000 0.1313035598
H   H64       1.0  0.30800  0.96620  0.43880  1.0000 0.1313035598
H   H65       1.0  0.14140  0.25880  0.05950  1.0000 0.1313035598
H   H66       1.0  0.25880  0.14140  0.44050  1.0000 0.1313035598
H   H67       1.0  0.85860  0.74120  0.94050  1.0000 0.1313035598
H   H68       1.0  0.74120  0.85860  0.55950  1.0000 0.1313035598
H   H69       1.0  0.23720  0.16160  0.12130  1.0000 0.1395235534
H   H70       1.0  0.16160  0.23720  0.37870  1.0000 0.1395235534
H   H71       1.0  0.76280  0.83840  0.87870  1.0000 0.1395235534
H   H72       1.0  0.83840  0.76280  0.62130  1.0000 0.1395235534
H   H73       1.0  0.43660  0.37220  0.13180  1.0000 0.1313035598
H   H74       1.0  0.37220  0.43660  0.36820  1.0000 0.1313035598
H   H75       1.0  0.56340  0.62780  0.86820  1.0000 0.1313035598
H   H76       1.0  0.62780  0.56340  0.63180  1.0000 0.1313035598
H   H77       1.0  0.34440  0.47560  0.07020  1.0000 0.1313035598
H   H78       1.0  0.47560  0.34440  0.42980  1.0000 0.1313035598
H   H79       1.0  0.65560  0.52440  0.92980  1.0000 0.1313035598
H   H80       1.0  0.52440  0.65560  0.57020  1.0000 0.1313035598
H   H81       1.0  0.07690  0.07690  0.75000  1.0000 0.1140119202
H   H82       1.0  0.92310  0.92310  0.25000  1.0000 0.1140119202
H   H83       1.0  0.99710  0.12610  0.85810  1.0000 0.1179128077
H   H84       1.0  0.12610  0.99710  0.64190  1.0000 0.1179128077
H   H85       1.0  0.00290  0.87390  0.14190  1.0000 0.1179128077
H   H86       1.0  0.87390  0.00290  0.35810  1.0000 0.1179128077
C   C1        1.0  0.53860  0.85300  0.04300  1.0000 0.1313035598
C   C2        1.0  0.85300  0.53860  0.45700  1.0000 0.1313035598
C   C3        1.0  0.46140  0.14700  0.95700  1.0000 0.1313035598
C   C4        1.0  0.14700  0.46140  0.54300  1.0000 0.1313035598
C   C5        1.0  0.61260  0.85540  0.08410  1.0000 -0.1785076431
C   C6        1.0  0.85540  0.61260  0.41590  1.0000 -0.1785076431
C   C7        1.0  0.38740  0.14460  0.91590  1.0000 -0.1785076431
C   C8        1.0  0.14460  0.38740  0.58410  1.0000 -0.1785076431
C   C9        1.0  0.70500  0.88160  0.07430  1.0000 -0.0894619691
C   C10       1.0  0.88160  0.70500  0.42570  1.0000 -0.0894619691
C   C11       1.0  0.29500  0.11840  0.92570  1.0000 -0.0894619691
C   C12       1.0  0.11840  0.29500  0.57430  1.0000 -0.0894619691
C   C13       1.0  0.72520  0.90620  0.02360  1.0000 -0.0316957845
C   C14       1.0  0.90620  0.72520  0.47640  1.0000 -0.0316957845
C   C15       1.0  0.27480  0.09380  0.97640  1.0000 -0.0316957845
C   C16       1.0  0.09380  0.27480  0.52360  1.0000 -0.0316957845
C   C17       1.0  0.65350  0.90390  0.98420  1.0000 -0.1277209379
C   C18       1.0  0.90390  0.65350  0.51580  1.0000 -0.1277209379
C   C19       1.0  0.34650  0.09610  0.01580  1.0000 -0.1277209379
C   C20       1.0  0.09610  0.34650  0.48420  1.0000 -0.1277209379
C   C21       1.0  0.55700  0.87880  0.99280  1.0000 -0.0207416579
C   C22       1.0  0.87880  0.55700  0.50720  1.0000 -0.0207416579
C   C23       1.0  0.44300  0.12120  0.00720  1.0000 -0.0207416579
C   C24       1.0  0.12120  0.44300  0.49280  1.0000 -0.0207416579
C   C25       1.0  0.46640  0.87780  0.96070  1.0000 -0.0031128341
C   C26       1.0  0.87780  0.46640  0.53930  1.0000 -0.0031128341
C   C27       1.0  0.53360  0.12220  0.03930  1.0000 -0.0031128341
C   C28       1.0  0.12220  0.53360  0.46070  1.0000 -0.0031128341
C   C29       1.0  0.43580  0.89560  0.90850  1.0000 -0.1277209379
C   C30       1.0  0.89560  0.43580  0.59150  1.0000 -0.1277209379
C   C31       1.0  0.56420  0.10440  0.09150  1.0000 -0.1277209379
C   C32       1.0  0.10440  0.56420  0.40850  1.0000 -0.1277209379
C   C33       1.0  0.33850  0.88850  0.89010  1.0000 -0.0316957845
C   C34       1.0  0.88850  0.33850  0.60990  1.0000 -0.0316957845
C   C35       1.0  0.66150  0.11150  0.10990  1.0000 -0.0316957845
C   C36       1.0  0.11150  0.66150  0.39010  1.0000 -0.0316957845
C   C37       1.0  0.26960  0.86120  0.92300  1.0000 -0.0822953138
C   C38       1.0  0.86120  0.26960  0.57700  1.0000 -0.0822953138
C   C39       1.0  0.73040  0.13880  0.07700  1.0000 -0.0822953138
C   C40       1.0  0.13880  0.73040  0.42300  1.0000 -0.0822953138
C   C41       1.0  0.29770  0.84110  0.97470  1.0000 -0.1693414951
C   C42       1.0  0.84110  0.29770  0.52530  1.0000 -0.1693414951
C   C43       1.0  0.70230  0.15890  0.02530  1.0000 -0.1693414951
C   C44       1.0  0.15890  0.70230  0.47470  1.0000 -0.1693414951
C   C45       1.0  0.39510  0.85150  0.99350  1.0000 0.1313035598
C   C46       1.0  0.85150  0.39510  0.50650  1.0000 0.1313035598
C   C47       1.0  0.60490  0.14850  0.00650  1.0000 0.1313035598
C   C48       1.0  0.14850  0.60490  0.49350  1.0000 0.1313035598
C   C49       1.0  0.39280  0.80280  0.08660  1.0000 0.1637640439
C   C50       1.0  0.80280  0.39280  0.41340  1.0000 0.1637640439
C   C51       1.0  0.60720  0.19720  0.91340  1.0000 0.1637640439
C   C52       1.0  0.19720  0.60720  0.58660  1.0000 0.1637640439
C   C53       1.0  0.32600  0.86000  0.10040  1.0000 -0.1481104054
C   C54       1.0  0.86000  0.32600  0.39960  1.0000 -0.1481104054
C   C55       1.0  0.67400  0.14000  0.89960  1.0000 -0.1481104054
C   C56       1.0  0.14000  0.67400  0.60040  1.0000 -0.1481104054
C   C57       1.0  0.27820  0.82720  0.14060  1.0000 -0.0734228481
C   C58       1.0  0.82720  0.27820  0.35940  1.0000 -0.0734228481
C   C59       1.0  0.72180  0.17280  0.85940  1.0000 -0.0734228481
C   C60       1.0  0.17280  0.72180  0.64060  1.0000 -0.0734228481
C   C61       1.0  0.29500  0.73640  0.16800  1.0000 -0.0207416579
C   C62       1.0  0.73640  0.29500  0.33200  1.0000 -0.0207416579
C   C63       1.0  0.70500  0.26360  0.83200  1.0000 -0.0207416579
C   C64       1.0  0.26360  0.70500  0.66800  1.0000 -0.0207416579
C   C65       1.0  0.36270  0.68130  0.15400  1.0000 -0.0822953138
C   C66       1.0  0.68130  0.36270  0.34600  1.0000 -0.0822953138
C   C67       1.0  0.63730  0.31870  0.84600  1.0000 -0.0822953138
C   C68       1.0  0.31870  0.63730  0.65400  1.0000 -0.0822953138
C   C69       1.0  0.41130  0.71490  0.11410  1.0000 -0.1785076431
C   C70       1.0  0.71490  0.41130  0.38590  1.0000 -0.1693414951
C   C71       1.0  0.58870  0.28510  0.88590  1.0000 -0.1785076431
C   C72       1.0  0.28510  0.58870  0.61410  1.0000 -0.1785076431
C   C73       1.0  0.82700  0.94040  0.01500  1.0000 0.5866397611
C   C74       1.0  0.94040  0.82700  0.48500  1.0000 0.5866397611
C   C75       1.0  0.17300  0.05960  0.98500  1.0000 0.5866397611
C   C76       1.0  0.05960  0.17300  0.51500  1.0000 0.5866397611
C   C77       1.0  0.30540  0.91020  0.83450  1.0000 0.5866397611
C   C78       1.0  0.91020  0.30540  0.66550  1.0000 0.5866397611
C   C79       1.0  0.69460  0.08980  0.16550  1.0000 0.5866397611
C   C80       1.0  0.08980  0.69460  0.33450  1.0000 0.5866397611
C   C81       1.0  0.23410  0.70110  0.20950  1.0000 0.5780952714
C   C82       1.0  0.70110  0.23410  0.29050  1.0000 0.5780952714
C   C83       1.0  0.76590  0.29890  0.79050  1.0000 0.5780952714
C   C84       1.0  0.29890  0.76590  0.70950  1.0000 0.5780952714
C   C85       1.0  0.14200  0.41720  0.97250  1.0000 0.1395235534
C   C86       1.0  0.41720  0.14200  0.52750  1.0000 0.1395235534
C   C87       1.0  0.85800  0.58280  0.02750  1.0000 0.1395235534
C   C88       1.0  0.58280  0.85800  0.47250  1.0000 0.1395235534
C   C89       1.0  0.15170  0.33210  0.95260  1.0000 -0.1693414951
C   C90       1.0  0.33210  0.15170  0.54740  1.0000 -0.1693414951
C   C91       1.0  0.84830  0.66790  0.04740  1.0000 -0.1693414951
C   C92       1.0  0.66790  0.84830  0.45260  1.0000 -0.1693414951
C   C93       1.0  0.10870  0.32730  0.90330  1.0000 -0.0894619691
C   C94       1.0  0.32730  0.10870  0.59670  1.0000 -0.0894619691
C   C95       1.0  0.89130  0.67270  0.09670  1.0000 -0.0894619691
C   C96       1.0  0.67270  0.89130  0.40330  1.0000 -0.0894619691
C   C97       1.0  0.05890  0.40670  0.87400  1.0000 -0.0316957845
C   C98       1.0  0.40670  0.05890  0.62600  1.0000 -0.0316957845
C   C99       1.0  0.94110  0.59330  0.12600  1.0000 -0.0316957845
C   C100      1.0  0.59330  0.94110  0.37400  1.0000 -0.0316957845
C   C101      1.0  0.05190  0.49070  0.89420  1.0000 -0.1213296809
C   C102      1.0  0.49070  0.05190  0.60580  1.0000 -0.1213296809
C   C103      1.0  0.94810  0.50930  0.10580  1.0000 -0.1213296809
C   C104      1.0  0.50930  0.94810  0.39420  1.0000 -0.1213296809
C   C105      1.0  0.09420  0.49720  0.94380  1.0000 -0.0094444632
C   C106      1.0  0.49720  0.09420  0.55620  1.0000 -0.0094444632
C   C107      1.0  0.90580  0.50280  0.05620  1.0000 -0.0094444632
C   C108      1.0  0.50280  0.90580  0.44380  1.0000 -0.0094444632
C   C109      1.0  0.09990  0.57210  0.97700  1.0000 -0.0094444632
C   C110      1.0  0.57210  0.09990  0.52300  1.0000 -0.0094444632
C   C111      1.0  0.90010  0.42790  0.02300  1.0000 -0.0094444632
C   C112      1.0  0.42790  0.90010  0.47700  1.0000 -0.0094444632
C   C113      1.0  0.14720  0.53280  0.02420  1.0000 0.1313035598
C   C114      1.0  0.53280  0.14720  0.47580  1.0000 0.1313035598
C   C115      1.0  0.85280  0.46720  0.97580  1.0000 0.1313035598
C   C116      1.0  0.46720  0.85280  0.52420  1.0000 0.1313035598
C   C117      1.0  0.16380  0.58500  0.06540  1.0000 -0.1785076431
C   C118      1.0  0.58500  0.16380  0.43460  1.0000 -0.1785076431
C   C119      1.0  0.83620  0.41500  0.93460  1.0000 -0.1785076431
C   C120      1.0  0.41500  0.83620  0.56540  1.0000 -0.1785076431
C   C121      1.0  0.12840  0.67820  0.05840  1.0000 -0.0822953138
C   C122      1.0  0.67820  0.12840  0.44160  1.0000 -0.0822953138
C   C123      1.0  0.87160  0.32180  0.94160  1.0000 -0.0822953138
C   C124      1.0  0.32180  0.87160  0.55840  1.0000 -0.0822953138
C   C125      1.0  0.08150  0.72070  0.01090  1.0000 -0.0528495944
C   C126      1.0  0.72070  0.08150  0.48910  1.0000 -0.0528495944
C   C127      1.0  0.91850  0.27930  0.98910  1.0000 -0.0528495944
C   C128      1.0  0.27930  0.91850  0.51090  1.0000 -0.0528495944
C   C129      1.0  0.06620  0.66580  0.97010  1.0000 -0.1385729768
C   C130      1.0  0.66580  0.06620  0.52990  1.0000 -0.1385729768
C   C131      1.0  0.93380  0.33420  0.02990  1.0000 -0.1385729768
C   C132      1.0  0.33420  0.93380  0.47010  1.0000 -0.1385729768
C   C133      1.0  0.23160  0.37680  0.05940  1.0000 0.1729085885
C   C134      1.0  0.37680  0.23160  0.44060  1.0000 0.1729085885
C   C135      1.0  0.76840  0.62320  0.94060  1.0000 0.1729085885
C   C136      1.0  0.62320  0.76840  0.55940  1.0000 0.1729085885
C   C137      1.0  0.20070  0.28310  0.07410  1.0000 -0.1693414951
C   C138      1.0  0.28310  0.20070  0.42590  1.0000 -0.1693414951
C   C139      1.0  0.79930  0.71690  0.92590  1.0000 -0.1693414951
C   C140      1.0  0.71690  0.79930  0.57410  1.0000 -0.1693414951
C   C141      1.0  0.26010  0.22450  0.11150  1.0000 -0.0734228481
C   C142      1.0  0.22450  0.26010  0.38850  1.0000 -0.0734228481
C   C143      1.0  0.73990  0.77550  0.88850  1.0000 -0.0734228481
C   C144      1.0  0.77550  0.73990  0.61150  1.0000 -0.0734228481
C   C145      1.0  0.34610  0.25190  0.13390  1.0000 -0.0360381518
C   C146      1.0  0.25190  0.34610  0.36610  1.0000 -0.0360381518
C   C147      1.0  0.65390  0.74810  0.86610  1.0000 -0.0360381518
C   C148      1.0  0.74810  0.65390  0.63390  1.0000 -0.0360381518
C   C149      1.0  0.37660  0.34940  0.11720  1.0000 -0.0822953138
C   C150      1.0  0.34940  0.37660  0.38280  1.0000 -0.0822953138
C   C151      1.0  0.62340  0.65060  0.88280  1.0000 -0.0822953138
C   C152      1.0  0.65060  0.62340  0.61720  1.0000 -0.0822953138
C   C153      1.0  0.32180  0.41280  0.08030  1.0000 -0.1967728295
C   C154      1.0  0.41280  0.32180  0.41970  1.0000 -0.1967728295
C   C155      1.0  0.67820  0.58720  0.91970  1.0000 -0.1967728295
C   C156      1.0  0.58720  0.67820  0.58030  1.0000 -0.1967728295
C   C157      1.0  0.00830  0.39190  0.82260  1.0000 0.600043311
C   C158      1.0  0.39190  0.00830  0.67740  1.0000 0.600043311
C   C159      1.0  0.99170  0.60810  0.17740  1.0000 0.600043311
C   C160      1.0  0.60810  0.99170  0.32260  1.0000 0.600043311
C   C161      1.0  0.04850  0.82110  0.00500  1.0000 0.5741263322
C   C162      1.0  0.82110  0.04850  0.49500  1.0000 0.5741263322
C   C163      1.0  0.95150  0.17890  0.99500  1.0000 0.5741263322
C   C164      1.0  0.17890  0.95150  0.50500  1.0000 0.5741263322
C   C165      1.0  0.40330  0.18450  0.17460  1.0000 0.5580998652
C   C166      1.0  0.18450  0.40330  0.32540  1.0000 0.5580998652
C   C167      1.0  0.59670  0.81550  0.82540  1.0000 0.5580998652
C   C168      1.0  0.81550  0.59670  0.67460  1.0000 0.5580998652
C   C169      1.0  0.12560  0.12560  0.75000  1.0000 0.500529959
C   C170      1.0  0.87440  0.87440  0.25000  1.0000 0.500529959
C   C171      1.0  0.95870  0.07870  0.84270  1.0000 0.500529959
C   C172      1.0  0.07870  0.95870  0.65730  1.0000 0.500529959
C   C173      1.0  0.04130  0.92130  0.15730  1.0000 0.500529959
C   C174      1.0  0.92130  0.04130  0.34270  1.0000 0.500529959
N   N1        1.0  0.43980  0.83680  0.04320  1.0000 -0.0894619691
N   N2        1.0  0.83680  0.43980  0.45680  1.0000 -0.0894619691
N   N3        1.0  0.56020  0.16320  0.95680  1.0000 -0.0894619691
N   N4        1.0  0.16320  0.56020  0.54320  1.0000 -0.0894619691
N   N5        1.0  0.17540  0.43960  0.02060  1.0000 -0.0894619691
N   N6        1.0  0.43960  0.17540  0.47940  1.0000 -0.0894619691
N   N7        1.0  0.82460  0.56040  0.97940  1.0000 -0.0894619691
N   N8        1.0  0.56040  0.82460  0.52060  1.0000 -0.0894619691
O   O1        1.0  0.84210  0.95530  0.96930  1.0000 -0.530580134
O   O2        1.0  0.95530  0.84210  0.53070  1.0000 -0.530580134
O   O3        1.0  0.15790  0.04470  0.03070  1.0000 -0.530580134
O   O4        1.0  0.04470  0.15790  0.46930  1.0000 -0.530580134
O   O5        1.0  0.88860  0.95100  0.05290  1.0000 -0.5611373939
O   O6        1.0  0.95100  0.88860  0.44710  1.0000 -0.5611373939
O   O7        1.0  0.11140  0.04900  0.94710  1.0000 -0.5611373939
O   O8        1.0  0.04900  0.11140  0.55290  1.0000 -0.5611373939
O   O9        1.0  0.36760  0.93960  0.80370  1.0000 -0.5844854124
O   O10       1.0  0.93960  0.36760  0.69630  1.0000 -0.5844854124
O   O11       1.0  0.63240  0.06040  0.19630  1.0000 -0.5844854124
O   O12       1.0  0.06040  0.63240  0.30370  1.0000 -0.5844854124
O   O13       1.0  0.21690  0.90430  0.81770  1.0000 -0.4995263525
O   O14       1.0  0.90430  0.21690  0.68230  1.0000 -0.4995263525
O   O15       1.0  0.78310  0.09570  0.18230  1.0000 -0.4995263525
O   O16       1.0  0.09570  0.78310  0.31770  1.0000 -0.4995263525
O   O17       1.0  0.19110  0.75690  0.22890  1.0000 -0.5213514053
O   O18       1.0  0.75690  0.19110  0.27110  1.0000 -0.5213514053
O   O19       1.0  0.80890  0.24310  0.77110  1.0000 -0.5213514053
O   O20       1.0  0.24310  0.80890  0.72890  1.0000 -0.5213514053
O   O21       1.0  0.23010  0.61190  0.22210  1.0000 -0.5081439324
O   O22       1.0  0.61190  0.23010  0.27790  1.0000 -0.5081439324
O   O23       1.0  0.76990  0.38810  0.77790  1.0000 -0.5081439324
O   O24       1.0  0.38810  0.76990  0.72210  1.0000 -0.5081439324
O   O25       1.0  0.00400  0.30840  0.81150  1.0000 -0.5611373939
O   O26       1.0  0.30840  0.00400  0.68850  1.0000 -0.5611373939
O   O27       1.0  0.99600  0.69160  0.18850  1.0000 -0.5611373939
O   O28       1.0  0.69160  0.99600  0.31150  1.0000 -0.5611373939
O   O29       1.0  0.97040  0.46480  0.79380  1.0000 -0.530580134
O   O30       1.0  0.46480  0.97040  0.70620  1.0000 -0.530580134
O   O31       1.0  0.02960  0.53520  0.20620  1.0000 -0.530580134
O   O32       1.0  0.53520  0.02960  0.29380  1.0000 -0.530580134
O   O33       1.0  0.01410  0.85870  0.96120  1.0000 -0.530580134
O   O34       1.0  0.85870  0.01410  0.53880  1.0000 -0.530580134
O   O35       1.0  0.98590  0.14130  0.03880  1.0000 -0.530580134
O   O36       1.0  0.14130  0.98590  0.46120  1.0000 -0.530580134
O   O37       1.0  0.06120  0.86260  0.04430  1.0000 -0.5611373939
O   O38       1.0  0.86260  0.06120  0.45570  1.0000 -0.5611373939
O   O39       1.0  0.93880  0.13740  0.95570  1.0000 -0.5611373939
O   O40       1.0  0.13740  0.93880  0.54430  1.0000 -0.5611373939
O   O41       1.0  0.48340  0.22300  0.18450  1.0000 -0.4995263525
O   O42       1.0  0.22300  0.48340  0.31550  1.0000 -0.4995263525
O   O43       1.0  0.51660  0.77700  0.81550  1.0000 -0.4995263525
O   O44       1.0  0.77700  0.51660  0.68450  1.0000 -0.4995263525
O   O45       1.0  0.37410  0.10250  0.18880  1.0000 -0.5213514053
O   O46       1.0  0.10250  0.37410  0.31120  1.0000 -0.5213514053
O   O47       1.0  0.62590  0.89750  0.81120  1.0000 -0.5213514053
O   O48       1.0  0.89750  0.62590  0.68880  1.0000 -0.5213514053
O   O49       1.0  0.09730  0.20710  0.75000  1.0000 -0.4316810452
O   O50       1.0  0.20710  0.09730  0.75000  1.0000 -0.4316810452
O   O51       1.0  0.90270  0.79290  0.25000  1.0000 -0.4316810452
O   O52       1.0  0.79290  0.90270  0.25000  1.0000 -0.4316810452
O   O53       1.0  0.93660  0.09300  0.79450  1.0000 -0.4787951119
O   O54       1.0  0.09300  0.93660  0.70550  1.0000 -0.4787951119
O   O55       1.0  0.06340  0.90700  0.20550  1.0000 -0.4787951119
O   O56       1.0  0.90700  0.06340  0.29450  1.0000 -0.4787951119
O   O57       1.0  0.93270  0.00710  0.87000  1.0000 -0.4147009857
O   O58       1.0  0.00710  0.93270  0.63000  1.0000 -0.4147009857
O   O59       1.0  0.06730  0.99290  0.13000  1.0000 -0.4147009857
O   O60       1.0  0.99290  0.06730  0.37000  1.0000 -0.4147009857
