# DDEC6 charges by PACMAN v1.1 (https://github.com/mtap-research/PACMAN-charge/)
data_2014[Co][nan]3[FSR]34
_chemical_formula_sum              "Co4 H16 C24 N8 O16"
_cell_length_a       8.9199
_cell_length_b       9.4566
_cell_length_c       10.414
_cell_angle_alpha    90
_cell_angle_beta     90
_cell_angle_gamma    90

_symmetry_space_group_name_H-M    "P 1"
_symmetry_Int_Tables_number       1

loop_
  _symmetry_equiv_pos_as_xyz
  'x, y, z'

loop_
  _atom_site_type_symbol
  _atom_site_label
  _atom_site_symmetry_multiplicity
  _atom_site_fract_x
  _atom_site_fract_y
  _atom_site_fract_z
  _atom_site_occupancy
  _atom_site_charge
Co  Co1       1.0  0.79756  0.55381  0.27399  1.0000 0.8036702248
Co  Co2       1.0  0.70244  0.44619  0.77399  1.0000 0.8036702248
Co  Co3       1.0  0.29756  0.94619  0.72601  1.0000 0.8036702248
Co  Co4       1.0  0.20244  0.05381  0.22601  1.0000 0.8036702248
H   H1        1.0  0.03730  0.33530  0.19640  1.0000 0.130321973
H   H2        1.0  0.46270  0.66470  0.69640  1.0000 0.130321973
H   H3        1.0  0.53730  0.16470  0.80360  1.0000 0.130321973
H   H4        1.0  0.96270  0.83530  0.30360  1.0000 0.130321973
H   H5        1.0  0.43900  0.22000  0.06810  1.0000 0.1201446289
H   H6        1.0  0.06100  0.78000  0.56810  1.0000 0.1201446289
H   H7        1.0  0.93900  0.28000  0.93190  1.0000 0.1201446289
H   H8        1.0  0.56100  0.72000  0.43190  1.0000 0.1201446289
H   H9        1.0  0.35400  0.23280  0.43450  1.0000 0.1201446289
H   H10       1.0  0.14600  0.76720  0.93450  1.0000 0.1201446289
H   H11       1.0  0.85400  0.26720  0.56550  1.0000 0.1201446289
H   H12       1.0  0.64600  0.73280  0.06550  1.0000 0.1201446289
H   H13       1.0  0.54760  0.39250  0.46560  1.0000 0.130321973
H   H14       1.0  0.95240  0.60750  0.96560  1.0000 0.130321973
H   H15       1.0  0.04760  0.10750  0.53440  1.0000 0.130321973
H   H16       1.0  0.45240  0.89250  0.03440  1.0000 0.130321973
C   C1        1.0  0.00480  0.30630  0.27700  1.0000 0.4456903311
C   C2        1.0  0.49520  0.69370  0.77700  1.0000 0.4445040347
C   C3        1.0  0.50480  0.19370  0.72300  1.0000 0.4445040347
C   C4        1.0  0.99520  0.80630  0.22300  1.0000 0.4456903311
C   C5        1.0  0.67560  0.39780  0.05820  1.0000 0.511948553
C   C6        1.0  0.82440  0.60220  0.55820  1.0000 0.511948553
C   C7        1.0  0.17560  0.10220  0.94180  1.0000 0.511948553
C   C8        1.0  0.32440  0.89780  0.44180  1.0000 0.511948553
C   C9        1.0  0.58150  0.34510  0.17040  1.0000 0.102119294
C   C10       1.0  0.91850  0.65490  0.67040  1.0000 0.102119294
C   C11       1.0  0.08150  0.15490  0.82960  1.0000 0.102119294
C   C12       1.0  0.41850  0.84510  0.32960  1.0000 0.102119294
C   C13       1.0  0.46150  0.25140  0.15050  1.0000 0.0241652327
C   C14       1.0  0.03850  0.74860  0.65050  1.0000 0.0241652327
C   C15       1.0  0.96150  0.24860  0.84950  1.0000 0.0241652327
C   C16       1.0  0.53850  0.75140  0.34950  1.0000 0.0241652327
C   C17       1.0  0.41180  0.26110  0.36470  1.0000 0.0299877199
C   C18       1.0  0.08820  0.73890  0.86470  1.0000 0.0299877199
C   C19       1.0  0.91180  0.23890  0.63530  1.0000 0.0299877199
C   C20       1.0  0.58820  0.76110  0.13530  1.0000 0.0299877199
C   C21       1.0  0.52770  0.35710  0.38400  1.0000 -0.0023863135
C   C22       1.0  0.97230  0.64290  0.88400  1.0000 -0.0023863135
C   C23       1.0  0.02770  0.14290  0.61600  1.0000 -0.0023863135
C   C24       1.0  0.47230  0.85710  0.11600  1.0000 -0.0023863135
N   N1        1.0  0.61360  0.39950  0.27900  1.0000 -0.2423752798
N   N2        1.0  0.88640  0.60050  0.77900  1.0000 -0.2423752798
N   N3        1.0  0.11360  0.10050  0.72100  1.0000 -0.2423752798
N   N4        1.0  0.38640  0.89950  0.22100  1.0000 -0.2423752798
N   N5        1.0  0.38140  0.20850  0.24880  1.0000 -0.2126245638
N   N6        1.0  0.11860  0.79150  0.74880  1.0000 -0.2126245638
N   N7        1.0  0.88140  0.29150  0.75120  1.0000 -0.2126245638
N   N8        1.0  0.61860  0.70850  0.25120  1.0000 -0.2126245638
O   O1        1.0  0.93130  0.39050  0.32960  1.0000 -0.4302233783
O   O2        1.0  0.56870  0.60950  0.82960  1.0000 -0.4302233783
O   O3        1.0  0.43130  0.10950  0.67040  1.0000 -0.4302233783
O   O4        1.0  0.06870  0.89050  0.17040  1.0000 -0.4302233783
O   O5        1.0  0.04700  0.19020  0.30570  1.0000 -0.451657298
O   O6        1.0  0.45300  0.80980  0.80570  1.0000 -0.451657298
O   O7        1.0  0.54700  0.30980  0.69430  1.0000 -0.451657298
O   O8        1.0  0.95300  0.69020  0.19430  1.0000 -0.451657298
O   O9        1.0  0.77850  0.48060  0.08460  1.0000 -0.5307776211
O   O10       1.0  0.72150  0.51940  0.58460  1.0000 -0.5307776211
O   O11       1.0  0.27850  0.01940  0.91540  1.0000 -0.5307776211
O   O12       1.0  0.22150  0.98060  0.41540  1.0000 -0.5307776211
O   O13       1.0  0.64410  0.35310  0.94820  1.0000 -0.5478769568
O   O14       1.0  0.85590  0.64690  0.44820  1.0000 -0.5478769568
O   O15       1.0  0.14410  0.14690  0.05180  1.0000 -0.5478769568
O   O16       1.0  0.35590  0.85310  0.55180  1.0000 -0.5478769568
