# DDEC6 charges by PACMAN v1.1 (https://github.com/mtap-research/PACMAN-charge/)
data_2014[CrZn][pcu]3[FSR]1
_chemical_formula_sum              "Zn1 Cr1 H18 C14 N4 O4"
_cell_length_a       9.41933
_cell_length_b       9.41933
_cell_length_c       6.939
_cell_angle_alpha    88.934
_cell_angle_beta     91.066
_cell_angle_gamma    94.6465

_symmetry_space_group_name_H-M    "P 1"
_symmetry_Int_Tables_number       1

loop_
  _symmetry_equiv_pos_as_xyz
  'x, y, z'

loop_
  _atom_site_type_symbol
  _atom_site_label
  _atom_site_symmetry_multiplicity
  _atom_site_fract_x
  _atom_site_fract_y
  _atom_site_fract_z
  _atom_site_occupancy
  _atom_site_charge
Zn  Zn1       1.0  0.11503  0.11503  0.50000  1.0000 0.7592235591
Cr  Cr1       1.0  0.19036  0.19036  0.00000  1.0000 1.7452548529
H   H1        1.0  0.39940  0.29060  0.67720  1.0000 0.1040522839
H   H2        1.0  0.29060  0.39940  0.32280  1.0000 0.1040522839
H   H3        1.0  0.48770  0.31550  0.48800  1.0000 0.1091799002
H   H4        1.0  0.31550  0.48770  0.51200  1.0000 0.1091799002
H   H5        1.0  0.40180  0.03080  0.71300  1.0000 0.1194460142
H   H6        1.0  0.03080  0.40180  0.28700  1.0000 0.1194460142
H   H7        1.0  0.39430  0.93970  0.52610  1.0000 0.1194460142
H   H8        1.0  0.93970  0.39430  0.47390  1.0000 0.1194460142
H   H9        1.0  0.63600  0.06140  0.84140  1.0000 0.1460214342
H   H10       1.0  0.06140  0.63600  0.15860  1.0000 0.1460214342
H   H11       1.0  0.87760  0.10620  0.80820  1.0000 0.1091799002
H   H12       1.0  0.10620  0.87760  0.19180  1.0000 0.1091799002
H   H13       1.0  0.84050  0.10230  0.25540  1.0000 0.1091799002
H   H14       1.0  0.10230  0.84050  0.74460  1.0000 0.1091799002
H   H15       1.0  0.59720  0.05100  0.27360  1.0000 0.1436916973
H   H16       1.0  0.05100  0.59720  0.72640  1.0000 0.1436916973
H   H17       1.0  0.36700  0.13720  0.34880  1.0000 0.2454245027
H   H18       1.0  0.13720  0.36700  0.65120  1.0000 0.2454245027
C   C1        1.0  0.39360  0.28800  0.53760  1.0000 -0.0887629156
C   C2        1.0  0.28800  0.39360  0.46240  1.0000 -0.0887629156
C   C3        1.0  0.42580  0.03220  0.57760  1.0000 -0.1461978321
C   C4        1.0  0.03220  0.42580  0.42240  1.0000 -0.1461978321
C   C5        1.0  0.58470  0.05490  0.56100  1.0000 0.1436916973
C   C6        1.0  0.05490  0.58470  0.43900  1.0000 0.1436916973
C   C7        1.0  0.67390  0.06870  0.71840  1.0000 -0.2037917365
C   C8        1.0  0.06870  0.67390  0.28160  1.0000 -0.2037917365
C   C9        1.0  0.82110  0.09350  0.69740  1.0000 0.0769691552
C   C10       1.0  0.09350  0.82110  0.30260  1.0000 0.0769691552
C   C11       1.0  0.80010  0.09050  0.37660  1.0000 0.0893225681
C   C12       1.0  0.09050  0.80010  0.62340  1.0000 0.0893225681
C   C13       1.0  0.65110  0.06330  0.38660  1.0000 -0.2051570777
C   C14       1.0  0.06330  0.65110  0.61340  1.0000 -0.2051570777
N   N1        1.0  0.34710  0.14190  0.47630  1.0000 -0.3052364205
N   N2        1.0  0.14190  0.34710  0.52370  1.0000 -0.3052364205
N   N3        1.0  0.88520  0.10000  0.52800  1.0000 -0.2193120335
N   N4        1.0  0.10000  0.88520  0.47200  1.0000 -0.2193120335
O   O1        1.0  0.13920  0.09420  0.81020  1.0000 -0.8167494748
O   O2        1.0  0.09420  0.13920  0.18980  1.0000 -0.8167494748
O   O3        1.0  0.35990  0.17110  0.04770  1.0000 -0.7826367829
O   O4        1.0  0.17110  0.35990  0.95230  1.0000 -0.7826367829
