# DDEC6 charges by PACMAN v1.1 (https://github.com/mtap-research/PACMAN-charge/)
data_2014[Cd][bnn]3[FSR]1
_chemical_formula_sum              "Cd3 H62 C64 S2 N24 O18"
_cell_length_a       10.187
_cell_length_b       13.377
_cell_length_c       17.241
_cell_angle_alpha    101.129
_cell_angle_beta     100.063
_cell_angle_gamma    93.506

_symmetry_space_group_name_H-M    "P 1"
_symmetry_Int_Tables_number       1

loop_
  _symmetry_equiv_pos_as_xyz
  'x, y, z'

loop_
  _atom_site_type_symbol
  _atom_site_label
  _atom_site_symmetry_multiplicity
  _atom_site_fract_x
  _atom_site_fract_y
  _atom_site_fract_z
  _atom_site_occupancy
  _atom_site_charge
Cd  Cd1       1.0  0.50000  0.50000  0.50000  1.0000 0.9060804898
Cd  Cd2       1.0  0.72178  0.92000  0.85012  1.0000 0.8136347288
Cd  Cd3       1.0  0.27822  0.08000  0.14988  1.0000 0.8136347288
H   H1        1.0  0.81350  0.16520  0.36450  1.0000 0.121017434
H   H2        1.0  0.18650  0.83480  0.63550  1.0000 0.121017434
H   H3        1.0  0.74870  0.00990  0.39570  1.0000 0.121017434
H   H4        1.0  0.25130  0.99010  0.60430  1.0000 0.121017434
H   H5        1.0  0.94400  0.11080  0.62340  1.0000 0.121017434
H   H6        1.0  0.05600  0.88920  0.37660  1.0000 0.121017434
H   H7        1.0  0.00510  0.26550  0.59330  1.0000 0.1305742657
H   H8        1.0  0.99490  0.73450  0.40670  1.0000 0.1305742657
H   H9        1.0  0.90020  0.33880  0.40380  1.0000 0.1305742657
H   H10       1.0  0.09980  0.66120  0.59620  1.0000 0.1305742657
H   H11       1.0  0.94000  0.38900  0.49680  1.0000 0.1305742657
H   H12       1.0  0.06000  0.61100  0.50320  1.0000 0.1305742657
H   H13       1.0  0.73970  0.90080  0.48600  1.0000 0.1305742657
H   H14       1.0  0.26030  0.09920  0.51400  1.0000 0.1305742657
H   H15       1.0  0.88150  0.90860  0.54300  1.0000 0.121017434
H   H16       1.0  0.11850  0.09140  0.45700  1.0000 0.121017434
H   H17       1.0  0.32340  0.28790  0.36460  1.0000 0.1129901761
H   H18       1.0  0.67660  0.71210  0.63540  1.0000 0.1129901761
H   H19       1.0  0.18840  0.45920  0.53680  1.0000 0.121017434
H   H20       1.0  0.81160  0.54080  0.46320  1.0000 0.121017434
H   H21       1.0  0.50860  0.99040  0.69000  1.0000 0.121017434
H   H22       1.0  0.49140  0.00960  0.31000  1.0000 0.121017434
H   H23       1.0  0.87510  0.93010  0.69270  1.0000 0.1305742657
H   H24       1.0  0.12490  0.06990  0.30730  1.0000 0.1305742657
H   H25       1.0  0.00910  0.42650  0.11080  1.0000 0.121017434
H   H26       1.0  0.99090  0.57350  0.88920  1.0000 0.121017434
H   H27       1.0  0.18560  0.53900  0.10450  1.0000 0.121017434
H   H28       1.0  0.81440  0.46100  0.89550  1.0000 0.121017434
H   H29       1.0  0.77190  0.36130  0.06560  1.0000 0.1305742657
H   H30       1.0  0.22810  0.63870  0.93440  1.0000 0.1305742657
H   H31       1.0  0.69790  0.37140  0.97910  1.0000 0.121017434
H   H32       1.0  0.30210  0.62860  0.02090  1.0000 0.121017434
H   H33       1.0  0.96990  0.07280  0.96490  1.0000 0.121017434
H   H34       1.0  0.03010  0.92720  0.03510  1.0000 0.121017434
H   H35       1.0  0.62630  0.17630  0.91000  1.0000 0.1305742657
H   H36       1.0  0.37370  0.82370  0.09000  1.0000 0.1305742657
H   H37       1.0  0.57780  0.53210  0.13780  1.0000 0.1305742657
H   H38       1.0  0.42220  0.46790  0.86220  1.0000 0.1305742657
H   H39       1.0  0.40340  0.40480  0.07840  1.0000 0.121017434
H   H40       1.0  0.59660  0.59520  0.92160  1.0000 0.121017434
H   H41       1.0  0.72340  0.67430  0.13320  1.0000 0.1429441079
H   H42       1.0  0.27660  0.32570  0.86680  1.0000 0.1429441079
H   H43       1.0  0.80350  0.62920  0.06560  1.0000 0.1305742657
H   H44       1.0  0.19650  0.37080  0.93440  1.0000 0.1305742657
H   H45       1.0  0.59830  0.95180  0.02920  1.0000 0.121017434
H   H46       1.0  0.40170  0.04820  0.97080  1.0000 0.121017434
H   H47       1.0  0.82700  0.74230  0.96080  1.0000 0.121017434
H   H48       1.0  0.17300  0.25770  0.03920  1.0000 0.121017434
H   H49       1.0  0.21670  0.90400  0.84750  1.0000 0.121017434
H   H50       1.0  0.78330  0.09600  0.15250  1.0000 0.121017434
H   H51       1.0  0.98090  0.63430  0.76940  1.0000 0.121017434
H   H52       1.0  0.01910  0.36570  0.23060  1.0000 0.121017434
H   H53       1.0  0.37740  0.64480  0.76360  1.0000 0.121017434
H   H54       1.0  0.62260  0.35520  0.23640  1.0000 0.121017434
H   H55       1.0  0.30700  0.60800  0.43300  1.0000 0.3407764638
H   H56       1.0  0.69300  0.39200  0.56700  1.0000 0.3407764638
H   H57       1.0  0.39000  0.69000  0.48300  1.0000 0.3499438817
H   H58       1.0  0.61000  0.31000  0.51700  1.0000 0.3499438817
H   H59       1.0  0.58000  0.49800  0.35100  1.0000 0.3808831627
H   H60       1.0  0.42000  0.50200  0.64900  1.0000 0.3808831627
H   H61       1.0  0.44600  0.45500  0.33680  1.0000 0.3407764638
H   H62       1.0  0.55400  0.54500  0.66320  1.0000 0.3407764638
C   C1        1.0  0.91540  0.23230  0.47510  1.0000 0.0904345321
C   C2        1.0  0.08460  0.76770  0.52490  1.0000 0.0904345321
C   C3        1.0  0.83950  0.15510  0.41720  1.0000 -0.1582910936
C   C4        1.0  0.16050  0.84490  0.58280  1.0000 -0.1582910936
C   C5        1.0  0.80060  0.06180  0.43600  1.0000 -0.1582910936
C   C6        1.0  0.19940  0.93820  0.56400  1.0000 -0.1582910936
C   C7        1.0  0.83750  0.04520  0.51280  1.0000 0.097944943
C   C8        1.0  0.16250  0.95480  0.48720  1.0000 0.097944943
C   C9        1.0  0.91600  0.12180  0.57110  1.0000 -0.1526025964
C   C10       1.0  0.08400  0.87820  0.42890  1.0000 -0.1526025964
C   C11       1.0  0.95320  0.21390  0.55280  1.0000 -0.1424200518
C   C12       1.0  0.04680  0.78610  0.44720  1.0000 -0.1424200518
C   C13       1.0  0.95610  0.33300  0.45480  1.0000 -0.1885983443
C   C14       1.0  0.04390  0.66700  0.54520  1.0000 -0.1885983443
C   C15       1.0  0.80040  0.94350  0.53260  1.0000 -0.2032280063
C   C16       1.0  0.19960  0.05650  0.46740  1.0000 -0.2032280063
C   C17       1.0  0.26560  0.31490  0.39850  1.0000 0.1429441079
C   C18       1.0  0.73440  0.68510  0.60150  1.0000 0.1429441079
C   C19       1.0  0.19440  0.40870  0.49170  1.0000 0.097944943
C   C20       1.0  0.80560  0.59130  0.50830  1.0000 0.097944943
C   C21       1.0  0.59000  0.97660  0.67340  1.0000 0.1429441079
C   C22       1.0  0.41000  0.02340  0.32660  1.0000 0.1429441079
C   C23       1.0  0.78670  0.94450  0.67590  1.0000 0.0904345321
C   C24       1.0  0.21330  0.05550  0.32410  1.0000 0.0904345321
C   C25       1.0  0.89510  0.42990  0.00470  1.0000 0.0904345321
C   C26       1.0  0.10490  0.57010  0.99530  1.0000 0.0904345321
C   C27       1.0  0.00520  0.45600  0.06530  1.0000 -0.124377994
C   C28       1.0  0.99480  0.54400  0.93470  1.0000 -0.124377994
C   C29       1.0  0.11060  0.52380  0.06230  1.0000 -0.1526025964
C   C30       1.0  0.88940  0.47620  0.93770  1.0000 -0.1526025964
C   C31       1.0  0.78140  0.35440  0.00930  1.0000 -0.1885983443
C   C32       1.0  0.21860  0.64560  0.99070  1.0000 -0.1885983443
C   C33       1.0  0.90240  0.11760  0.96170  1.0000 0.1516498083
C   C34       1.0  0.09760  0.88240  0.03830  1.0000 0.1516498083
C   C35       1.0  0.71650  0.17110  0.93120  1.0000 0.0904345321
C   C36       1.0  0.28350  0.82890  0.06880  1.0000 0.0904345321
C   C37       1.0  0.60290  0.57710  0.03620  1.0000 0.0904345321
C   C38       1.0  0.39710  0.42290  0.96380  1.0000 0.0904345321
C   C39       1.0  0.54630  0.51960  0.08190  1.0000 -0.1424200518
C   C40       1.0  0.45370  0.48040  0.91810  1.0000 -0.1424200518
C   C41       1.0  0.44250  0.44290  0.04640  1.0000 -0.1582910936
C   C42       1.0  0.55750  0.55710  0.95360  1.0000 -0.1582910936
C   C43       1.0  0.71980  0.65760  0.07500  1.0000 -0.1885983443
C   C44       1.0  0.28020  0.34240  0.92500  1.0000 -0.1885983443
C   C45       1.0  0.64230  0.89180  0.02460  1.0000 0.1516498083
C   C46       1.0  0.35770  0.10820  0.97540  1.0000 0.1516498083
C   C47       1.0  0.76660  0.77950  0.98730  1.0000 0.0801930035
C   C48       1.0  0.23340  0.22050  0.01270  1.0000 0.0801930035
C   C49       1.0  0.31800  0.78240  0.80840  1.0000 -0.0013923517
C   C50       1.0  0.68200  0.21760  0.19160  1.0000 -0.0013923517
C   C51       1.0  0.20640  0.83360  0.82470  1.0000 -0.1424200518
C   C52       1.0  0.79360  0.16640  0.17530  1.0000 -0.1424200518
C   C53       1.0  0.08100  0.77920  0.80690  1.0000 -0.0013923517
C   C54       1.0  0.91900  0.22080  0.19310  1.0000 -0.0013923517
C   C55       1.0  0.06440  0.67240  0.77680  1.0000 -0.126633892
C   C56       1.0  0.93560  0.32760  0.22320  1.0000 -0.126633892
C   C57       1.0  0.17720  0.62580  0.75850  1.0000 -0.0811330026
C   C58       1.0  0.82280  0.37420  0.24150  1.0000 -0.0811330026
C   C59       1.0  0.30280  0.67890  0.77500  1.0000 -0.1424200518
C   C60       1.0  0.69720  0.32110  0.22500  1.0000 -0.1424200518
C   C61       1.0  0.45590  0.83980  0.82300  1.0000 0.5329937989
C   C62       1.0  0.54410  0.16020  0.17700  1.0000 0.5329937989
C   C63       1.0  0.95760  0.83150  0.82470  1.0000 0.5329937989
C   C64       1.0  0.04240  0.16850  0.17530  1.0000 0.5329937989
S   S1        1.0  0.15369  0.49120  0.71735  1.0000 1.1455222423
S   S2        1.0  0.84631  0.50880  0.28265  1.0000 1.1455222423
N   N1        1.0  0.09450  0.34330  0.44790  1.0000 0.1710365729
N   N2        1.0  0.90550  0.65670  0.55210  1.0000 0.1710365729
N   N3        1.0  0.13750  0.27880  0.38640  1.0000 -0.2727204507
N   N4        1.0  0.86250  0.72120  0.61360  1.0000 -0.2727204507
N   N5        1.0  0.30680  0.39190  0.46180  1.0000 -0.3803232258
N   N6        1.0  0.69320  0.60810  0.53820  1.0000 -0.3803232258
N   N7        1.0  0.73560  0.95410  0.60290  1.0000 0.1710365729
N   N8        1.0  0.26440  0.04590  0.39710  1.0000 0.1710365729
N   N9        1.0  0.60810  0.97410  0.59870  1.0000 -0.2618851011
N   N10       1.0  0.39190  0.02590  0.40130  1.0000 -0.2618851011
N   N11       1.0  0.69710  0.95780  0.72260  1.0000 -0.3016396707
N   N12       1.0  0.30290  0.04220  0.27740  1.0000 -0.3016396707
N   N13       1.0  0.80110  0.24830  0.97710  1.0000 0.1710365729
N   N14       1.0  0.19890  0.75170  0.02290  1.0000 0.1710365729
N   N15       1.0  0.92400  0.21450  0.99800  1.0000 -0.2503189539
N   N16       1.0  0.07600  0.78550  0.00200  1.0000 -0.2503189539
N   N17       1.0  0.77650  0.08610  0.91920  1.0000 -0.3172003275
N   N18       1.0  0.22350  0.91390  0.08080  1.0000 -0.3172003275
N   N19       1.0  0.70950  0.75020  0.04370  1.0000 0.1710365729
N   N20       1.0  0.29050  0.24980  0.95630  1.0000 0.1710365729
N   N21       1.0  0.62720  0.82130  0.06830  1.0000 -0.2727204507
N   N22       1.0  0.37280  0.17870  0.93170  1.0000 -0.2727204507
N   N23       1.0  0.72720  0.86870  0.97290  1.0000 -0.3172003275
N   N24       1.0  0.27280  0.13130  0.02710  1.0000 -0.3172003275
O   O1        1.0  0.54890  0.79210  0.80300  1.0000 -0.5183560794
O   O2        1.0  0.45110  0.20790  0.19700  1.0000 -0.5183560794
O   O3        1.0  0.47380  0.93360  0.85400  1.0000 -0.5669677203
O   O4        1.0  0.52620  0.06640  0.14600  1.0000 -0.5669677203
O   O5        1.0  0.96990  0.92800  0.84740  1.0000 -0.575383628
O   O6        1.0  0.03010  0.07200  0.15260  1.0000 -0.575383628
O   O7        1.0  0.84990  0.77840  0.81640  1.0000 -0.5360581821
O   O8        1.0  0.15010  0.22160  0.18360  1.0000 -0.5360581821
O   O9        1.0  0.28200  0.46130  0.69940  1.0000 -0.6404441839
O   O10       1.0  0.71800  0.53870  0.30060  1.0000 -0.6404441839
O   O11       1.0  0.05320  0.47870  0.64510  1.0000 -0.6404441839
O   O12       1.0  0.94680  0.52130  0.35490  1.0000 -0.6404441839
O   O13       1.0  0.11200  0.44260  0.77810  1.0000 -0.6148642247
O   O14       1.0  0.88800  0.55740  0.22190  1.0000 -0.6148642247
O   O15       1.0  0.36030  0.62660  0.47810  1.0000 -0.6696490293
O   O16       1.0  0.63970  0.37340  0.52190  1.0000 -0.6696490293
O   O17       1.0  0.52040  0.46490  0.36750  1.0000 -0.6696490293
O   O18       1.0  0.47960  0.53510  0.63250  1.0000 -0.6696490293
