# DDEC6 charges by PACMAN v1.1 (https://github.com/mtap-research/PACMAN-charge/)
data_2015[Mn][nan]3[FSR]15
_chemical_formula_sum              "Mn4 H16 C36 O28"
_cell_length_a       9.9875
_cell_length_b       9.9875
_cell_length_c       18.3896
_cell_angle_alpha    78.4361
_cell_angle_beta     101.564
_cell_angle_gamma    106.879

_symmetry_space_group_name_H-M    "P 1"
_symmetry_Int_Tables_number       1

loop_
  _symmetry_equiv_pos_as_xyz
  'x, y, z'

loop_
  _atom_site_type_symbol
  _atom_site_label
  _atom_site_symmetry_multiplicity
  _atom_site_fract_x
  _atom_site_fract_y
  _atom_site_fract_z
  _atom_site_occupancy
  _atom_site_charge
Mn  Mn1       1.0  0.14781  0.43411  0.56223  1.0000 1.109084353
Mn  Mn2       1.0  0.43411  0.14781  0.93777  1.0000 1.109084353
Mn  Mn3       1.0  0.85219  0.56589  0.43777  1.0000 1.109084353
Mn  Mn4       1.0  0.56589  0.85219  0.06223  1.0000 1.109084353
H   H1        1.0  0.42310  0.63130  0.92990  1.0000 0.1490453484
H   H2        1.0  0.63130  0.42310  0.57010  1.0000 0.1490453484
H   H3        1.0  0.57690  0.36870  0.07010  1.0000 0.1490453484
H   H4        1.0  0.36870  0.57690  0.42990  1.0000 0.1490453484
H   H5        1.0  0.03710  0.27450  0.46140  1.0000 0.3999913188
H   H6        1.0  0.27450  0.03710  0.03860  1.0000 0.3999913188
H   H7        1.0  0.96290  0.72550  0.53860  1.0000 0.3999913188
H   H8        1.0  0.72550  0.96290  0.96140  1.0000 0.3999913188
H   H9        1.0  0.23530  0.85510  0.75460  1.0000 0.13831912
H   H10       1.0  0.85510  0.23530  0.74540  1.0000 0.13831912
H   H11       1.0  0.76470  0.14490  0.24540  1.0000 0.13831912
H   H12       1.0  0.14490  0.76470  0.25460  1.0000 0.13831912
H   H13       1.0  0.24400  0.46220  0.74220  1.0000 0.13831912
H   H14       1.0  0.46220  0.24400  0.75780  1.0000 0.13831912
H   H15       1.0  0.75600  0.53780  0.25780  1.0000 0.13831912
H   H16       1.0  0.53780  0.75600  0.24220  1.0000 0.13831912
C   C1        1.0  0.33730  0.76310  0.84860  1.0000 0.0007426203
C   C2        1.0  0.76310  0.33730  0.65140  1.0000 0.0007426203
C   C3        1.0  0.66270  0.23690  0.15140  1.0000 0.0007426203
C   C4        1.0  0.23690  0.66270  0.34860  1.0000 0.0007426203
C   C5        1.0  0.33480  0.52460  0.84280  1.0000 0.0094914159
C   C6        1.0  0.52460  0.33480  0.65720  1.0000 0.0094914159
C   C7        1.0  0.66520  0.47540  0.15720  1.0000 0.0094914159
C   C8        1.0  0.47540  0.66520  0.34280  1.0000 0.0094914159
C   C9        1.0  0.23000  0.66220  0.73540  1.0000 -0.0065322465
C   C10       1.0  0.66220  0.23000  0.76460  1.0000 -0.0065322465
C   C11       1.0  0.77000  0.33780  0.26460  1.0000 -0.0065322465
C   C12       1.0  0.33780  0.77000  0.23540  1.0000 -0.0065322465
C   C13       1.0  0.37310  0.63850  0.88150  1.0000 -0.0823089777
C   C14       1.0  0.63850  0.37310  0.61850  1.0000 -0.0823089777
C   C15       1.0  0.62690  0.36150  0.11850  1.0000 -0.0823089777
C   C16       1.0  0.36150  0.62690  0.38150  1.0000 -0.0823089777
C   C17       1.0  0.15950  0.67810  0.65470  1.0000 0.5592322799
C   C18       1.0  0.67810  0.15950  0.84530  1.0000 0.5592322799
C   C19       1.0  0.84050  0.32190  0.34530  1.0000 0.5592322799
C   C20       1.0  0.32190  0.84050  0.15470  1.0000 0.5592322799
C   C21       1.0  0.37650  0.88670  0.89040  1.0000 0.5695182236
C   C22       1.0  0.88670  0.37650  0.60960  1.0000 0.5695182236
C   C23       1.0  0.62350  0.11330  0.10960  1.0000 0.5695182236
C   C24       1.0  0.11330  0.62350  0.39040  1.0000 0.5695182236
C   C25       1.0  0.26310  0.77290  0.77610  1.0000 -0.0918976225
C   C26       1.0  0.77290  0.26310  0.72390  1.0000 -0.0918976225
C   C27       1.0  0.73690  0.22710  0.22390  1.0000 -0.0918976225
C   C28       1.0  0.22710  0.73690  0.27610  1.0000 -0.0918976225
C   C29       1.0  0.37070  0.38810  0.87890  1.0000 0.5358412268
C   C30       1.0  0.38810  0.37070  0.62110  1.0000 0.5358412268
C   C31       1.0  0.62930  0.61190  0.12110  1.0000 0.5358412268
C   C32       1.0  0.61190  0.62930  0.37890  1.0000 0.5358412268
C   C33       1.0  0.26600  0.53740  0.76900  1.0000 -0.0918976225
C   C34       1.0  0.53740  0.26600  0.73100  1.0000 -0.0918976225
C   C35       1.0  0.73400  0.46260  0.23100  1.0000 -0.0918976225
C   C36       1.0  0.46260  0.73400  0.26900  1.0000 -0.0918976225
O   O1        1.0  0.30930  0.27830  0.84920  1.0000 -0.4115821494
O   O2        1.0  0.27830  0.30930  0.65080  1.0000 -0.4115821494
O   O3        1.0  0.69070  0.72170  0.15080  1.0000 -0.4115821494
O   O4        1.0  0.72170  0.69070  0.34920  1.0000 -0.4115821494
O   O5        1.0  0.33910  0.99590  0.85880  1.0000 -0.4212363211
O   O6        1.0  0.99590  0.33910  0.64120  1.0000 -0.4212363211
O   O7        1.0  0.66090  0.00410  0.14120  1.0000 -0.4212363211
O   O8        1.0  0.00410  0.66090  0.35880  1.0000 -0.4212363211
O   O9        1.0  0.19760  0.62380  0.61000  1.0000 -0.47836785
O   O10       1.0  0.62380  0.19760  0.89000  1.0000 -0.47836785
O   O11       1.0  0.80240  0.37620  0.39000  1.0000 -0.47836785
O   O12       1.0  0.37620  0.80240  0.11000  1.0000 -0.47836785
O   O13       1.0  0.06920  0.74940  0.63790  1.0000 -0.3992102517
O   O14       1.0  0.74940  0.06920  0.86210  1.0000 -0.3992102517
O   O15       1.0  0.93080  0.25060  0.36210  1.0000 -0.3992102517
O   O16       1.0  0.25060  0.93080  0.13790  1.0000 -0.3992102517
O   O17       1.0  0.44540  0.87820  0.95420  1.0000 -0.4899885652
O   O18       1.0  0.87820  0.44540  0.54580  1.0000 -0.4899885652
O   O19       1.0  0.55460  0.12180  0.04580  1.0000 -0.4899885652
O   O20       1.0  0.12180  0.55460  0.45420  1.0000 -0.4899885652
O   O21       1.0  0.46070  0.38510  0.93660  1.0000 -0.4338453112
O   O22       1.0  0.38510  0.46070  0.56340  1.0000 -0.4338453112
O   O23       1.0  0.53930  0.61490  0.06340  1.0000 -0.4338453112
O   O24       1.0  0.61490  0.53930  0.43660  1.0000 -0.4338453112
O   O25       1.0  0.08060  0.25340  0.50300  1.0000 -0.7027181087
O   O26       1.0  0.25340  0.08060  0.99700  1.0000 -0.7027181087
O   O27       1.0  0.91940  0.74660  0.49700  1.0000 -0.7027181087
O   O28       1.0  0.74660  0.91940  0.00300  1.0000 -0.7027181087
