# DDEC6 charges by PACMAN v1.1 (https://github.com/mtap-research/PACMAN-charge/)
data_2015[Zn][sra]3[FSR]1
_chemical_formula_sum              "Zn8 H88 C88 N8 O48"
_cell_length_a       10.289
_cell_length_b       15.763
_cell_length_c       24.796
_cell_angle_alpha    90
_cell_angle_beta     112.65
_cell_angle_gamma    90

_symmetry_space_group_name_H-M    "P 1"
_symmetry_Int_Tables_number       1

loop_
  _symmetry_equiv_pos_as_xyz
  'x, y, z'

loop_
  _atom_site_type_symbol
  _atom_site_label
  _atom_site_symmetry_multiplicity
  _atom_site_fract_x
  _atom_site_fract_y
  _atom_site_fract_z
  _atom_site_occupancy
  _atom_site_charge
Zn  Zn1       1.0  0.25785  0.14623  0.26493  1.0000 0.9537821991
Zn  Zn2       1.0  0.74215  0.64623  0.23507  1.0000 0.9537821991
Zn  Zn3       1.0  0.74215  0.85377  0.73507  1.0000 0.9537821991
Zn  Zn4       1.0  0.25785  0.35377  0.76493  1.0000 0.9537821991
Zn  Zn5       1.0  0.29160  0.01794  0.14451  1.0000 0.9249991758
Zn  Zn6       1.0  0.70840  0.51794  0.35549  1.0000 0.9249991758
Zn  Zn7       1.0  0.70840  0.98206  0.85549  1.0000 0.9249991758
Zn  Zn8       1.0  0.29160  0.48206  0.64451  1.0000 0.9249991758
H   H1        1.0  0.51940  0.20870  0.09290  1.0000 0.1482308956
H   H2        1.0  0.48060  0.70870  0.40710  1.0000 0.1482308956
H   H3        1.0  0.48060  0.79130  0.90710  1.0000 0.1482308956
H   H4        1.0  0.51940  0.29130  0.59290  1.0000 0.1482308956
H   H5        1.0  0.50530  0.31680  0.23720  1.0000 0.122467084
H   H6        1.0  0.49470  0.81680  0.26280  1.0000 0.122467084
H   H7        1.0  0.49470  0.68320  0.76280  1.0000 0.122467084
H   H8        1.0  0.50530  0.18320  0.73720  1.0000 0.122467084
H   H9        1.0  0.70010  0.43560  0.14580  1.0000 0.129320482
H   H10       1.0  0.29990  0.93560  0.35420  1.0000 0.129320482
H   H11       1.0  0.29990  0.56440  0.85420  1.0000 0.129320482
H   H12       1.0  0.70010  0.06440  0.64580  1.0000 0.129320482
H   H13       1.0  0.87200  0.24940  0.13990  1.0000 0.129320482
H   H14       1.0  0.12800  0.74940  0.36010  1.0000 0.129320482
H   H15       1.0  0.12800  0.75060  0.86010  1.0000 0.129320482
H   H16       1.0  0.87200  0.25060  0.63990  1.0000 0.129320482
H   H17       1.0  0.91390  0.07030  0.03200  1.0000 0.1387854418
H   H18       1.0  0.08610  0.57030  0.46800  1.0000 0.1387854418
H   H19       1.0  0.08610  0.92970  0.96800  1.0000 0.1387854418
H   H20       1.0  0.91390  0.42970  0.53200  1.0000 0.1387854418
H   H21       1.0  0.59930  0.24070  0.97230  1.0000 0.129320482
H   H22       1.0  0.40070  0.74070  0.52770  1.0000 0.129320482
H   H23       1.0  0.40070  0.75930  0.02770  1.0000 0.129320482
H   H24       1.0  0.59930  0.25930  0.47230  1.0000 0.129320482
H   H25       1.0  0.08500  0.28360  0.26730  1.0000 0.129320482
H   H26       1.0  0.91500  0.78360  0.23270  1.0000 0.129320482
H   H27       1.0  0.91500  0.71640  0.73270  1.0000 0.129320482
H   H28       1.0  0.08500  0.21640  0.76730  1.0000 0.129320482
H   H29       1.0  0.97170  0.37310  0.27980  1.0000 0.122467084
H   H30       1.0  0.02830  0.87310  0.22020  1.0000 0.122467084
H   H31       1.0  0.02830  0.62690  0.72020  1.0000 0.122467084
H   H32       1.0  0.97170  0.12690  0.77980  1.0000 0.122467084
H   H33       1.0  0.03880  0.44630  0.32480  1.0000 0.1387854418
H   H34       1.0  0.96120  0.94630  0.17520  1.0000 0.1387854418
H   H35       1.0  0.96120  0.55370  0.67520  1.0000 0.1387854418
H   H36       1.0  0.03880  0.05370  0.82480  1.0000 0.1387854418
H   H37       1.0  0.99370  0.46300  0.25770  1.0000 0.129320482
H   H38       1.0  0.00630  0.96300  0.24230  1.0000 0.129320482
H   H39       1.0  0.00630  0.53700  0.74230  1.0000 0.129320482
H   H40       1.0  0.99370  0.03700  0.75770  1.0000 0.129320482
H   H41       1.0  0.26510  0.49970  0.32760  1.0000 0.129320482
H   H42       1.0  0.73490  0.99970  0.17240  1.0000 0.129320482
H   H43       1.0  0.73490  0.50030  0.67240  1.0000 0.129320482
H   H44       1.0  0.26510  0.00030  0.82760  1.0000 0.129320482
H   H45       1.0  0.36220  0.42590  0.32290  1.0000 0.1482308956
H   H46       1.0  0.63780  0.92590  0.17710  1.0000 0.1482308956
H   H47       1.0  0.63780  0.57410  0.67710  1.0000 0.1482308956
H   H48       1.0  0.36220  0.07410  0.82290  1.0000 0.1482308956
H   H49       1.0  0.27180  0.47790  0.26710  1.0000 0.129320482
H   H50       1.0  0.72820  0.97790  0.23290  1.0000 0.129320482
H   H51       1.0  0.72820  0.52210  0.73290  1.0000 0.129320482
H   H52       1.0  0.27180  0.02210  0.76710  1.0000 0.129320482
H   H53       1.0  0.53180  0.25000  0.33830  1.0000 0.1105274169
H   H54       1.0  0.46820  0.75000  0.16170  1.0000 0.1105274169
H   H55       1.0  0.46820  0.75000  0.66170  1.0000 0.1105274169
H   H56       1.0  0.53180  0.25000  0.83830  1.0000 0.1105274169
H   H57       1.0  0.80260  0.07530  0.34900  1.0000 0.122467084
H   H58       1.0  0.19740  0.57530  0.15100  1.0000 0.122467084
H   H59       1.0  0.19740  0.92470  0.65100  1.0000 0.122467084
H   H60       1.0  0.80260  0.42470  0.84900  1.0000 0.122467084
H   H61       1.0  0.70060  0.05790  0.38120  1.0000 0.1387854418
H   H62       1.0  0.29940  0.55790  0.11880  1.0000 0.1387854418
H   H63       1.0  0.29940  0.94210  0.61880  1.0000 0.1387854418
H   H64       1.0  0.70060  0.44210  0.88120  1.0000 0.1387854418
H   H65       1.0  0.64260  0.05750  0.31270  1.0000 0.1387854418
H   H66       1.0  0.35740  0.55750  0.18730  1.0000 0.1387854418
H   H67       1.0  0.35740  0.94250  0.68730  1.0000 0.1387854418
H   H68       1.0  0.64260  0.44250  0.81270  1.0000 0.1387854418
H   H69       1.0  0.86970  0.20010  0.35570  1.0000 0.129320482
H   H70       1.0  0.13030  0.70010  0.14430  1.0000 0.129320482
H   H71       1.0  0.13030  0.79990  0.64430  1.0000 0.129320482
H   H72       1.0  0.86970  0.29990  0.85570  1.0000 0.129320482
H   H73       1.0  0.75720  0.26630  0.31850  1.0000 0.129320482
H   H74       1.0  0.24280  0.76630  0.18150  1.0000 0.129320482
H   H75       1.0  0.24280  0.73370  0.68150  1.0000 0.129320482
H   H76       1.0  0.75720  0.23370  0.81850  1.0000 0.129320482
H   H77       1.0  0.80460  0.26430  0.38660  1.0000 0.1387854418
H   H78       1.0  0.19540  0.76430  0.11340  1.0000 0.1387854418
H   H79       1.0  0.19540  0.73570  0.61340  1.0000 0.1387854418
H   H80       1.0  0.80460  0.23570  0.88660  1.0000 0.1387854418
H   H81       1.0  0.17100  0.16700  0.34700  1.0000 0.3299633546
H   H82       1.0  0.82900  0.66700  0.15300  1.0000 0.3299633546
H   H83       1.0  0.82900  0.83300  0.65300  1.0000 0.3299633546
H   H84       1.0  0.17100  0.33300  0.84700  1.0000 0.3299633546
H   H85       1.0  0.14300  0.08000  0.33900  1.0000 0.3490674404
H   H86       1.0  0.85700  0.58000  0.16100  1.0000 0.3490674404
H   H87       1.0  0.85700  0.92000  0.66100  1.0000 0.3490674404
H   H88       1.0  0.14300  0.42000  0.83900  1.0000 0.3490674404
C   C1        1.0  0.61710  0.32200  0.11286  1.0000 0.244864883
C   C2        1.0  0.38290  0.82200  0.38714  1.0000 0.244864883
C   C3        1.0  0.38290  0.67800  0.88714  1.0000 0.244864883
C   C4        1.0  0.61710  0.17800  0.61286  1.0000 0.244864883
C   C5        1.0  0.54220  0.25320  0.11957  1.0000 -0.2177668287
C   C6        1.0  0.45780  0.75320  0.38043  1.0000 -0.2177668287
C   C7        1.0  0.45780  0.74680  0.88043  1.0000 -0.2177668287
C   C8        1.0  0.54220  0.24680  0.61957  1.0000 -0.2177668287
C   C9        1.0  0.50130  0.25120  0.16673  1.0000 0.0037100997
C   C10       1.0  0.49870  0.75120  0.33327  1.0000 0.0037100997
C   C11       1.0  0.49870  0.74880  0.83327  1.0000 0.0037100997
C   C12       1.0  0.50130  0.24880  0.66667  1.0000 0.0037100997
C   C13       1.0  0.53390  0.31820  0.20592  1.0000 -0.1509829479
C   C14       1.0  0.46610  0.81820  0.29408  1.0000 -0.1509829479
C   C15       1.0  0.46610  0.68180  0.79408  1.0000 -0.1509829479
C   C16       1.0  0.53390  0.18180  0.70592  1.0000 -0.1509829479
C   C17       1.0  0.60890  0.38720  0.19879  1.0000 -0.0187870225
C   C18       1.0  0.39110  0.88720  0.30121  1.0000 -0.0187870225
C   C19       1.0  0.39110  0.61280  0.80121  1.0000 -0.0187870225
C   C20       1.0  0.60890  0.11280  0.69879  1.0000 -0.0187870225
C   C21       1.0  0.65050  0.38930  0.15137  1.0000 -0.2177668287
C   C22       1.0  0.34950  0.88930  0.34863  1.0000 -0.2177668287
C   C23       1.0  0.34950  0.61070  0.84863  1.0000 -0.2177668287
C   C24       1.0  0.65050  0.11070  0.65137  1.0000 -0.2177668287
C   C25       1.0  0.42100  0.17560  0.17505  1.0000 0.5740520341
C   C26       1.0  0.57900  0.67560  0.32495  1.0000 0.5740520341
C   C27       1.0  0.57900  0.82440  0.82495  1.0000 0.5740520341
C   C28       1.0  0.42100  0.32440  0.67505  1.0000 0.5740520341
C   C29       1.0  0.65240  0.45770  0.24197  1.0000 0.5740520341
C   C30       1.0  0.34760  0.95770  0.25803  1.0000 0.5740520341
C   C31       1.0  0.34760  0.54230  0.75803  1.0000 0.5740520341
C   C32       1.0  0.65240  0.04230  0.74197  1.0000 0.5740520341
C   C33       1.0  0.72760  0.25530  0.05782  1.0000 0.2468425912
C   C34       1.0  0.27240  0.75530  0.44218  1.0000 0.2468425912
C   C35       1.0  0.27240  0.74470  0.94218  1.0000 0.2468425912
C   C36       1.0  0.72760  0.24470  0.55782  1.0000 0.2468425912
C   C37       1.0  0.84230  0.22410  0.10323  1.0000 -0.2332997786
C   C38       1.0  0.15770  0.72410  0.39677  1.0000 -0.2332997786
C   C39       1.0  0.15770  0.77590  0.89677  1.0000 -0.2332997786
C   C40       1.0  0.84230  0.27590  0.60323  1.0000 -0.2332997786
C   C41       1.0  0.91400  0.15410  0.09400  1.0000 -0.0073315548
C   C42       1.0  0.08600  0.65410  0.40600  1.0000 -0.0073315548
C   C43       1.0  0.08600  0.84590  0.90600  1.0000 -0.0073315548
C   C44       1.0  0.91400  0.34590  0.59400  1.0000 -0.0073315548
C   C45       1.0  0.86600  0.11660  0.03865  1.0000 -0.1340294348
C   C46       1.0  0.13400  0.61660  0.46135  1.0000 -0.1340294348
C   C47       1.0  0.13400  0.88340  0.96135  1.0000 -0.1340294348
C   C48       1.0  0.86600  0.38340  0.53865  1.0000 -0.1340294348
C   C49       1.0  0.74710  0.14770  0.99331  1.0000 -0.0035343341
C   C50       1.0  0.25290  0.64770  0.50669  1.0000 -0.0035343341
C   C51       1.0  0.25290  0.85230  0.00669  1.0000 -0.0035343341
C   C52       1.0  0.74710  0.35230  0.49331  1.0000 -0.0035343341
C   C53       1.0  0.67750  0.21840  0.00240  1.0000 -0.2119607942
C   C54       1.0  0.32250  0.71840  0.49760  1.0000 -0.2119607942
C   C55       1.0  0.32250  0.78160  0.99760  1.0000 -0.2119607942
C   C56       1.0  0.67750  0.28160  0.50240  1.0000 -0.2119607942
C   C57       1.0  0.04230  0.12090  0.14241  1.0000 0.5834943039
C   C58       1.0  0.95770  0.62090  0.35759  1.0000 0.5834943039
C   C59       1.0  0.95770  0.87910  0.85759  1.0000 0.5834943039
C   C60       1.0  0.04230  0.37910  0.64241  1.0000 0.5834943039
C   C61       1.0  0.68760  0.10320  0.93469  1.0000 0.5435871912
C   C62       1.0  0.31240  0.60320  0.56531  1.0000 0.5435871912
C   C63       1.0  0.31240  0.89680  0.06531  1.0000 0.5435871912
C   C64       1.0  0.68760  0.39680  0.43469  1.0000 0.5435871912
C   C65       1.0  0.17100  0.31160  0.27860  1.0000 0.1745049415
C   C66       1.0  0.82900  0.81160  0.22140  1.0000 0.1765246374
C   C67       1.0  0.82900  0.68840  0.72140  1.0000 0.1745049415
C   C68       1.0  0.17100  0.18840  0.77860  1.0000 0.1765246374
C   C69       1.0  0.03200  0.42190  0.28830  1.0000 -0.2991248684
C   C70       1.0  0.96800  0.92190  0.21170  1.0000 -0.2991248684
C   C71       1.0  0.96800  0.57810  0.71170  1.0000 -0.2991248684
C   C72       1.0  0.03200  0.07810  0.78830  1.0000 -0.2991248684
C   C73       1.0  0.27430  0.45470  0.30330  1.0000 -0.2783826458
C   C74       1.0  0.72570  0.95470  0.19670  1.0000 -0.2783826458
C   C75       1.0  0.72570  0.54530  0.69670  1.0000 -0.2783826458
C   C76       1.0  0.27430  0.04530  0.80330  1.0000 -0.2783826458
C   C77       1.0  0.55070  0.19220  0.34030  1.0000 0.2691119296
C   C78       1.0  0.44930  0.69220  0.15970  1.0000 0.2691119296
C   C79       1.0  0.44930  0.80780  0.65970  1.0000 0.2691119296
C   C80       1.0  0.55070  0.30780  0.84030  1.0000 0.2691119296
C   C81       1.0  0.70880  0.08340  0.34750  1.0000 -0.3095065671
C   C82       1.0  0.29120  0.58340  0.15250  1.0000 -0.3095065671
C   C83       1.0  0.29120  0.91660  0.65250  1.0000 -0.3095065671
C   C84       1.0  0.70880  0.41660  0.84750  1.0000 -0.3095065671
C   C85       1.0  0.78590  0.23030  0.35230  1.0000 -0.291786732
C   C86       1.0  0.21410  0.73030  0.14770  1.0000 -0.291786732
C   C87       1.0  0.21410  0.76970  0.64770  1.0000 -0.291786732
C   C88       1.0  0.78590  0.26970  0.85230  1.0000 -0.291786732
N   N1        1.0  0.16450  0.39790  0.29210  1.0000 0.0103812294
N   N2        1.0  0.83550  0.89790  0.20790  1.0000 0.0103812294
N   N3        1.0  0.83550  0.60210  0.70790  1.0000 0.0103812294
N   N4        1.0  0.16450  0.10210  0.79210  1.0000 0.0103812294
N   N5        1.0  0.67960  0.17300  0.34670  1.0000 0.0188481325
N   N6        1.0  0.32040  0.67300  0.15330  1.0000 0.0188481325
N   N7        1.0  0.32040  0.82700  0.65330  1.0000 0.0188481325
N   N8        1.0  0.67960  0.32700  0.84670  1.0000 0.0188481325
O   O1        1.0  0.38160  0.17630  0.21589  1.0000 -0.5782047677
O   O2        1.0  0.61840  0.67630  0.28411  1.0000 -0.5782047677
O   O3        1.0  0.61840  0.82370  0.78411  1.0000 -0.5782047677
O   O4        1.0  0.38160  0.32370  0.71589  1.0000 -0.5782047677
O   O5        1.0  0.40270  0.11540  0.13961  1.0000 -0.5332058387
O   O6        1.0  0.59730  0.61540  0.36039  1.0000 -0.5332058387
O   O7        1.0  0.59730  0.88460  0.86039  1.0000 -0.5332058387
O   O8        1.0  0.40270  0.38460  0.63961  1.0000 -0.5332058387
O   O9        1.0  0.62000  0.44960  0.28605  1.0000 -0.5501226979
O   O10       1.0  0.38000  0.94960  0.21395  1.0000 -0.5501226979
O   O11       1.0  0.38000  0.55040  0.71395  1.0000 -0.5501226979
O   O12       1.0  0.62000  0.05040  0.78605  1.0000 -0.5501226979
O   O13       1.0  0.72040  0.51680  0.23379  1.0000 -0.5501226979
O   O14       1.0  0.27960  0.01680  0.26621  1.0000 -0.5501226979
O   O15       1.0  0.27960  0.48320  0.76621  1.0000 -0.5501226979
O   O16       1.0  0.72040  0.98320  0.73379  1.0000 -0.5501226979
O   O17       1.0  0.07940  0.15500  0.19071  1.0000 -0.5563386696
O   O18       1.0  0.92060  0.65500  0.30929  1.0000 -0.5563386696
O   O19       1.0  0.92060  0.84500  0.80929  1.0000 -0.5563386696
O   O20       1.0  0.07940  0.34500  0.69071  1.0000 -0.5563386696
O   O21       1.0  0.10230  0.05900  0.12908  1.0000 -0.5501226979
O   O22       1.0  0.89770  0.55900  0.37092  1.0000 -0.5501226979
O   O23       1.0  0.89770  0.94100  0.87092  1.0000 -0.5501226979
O   O24       1.0  0.10230  0.44100  0.62908  1.0000 -0.5501226979
O   O25       1.0  0.76750  0.04730  0.92705  1.0000 -0.5501226979
O   O26       1.0  0.23250  0.54730  0.57295  1.0000 -0.5501226979
O   O27       1.0  0.23250  0.95270  0.07295  1.0000 -0.5501226979
O   O28       1.0  0.76750  0.45270  0.42705  1.0000 -0.5501226979
O   O29       1.0  0.57000  0.12120  0.90029  1.0000 -0.5501226979
O   O30       1.0  0.43000  0.62120  0.59971  1.0000 -0.5501226979
O   O31       1.0  0.43000  0.87880  0.09971  1.0000 -0.5501226979
O   O32       1.0  0.57000  0.37880  0.40029  1.0000 -0.5501226979
O   O33       1.0  0.65760  0.32707  0.06549  1.0000 -0.2332997786
O   O34       1.0  0.34240  0.82707  0.43451  1.0000 -0.2332997786
O   O35       1.0  0.34240  0.67293  0.93451  1.0000 -0.2332997786
O   O36       1.0  0.65760  0.17293  0.56549  1.0000 -0.2332997786
O   O37       1.0  0.24760  0.27580  0.27870  1.0000 -0.2991248684
O   O38       1.0  0.75240  0.77580  0.22130  1.0000 -0.2991248684
O   O39       1.0  0.75240  0.72420  0.72130  1.0000 -0.2991248684
O   O40       1.0  0.24760  0.22420  0.77870  1.0000 -0.2991248684
O   O41       1.0  0.45310  0.14810  0.33650  1.0000 -0.4231983813
O   O42       1.0  0.54690  0.64810  0.16350  1.0000 -0.4231983813
O   O43       1.0  0.54690  0.85190  0.66350  1.0000 -0.4231983813
O   O44       1.0  0.45310  0.35190  0.83650  1.0000 -0.4231983813
O   O45       1.0  0.14500  0.12710  0.31849  1.0000 -0.6862272637
O   O46       1.0  0.85500  0.62710  0.18151  1.0000 -0.6862272637
O   O47       1.0  0.85500  0.87290  0.68151  1.0000 -0.6862272637
O   O48       1.0  0.14500  0.37290  0.81849  1.0000 -0.6862272637
