# DDEC6 charges by PACMAN v1.1 (https://github.com/mtap-research/PACMAN-charge/)
data_2015[Zn][nan]3[FSR]28
_chemical_formula_sum              "Zn6 H28 C48 O20"
_cell_length_a       13.7006
_cell_length_b       13.7006
_cell_length_c       12.158
_cell_angle_alpha    86.0793
_cell_angle_beta     93.9207
_cell_angle_gamma    94.7742

_symmetry_space_group_name_H-M    "P 1"
_symmetry_Int_Tables_number       1

loop_
  _symmetry_equiv_pos_as_xyz
  'x, y, z'

loop_
  _atom_site_type_symbol
  _atom_site_label
  _atom_site_symmetry_multiplicity
  _atom_site_fract_x
  _atom_site_fract_y
  _atom_site_fract_z
  _atom_site_occupancy
  _atom_site_charge
Zn  Zn1       1.0  0.00000  0.00000  0.00000  1.0000 1.0278550537
Zn  Zn2       1.0  0.00000  0.00000  0.50000  1.0000 1.0278550537
Zn  Zn3       1.0  0.07877  0.07877  0.75000  1.0000 0.9357144387
Zn  Zn4       1.0  0.92123  0.92123  0.25000  1.0000 0.9357144387
Zn  Zn5       1.0  0.92215  0.92215  0.75000  1.0000 0.9480251224
Zn  Zn6       1.0  0.07785  0.07785  0.25000  1.0000 0.9480251224
H   H1        1.0  0.93120  0.08880  0.83800  1.0000 0.3946372421
H   H2        1.0  0.08880  0.93120  0.66200  1.0000 0.3946372421
H   H3        1.0  0.06880  0.91120  0.16200  1.0000 0.3946372421
H   H4        1.0  0.91120  0.06880  0.33800  1.0000 0.3946372421
H   H5        1.0  0.38130  0.04690  0.82420  1.0000 0.1220201084
H   H6        1.0  0.04690  0.38130  0.67580  1.0000 0.1220201084
H   H7        1.0  0.61870  0.95310  0.17580  1.0000 0.1220201084
H   H8        1.0  0.95310  0.61870  0.32420  1.0000 0.1220201084
H   H9        1.0  0.28720  0.00860  0.13530  1.0000 0.1220201084
H   H10       1.0  0.00860  0.28720  0.36470  1.0000 0.1220201084
H   H11       1.0  0.71280  0.99140  0.86470  1.0000 0.1220201084
H   H12       1.0  0.99140  0.71280  0.63530  1.0000 0.1220201084
H   H13       1.0  0.55720  0.02940  0.79600  1.0000 0.1101993957
H   H14       1.0  0.02940  0.55720  0.70400  1.0000 0.1101993957
H   H15       1.0  0.44280  0.97060  0.20400  1.0000 0.1101993957
H   H16       1.0  0.97060  0.44280  0.29600  1.0000 0.1101993957
H   H17       1.0  0.90800  0.27680  0.90620  1.0000 0.1220201084
H   H18       1.0  0.27680  0.90800  0.59380  1.0000 0.1220201084
H   H19       1.0  0.09200  0.72320  0.09380  1.0000 0.1220201084
H   H20       1.0  0.72320  0.09200  0.40620  1.0000 0.1220201084
H   H21       1.0  0.88460  0.43360  0.83400  1.0000 0.1220201084
H   H22       1.0  0.43360  0.88460  0.66600  1.0000 0.1220201084
H   H23       1.0  0.11540  0.56640  0.16600  1.0000 0.1220201084
H   H24       1.0  0.56640  0.11540  0.33400  1.0000 0.1220201084
H   H25       1.0  0.08720  0.38620  0.15440  1.0000 0.1220201084
H   H26       1.0  0.38620  0.08720  0.34560  1.0000 0.1220201084
H   H27       1.0  0.91280  0.61380  0.84560  1.0000 0.1220201084
H   H28       1.0  0.61380  0.91280  0.65440  1.0000 0.1220201084
C   C1        1.0  0.21790  0.04790  0.92700  1.0000 0.5928972961
C   C2        1.0  0.04790  0.21790  0.57300  1.0000 0.5928972961
C   C3        1.0  0.78210  0.95210  0.07300  1.0000 0.5928972961
C   C4        1.0  0.95210  0.78210  0.42700  1.0000 0.5928972961
C   C5        1.0  0.31970  0.02930  0.97100  1.0000 -0.0277880764
C   C6        1.0  0.02930  0.31970  0.52900  1.0000 -0.0277880764
C   C7        1.0  0.68030  0.97070  0.02900  1.0000 -0.0277880764
C   C8        1.0  0.97070  0.68030  0.47100  1.0000 -0.0277880764
C   C9        1.0  0.39430  0.03190  0.90100  1.0000 -0.150933625
C   C10       1.0  0.03190  0.39430  0.59900  1.0000 -0.150933625
C   C11       1.0  0.60570  0.96810  0.09900  1.0000 -0.150933625
C   C12       1.0  0.96810  0.60570  0.40100  1.0000 -0.150933625
C   C13       1.0  0.49100  0.01240  0.94210  1.0000 0.0794696586
C   C14       1.0  0.01240  0.49100  0.55790  1.0000 0.0794696586
C   C15       1.0  0.50900  0.98760  0.05790  1.0000 0.0794696586
C   C16       1.0  0.98760  0.50900  0.44210  1.0000 0.0794696586
C   C17       1.0  0.33840  0.00800  0.08650  1.0000 -0.1107074459
C   C18       1.0  0.00800  0.33840  0.41350  1.0000 -0.1107074459
C   C19       1.0  0.66160  0.99200  0.91350  1.0000 -0.1107074459
C   C20       1.0  0.99200  0.66160  0.58650  1.0000 -0.1107074459
C   C21       1.0  0.56870  0.01350  0.87290  1.0000 -0.150933625
C   C22       1.0  0.01350  0.56870  0.62710  1.0000 -0.150933625
C   C23       1.0  0.43130  0.98650  0.12710  1.0000 -0.150933625
C   C24       1.0  0.98650  0.43130  0.37290  1.0000 -0.150933625
C   C25       1.0  0.01630  0.21370  0.08650  1.0000 0.5928972961
C   C26       1.0  0.21370  0.01630  0.41350  1.0000 0.5928972961
C   C27       1.0  0.98370  0.78630  0.91350  1.0000 0.5928972961
C   C28       1.0  0.78630  0.98370  0.58650  1.0000 0.5928972961
C   C29       1.0  0.00150  0.31590  0.03970  1.0000 -0.0219532943
C   C30       1.0  0.31590  0.00150  0.46030  1.0000 -0.0219532943
C   C31       1.0  0.99850  0.68410  0.96030  1.0000 -0.0219532943
C   C32       1.0  0.68410  0.99850  0.53970  1.0000 -0.0219532943
C   C33       1.0  0.93960  0.33140  0.94200  1.0000 -0.1107074459
C   C34       1.0  0.33140  0.93960  0.55800  1.0000 -0.1107074459
C   C35       1.0  0.06040  0.66860  0.05800  1.0000 -0.1107074459
C   C36       1.0  0.66860  0.06040  0.44200  1.0000 -0.1107074459
C   C37       1.0  0.92560  0.42460  0.89950  1.0000 -0.150933625
C   C38       1.0  0.42460  0.92560  0.60050  1.0000 -0.150933625
C   C39       1.0  0.07440  0.57540  0.10050  1.0000 -0.150933625
C   C40       1.0  0.57540  0.07440  0.39950  1.0000 -0.150933625
C   C41       1.0  0.04510  0.39610  0.08990  1.0000 -0.150933625
C   C42       1.0  0.39610  0.04510  0.41010  1.0000 -0.150933625
C   C43       1.0  0.95490  0.60390  0.91010  1.0000 -0.150933625
C   C44       1.0  0.60390  0.95490  0.58990  1.0000 -0.150933625
C   C45       1.0  0.97030  0.50690  0.95030  1.0000 0.0718011783
C   C46       1.0  0.50690  0.97030  0.54970  1.0000 0.0718011783
C   C47       1.0  0.02970  0.49310  0.04970  1.0000 0.0718011783
C   C48       1.0  0.49310  0.02970  0.45030  1.0000 0.0718011783
O   O1        1.0  0.96260  0.03880  0.83850  1.0000 -0.8221426903
O   O2        1.0  0.03880  0.96260  0.66150  1.0000 -0.8221426903
O   O3        1.0  0.03740  0.96120  0.16150  1.0000 -0.8221426903
O   O4        1.0  0.96120  0.03740  0.33850  1.0000 -0.8221426903
O   O5        1.0  0.15170  0.04830  0.99210  1.0000 -0.5515367834
O   O6        1.0  0.04830  0.15170  0.50790  1.0000 -0.5515367834
O   O7        1.0  0.84830  0.95170  0.00790  1.0000 -0.5515367834
O   O8        1.0  0.95170  0.84830  0.49210  1.0000 -0.5515367834
O   O9        1.0  0.20640  0.06420  0.82270  1.0000 -0.5515367834
O   O10       1.0  0.06420  0.20640  0.67730  1.0000 -0.5515367834
O   O11       1.0  0.79360  0.93580  0.17730  1.0000 -0.5515367834
O   O12       1.0  0.93580  0.79360  0.32270  1.0000 -0.5515367834
O   O13       1.0  0.07140  0.20560  0.17320  1.0000 -0.5261675267
O   O14       1.0  0.20560  0.07140  0.32680  1.0000 -0.5261675267
O   O15       1.0  0.92860  0.79440  0.82680  1.0000 -0.5261675267
O   O16       1.0  0.79440  0.92860  0.67320  1.0000 -0.5261675267
O   O17       1.0  0.96830  0.14290  0.03990  1.0000 -0.5815253703
O   O18       1.0  0.14290  0.96830  0.46010  1.0000 -0.5815253703
O   O19       1.0  0.03170  0.85710  0.96010  1.0000 -0.5815253703
O   O20       1.0  0.85710  0.03170  0.53990  1.0000 -0.5815253703
