# DDEC6 charges by PACMAN v1.1 (https://github.com/mtap-research/PACMAN-charge/)
data_2015[CrMn][noa]3[FSR]2
_chemical_formula_sum              "Mn8 Cr8 H12 C52 O100"
_cell_length_a       16.8907
_cell_length_b       14.2315
_cell_length_c       32.9968
_cell_angle_alpha    90
_cell_angle_beta     91.3408
_cell_angle_gamma    90

_symmetry_space_group_name_H-M    "P 1"
_symmetry_Int_Tables_number       1

loop_
  _symmetry_equiv_pos_as_xyz
  'x, y, z'

loop_
  _atom_site_type_symbol
  _atom_site_label
  _atom_site_symmetry_multiplicity
  _atom_site_fract_x
  _atom_site_fract_y
  _atom_site_fract_z
  _atom_site_occupancy
  _atom_site_charge
Mn  Mn1       1.0  0.87191  0.20704  0.57826  1.0000 1.0474350274
Mn  Mn2       1.0  0.12809  0.70704  0.92174  1.0000 1.0421498041
Mn  Mn3       1.0  0.12809  0.79296  0.42174  1.0000 1.0474350274
Mn  Mn4       1.0  0.87191  0.29296  0.07826  1.0000 1.0474350274
Mn  Mn5       1.0  0.62019  0.46507  0.81121  1.0000 1.0089543979
Mn  Mn6       1.0  0.37981  0.96507  0.68879  1.0000 1.0089543979
Mn  Mn7       1.0  0.37981  0.53493  0.18879  1.0000 1.0089543979
Mn  Mn8       1.0  0.62019  0.03493  0.31121  1.0000 1.0089543979
Cr  Cr1       1.0  0.12771  0.96612  0.58095  1.0000 1.2575769644
Cr  Cr2       1.0  0.87229  0.46612  0.91905  1.0000 1.2575769644
Cr  Cr3       1.0  0.87229  0.03388  0.41905  1.0000 1.2575769644
Cr  Cr4       1.0  0.12771  0.53388  0.08095  1.0000 1.2575769644
Cr  Cr5       1.0  0.62218  0.21895  0.68290  1.0000 1.2129678548
Cr  Cr6       1.0  0.37782  0.71895  0.81710  1.0000 1.2129678548
Cr  Cr7       1.0  0.37782  0.78105  0.31710  1.0000 1.2129678548
Cr  Cr8       1.0  0.62218  0.28105  0.18290  1.0000 1.2152159433
H   H1        1.0  0.99130  0.39840  0.58270  1.0000 0.1391194248
H   H2        1.0  0.00870  0.89840  0.91730  1.0000 0.1391194248
H   H3        1.0  0.00870  0.60160  0.41730  1.0000 0.1391194248
H   H4        1.0  0.99130  0.10160  0.08270  1.0000 0.1391194248
H   H5        1.0  0.92950  0.47940  0.59340  1.0000 0.1391194248
H   H6        1.0  0.07050  0.97940  0.90660  1.0000 0.1391194248
H   H7        1.0  0.07050  0.52060  0.40660  1.0000 0.1391194248
H   H8        1.0  0.92950  0.02060  0.09340  1.0000 0.1391194248
H   H9        1.0  0.94570  0.39530  0.62470  1.0000 0.1391194248
H   H10       1.0  0.05430  0.89530  0.87530  1.0000 0.1391194248
H   H11       1.0  0.05430  0.60470  0.37530  1.0000 0.1391194248
H   H12       1.0  0.94570  0.10470  0.12470  1.0000 0.1391194248
C   C1        1.0  0.13020  0.78220  0.55685  1.0000 0.5014565002
C   C2        1.0  0.86980  0.28220  0.94315  1.0000 0.5014565002
C   C3        1.0  0.86980  0.21780  0.44315  1.0000 0.5014565002
C   C4        1.0  0.13020  0.71780  0.05685  1.0000 0.5014565002
C   C5        1.0  0.97700  0.04220  0.58277  1.0000 0.5014565002
C   C6        1.0  0.02300  0.54220  0.91723  1.0000 0.5014565002
C   C7        1.0  0.02300  0.95780  0.41723  1.0000 0.5014565002
C   C8        1.0  0.97700  0.45780  0.08277  1.0000 0.5014565002
C   C9        1.0  0.03420  0.12520  0.57663  1.0000 0.5014565002
C   C10       1.0  0.96580  0.62520  0.92337  1.0000 0.4941061955
C   C11       1.0  0.96580  0.87480  0.42337  1.0000 0.4941061955
C   C12       1.0  0.03420  0.37480  0.07663  1.0000 0.5014565002
C   C13       1.0  0.12860  0.84160  0.51772  1.0000 0.5475407083
C   C14       1.0  0.87140  0.34160  0.98228  1.0000 0.5475407083
C   C15       1.0  0.87140  0.15840  0.48228  1.0000 0.5475407083
C   C16       1.0  0.12860  0.65840  0.01772  1.0000 0.5413094382
C   C17       1.0  0.94130  0.41220  0.59591  1.0000 -0.1816124101
C   C18       1.0  0.05870  0.91220  0.90409  1.0000 -0.1816124101
C   C19       1.0  0.05870  0.58780  0.40409  1.0000 -0.1816124101
C   C20       1.0  0.94130  0.08780  0.09591  1.0000 -0.1816124101
C   C21       1.0  0.77030  0.20800  0.64982  1.0000 0.5296477298
C   C22       1.0  0.22970  0.70800  0.85018  1.0000 0.5214281472
C   C23       1.0  0.22970  0.79200  0.35018  1.0000 0.5214281472
C   C24       1.0  0.77030  0.29200  0.14982  1.0000 0.5214281472
C   C25       1.0  0.71130  0.21750  0.61360  1.0000 0.5214281472
C   C26       1.0  0.28870  0.71750  0.88640  1.0000 0.5214281472
C   C27       1.0  0.28870  0.78250  0.38640  1.0000 0.5214281472
C   C28       1.0  0.71130  0.28250  0.11360  1.0000 0.5214281472
C   C29       1.0  0.53420  0.05560  0.67918  1.0000 0.5413094382
C   C30       1.0  0.46580  0.55560  0.82082  1.0000 0.5475407083
C   C31       1.0  0.46580  0.94440  0.32082  1.0000 0.5475407083
C   C32       1.0  0.53420  0.44440  0.17918  1.0000 0.5475407083
C   C33       1.0  0.47440  0.13720  0.68121  1.0000 0.5413094382
C   C34       1.0  0.52560  0.63720  0.81879  1.0000 0.5413094382
C   C35       1.0  0.52560  0.86280  0.31879  1.0000 0.5413094382
C   C36       1.0  0.47440  0.36280  0.18121  1.0000 0.5413094382
C   C37       1.0  0.61740  0.29740  0.75943  1.0000 0.5413094382
C   C38       1.0  0.38260  0.79740  0.74057  1.0000 0.5475407083
C   C39       1.0  0.38260  0.70260  0.24057  1.0000 0.5413094382
C   C40       1.0  0.61740  0.20260  0.25943  1.0000 0.5475407083
C   C41       1.0  0.62412  0.38030  0.72986  1.0000 0.5413094382
C   C42       1.0  0.37588  0.88030  0.77014  1.0000 0.5413094382
C   C43       1.0  0.37588  0.61970  0.27014  1.0000 0.5296477298
C   C44       1.0  0.62412  0.11970  0.22986  1.0000 0.5413094382
C   C45       1.0  0.72120  0.47040  0.88520  1.0000 0.5475407083
C   C46       1.0  0.27880  0.97040  0.61480  1.0000 0.5413094382
C   C47       1.0  0.27880  0.52960  0.11480  1.0000 0.5475407083
C   C48       1.0  0.72120  0.02960  0.38520  1.0000 0.5475407083
C   C49       1.0  0.77870  0.47890  0.84977  1.0000 0.5597943138
C   C50       1.0  0.22130  0.97890  0.65023  1.0000 0.5597943138
C   C51       1.0  0.22130  0.52110  0.15023  1.0000 0.5597943138
C   C52       1.0  0.77870  0.02110  0.34977  1.0000 0.5597943138
O   O1        1.0  0.12756  0.69665  0.55547  1.0000 -0.311499524
O   O2        1.0  0.87244  0.19665  0.94453  1.0000 -0.3021255512
O   O3        1.0  0.87244  0.30335  0.44453  1.0000 -0.3021255512
O   O4        1.0  0.12756  0.80335  0.05547  1.0000 -0.3021255512
O   O5        1.0  0.13428  0.83121  0.58947  1.0000 -0.5406063896
O   O6        1.0  0.86572  0.33121  0.91053  1.0000 -0.5466567059
O   O7        1.0  0.86572  0.16879  0.41053  1.0000 -0.5466567059
O   O8        1.0  0.13428  0.66879  0.08947  1.0000 -0.5406063896
O   O9        1.0  0.85166  0.48429  0.85992  1.0000 -0.5229541765
O   O10       1.0  0.14834  0.98429  0.64008  1.0000 -0.5229541765
O   O11       1.0  0.14834  0.51571  0.14008  1.0000 -0.5229541765
O   O12       1.0  0.85166  0.01571  0.35992  1.0000 -0.5229541765
O   O13       1.0  0.75444  0.47479  0.92038  1.0000 -0.5229541765
O   O14       1.0  0.24556  0.97479  0.57962  1.0000 -0.5229541765
O   O15       1.0  0.24556  0.52521  0.07962  1.0000 -0.5229541765
O   O16       1.0  0.75444  0.02521  0.42038  1.0000 -0.5229541765
O   O17       1.0  0.12191  0.93045  0.52277  1.0000 -0.4977078964
O   O18       1.0  0.87809  0.43045  0.97723  1.0000 -0.5053801119
O   O19       1.0  0.87809  0.06955  0.47723  1.0000 -0.5053801119
O   O20       1.0  0.12191  0.56955  0.02277  1.0000 -0.5053801119
O   O21       1.0  0.01073  0.96202  0.58594  1.0000 -0.4932003398
O   O22       1.0  0.98927  0.46202  0.91406  1.0000 -0.4932003398
O   O23       1.0  0.98927  0.03798  0.41406  1.0000 -0.4932003398
O   O24       1.0  0.01073  0.53798  0.08594  1.0000 -0.4932003398
O   O25       1.0  0.10655  0.10295  0.57274  1.0000 -0.4932003398
O   O26       1.0  0.89345  0.60295  0.92726  1.0000 -0.4977078964
O   O27       1.0  0.89345  0.89705  0.42726  1.0000 -0.4977078964
O   O28       1.0  0.10655  0.39705  0.07274  1.0000 -0.4977078964
O   O29       1.0  0.90545  0.05840  0.58523  1.0000 -0.3678618525
O   O30       1.0  0.09455  0.55840  0.91477  1.0000 -0.3678618525
O   O31       1.0  0.09455  0.94160  0.41477  1.0000 -0.3678618525
O   O32       1.0  0.90545  0.44160  0.08523  1.0000 -0.3678618525
O   O33       1.0  0.00557  0.20596  0.57637  1.0000 -0.3899591506
O   O34       1.0  0.99443  0.70596  0.92363  1.0000 -0.3803748269
O   O35       1.0  0.99443  0.79404  0.42363  1.0000 -0.3803748269
O   O36       1.0  0.00557  0.29404  0.07637  1.0000 -0.3803748269
O   O37       1.0  0.13342  0.80030  0.48504  1.0000 -0.3803748269
O   O38       1.0  0.86658  0.30030  0.01496  1.0000 -0.3803748269
O   O39       1.0  0.86658  0.19970  0.51496  1.0000 -0.3803748269
O   O40       1.0  0.13342  0.69970  0.98504  1.0000 -0.3803748269
O   O41       1.0  0.87812  0.35841  0.57667  1.0000 -0.311499524
O   O42       1.0  0.12188  0.85841  0.92333  1.0000 -0.3175710519
O   O43       1.0  0.12188  0.64159  0.42333  1.0000 -0.3175710519
O   O44       1.0  0.87812  0.14159  0.07667  1.0000 -0.311499524
O   O45       1.0  0.73796  0.21280  0.57911  1.0000 -0.3530804892
O   O46       1.0  0.26204  0.71280  0.92089  1.0000 -0.3530804892
O   O47       1.0  0.26204  0.78720  0.42089  1.0000 -0.3530804892
O   O48       1.0  0.73796  0.28720  0.07911  1.0000 -0.3530804892
O   O49       1.0  0.84195  0.20263  0.64279  1.0000 -0.3803748269
O   O50       1.0  0.15805  0.70263  0.85721  1.0000 -0.3803748269
O   O51       1.0  0.15805  0.79737  0.35721  1.0000 -0.3803748269
O   O52       1.0  0.84195  0.29737  0.14279  1.0000 -0.3803748269
O   O53       1.0  0.73940  0.20626  0.68471  1.0000 -0.531202348
O   O54       1.0  0.26060  0.70626  0.81529  1.0000 -0.5229541765
O   O55       1.0  0.26060  0.79374  0.31529  1.0000 -0.5229541765
O   O56       1.0  0.73940  0.29374  0.18471  1.0000 -0.531202348
O   O57       1.0  0.63928  0.22780  0.62351  1.0000 -0.531202348
O   O58       1.0  0.36072  0.72780  0.87649  1.0000 -0.531202348
O   O59       1.0  0.36072  0.77220  0.37649  1.0000 -0.5229541765
O   O60       1.0  0.63928  0.27220  0.12351  1.0000 -0.531202348
O   O61       1.0  0.60670  0.08039  0.67801  1.0000 -0.5406063896
O   O62       1.0  0.39330  0.58039  0.82199  1.0000 -0.531202348
O   O63       1.0  0.39330  0.91961  0.32199  1.0000 -0.5406063896
O   O64       1.0  0.60670  0.41961  0.17801  1.0000 -0.5406063896
O   O65       1.0  0.50515  0.21898  0.67769  1.0000 -0.5406063896
O   O66       1.0  0.49485  0.71898  0.82231  1.0000 -0.5406063896
O   O67       1.0  0.49485  0.78102  0.32231  1.0000 -0.5406063896
O   O68       1.0  0.50515  0.28102  0.17769  1.0000 -0.5406063896
O   O69       1.0  0.61589  0.21640  0.74267  1.0000 -0.5406063896
O   O70       1.0  0.38411  0.71640  0.75733  1.0000 -0.5406063896
O   O71       1.0  0.38411  0.78360  0.25733  1.0000 -0.5406063896
O   O72       1.0  0.61589  0.28360  0.24267  1.0000 -0.5406063896
O   O73       1.0  0.62746  0.35716  0.69243  1.0000 -0.531202348
O   O74       1.0  0.37254  0.85716  0.80757  1.0000 -0.531202348
O   O75       1.0  0.37254  0.64284  0.30757  1.0000 -0.531202348
O   O76       1.0  0.62746  0.14284  0.19243  1.0000 -0.531202348
O   O77       1.0  0.61451  0.31512  0.79637  1.0000 -0.4004887487
O   O78       1.0  0.38549  0.81512  0.70363  1.0000 -0.4004887487
O   O79       1.0  0.38549  0.68488  0.20363  1.0000 -0.4004887487
O   O80       1.0  0.61451  0.18488  0.29637  1.0000 -0.4004887487
O   O81       1.0  0.62485  0.46107  0.74374  1.0000 -0.3899591506
O   O82       1.0  0.37515  0.96107  0.75626  1.0000 -0.3803748269
O   O83       1.0  0.37515  0.53893  0.25626  1.0000 -0.3899591506
O   O84       1.0  0.62485  0.03893  0.24374  1.0000 -0.3899591506
O   O85       1.0  0.74967  0.48120  0.81483  1.0000 -0.4004887487
O   O86       1.0  0.25033  0.98120  0.68517  1.0000 -0.4004887487
O   O87       1.0  0.25033  0.51880  0.18517  1.0000 -0.4004887487
O   O88       1.0  0.74967  0.01880  0.31483  1.0000 -0.4004887487
O   O89       1.0  0.64981  0.46199  0.87712  1.0000 -0.3899591506
O   O90       1.0  0.35019  0.96199  0.62288  1.0000 -0.3899591506
O   O91       1.0  0.35019  0.53801  0.12288  1.0000 -0.3899591506
O   O92       1.0  0.64981  0.03801  0.37712  1.0000 -0.3899591506
O   O93       1.0  0.50778  0.97409  0.67845  1.0000 -0.3899591506
O   O94       1.0  0.49222  0.47409  0.82155  1.0000 -0.3899591506
O   O95       1.0  0.49222  0.02591  0.32155  1.0000 -0.3899591506
O   O96       1.0  0.50778  0.52591  0.17845  1.0000 -0.4004887487
O   O97       1.0  0.40343  0.11819  0.68527  1.0000 -0.3803748269
O   O98       1.0  0.59657  0.61819  0.81473  1.0000 -0.3803748269
O   O99       1.0  0.59657  0.88181  0.31473  1.0000 -0.3899591506
O   O100      1.0  0.40343  0.38181  0.18527  1.0000 -0.3899591506
