# DDEC6 charges by PACMAN v1.1 (https://github.com/mtap-research/PACMAN-charge/)
data_2015[TbEu][nan]3[FSR]1
_chemical_formula_sum              "Tb2 Eu6 H116 C132 N4 O68"
_cell_length_a       13.013
_cell_length_b       13.846
_cell_length_c       28.029
_cell_angle_alpha    75.71
_cell_angle_beta     79.28
_cell_angle_gamma    85.59

_symmetry_space_group_name_H-M    "P 1"
_symmetry_Int_Tables_number       1

loop_
  _symmetry_equiv_pos_as_xyz
  'x, y, z'

loop_
  _atom_site_type_symbol
  _atom_site_label
  _atom_site_symmetry_multiplicity
  _atom_site_fract_x
  _atom_site_fract_y
  _atom_site_fract_z
  _atom_site_occupancy
  _atom_site_charge
Tb  Tb1       1.0  0.88045  0.02113  0.55412  1.0000 2.1106756499
Tb  Tb2       1.0  0.11955  0.97887  0.44588  1.0000 2.1106756499
Eu  Eu1       1.0  0.47158  0.53808  0.41513  1.0000 2.1106756499
Eu  Eu2       1.0  0.52842  0.46192  0.58487  1.0000 2.1106756499
Eu  Eu3       1.0  0.03064  0.87534  0.06060  1.0000 2.1106756499
Eu  Eu4       1.0  0.96936  0.12466  0.93940  1.0000 2.1106756499
Eu  Eu5       1.0  0.51721  0.48092  0.91410  1.0000 2.1594715486
Eu  Eu6       1.0  0.48279  0.51908  0.08590  1.0000 2.1594715486
H   H1        1.0  0.72520  0.74430  0.51570  1.0000 0.1315010495
H   H2        1.0  0.27480  0.25570  0.48430  1.0000 0.1315010495
H   H3        1.0  0.72790  0.66610  0.38690  1.0000 0.1210657998
H   H4        1.0  0.27210  0.33390  0.61310  1.0000 0.1210657998
H   H5        1.0  0.91670  0.87930  0.39150  1.0000 0.1315010495
H   H6        1.0  0.08330  0.12070  0.60850  1.0000 0.1315010495
H   H7        1.0  0.00310  0.85340  0.32070  1.0000 0.1210657998
H   H8        1.0  0.99690  0.14660  0.67930  1.0000 0.1210657998
H   H9        1.0  0.05920  0.87290  0.23590  1.0000 0.1210657998
H   H10       1.0  0.94080  0.12710  0.76410  1.0000 0.1210657998
H   H11       1.0  0.80870  0.73830  0.22580  1.0000 0.1210657998
H   H12       1.0  0.19130  0.26170  0.77420  1.0000 0.1210657998
H   H13       1.0  0.75360  0.71630  0.31050  1.0000 0.1210657998
H   H14       1.0  0.24640  0.28370  0.68950  1.0000 0.1210657998
H   H15       1.0  0.75040  0.27400  0.43780  1.0000 0.1315010495
H   H16       1.0  0.24960  0.72600  0.56220  1.0000 0.1315010495
H   H17       1.0  0.02570  0.26240  0.34650  1.0000 0.1210657998
H   H18       1.0  0.97430  0.73760  0.65350  1.0000 0.1210657998
H   H19       1.0  0.81610  0.48070  0.30930  1.0000 0.1125078537
H   H20       1.0  0.18390  0.51930  0.69070  1.0000 0.1125078537
H   H21       1.0  0.96790  0.56950  0.27580  1.0000 0.1125078537
H   H22       1.0  0.03210  0.43050  0.72420  1.0000 0.1125078537
H   H23       1.0  0.09630  0.64470  0.21200  1.0000 0.1210657998
H   H24       1.0  0.90370  0.35530  0.78800  1.0000 0.1210657998
H   H25       1.0  0.20710  0.37660  0.19460  1.0000 0.1210657998
H   H26       1.0  0.79290  0.62340  0.80540  1.0000 0.1210657998
H   H27       1.0  0.07800  0.30160  0.25860  1.0000 0.1125078537
H   H28       1.0  0.92200  0.69840  0.74140  1.0000 0.1125078537
H   H29       1.0  0.73820  0.24060  0.05730  1.0000 0.1210657998
H   H30       1.0  0.26180  0.75940  0.94270  1.0000 0.1210657998
H   H31       1.0  0.54170  0.18130  0.18790  1.0000 0.1125078537
H   H32       1.0  0.45830  0.81870  0.81210  1.0000 0.1125078537
H   H33       1.0  0.75910  0.97560  0.15410  1.0000 0.1210657998
H   H34       1.0  0.24090  0.02440  0.84590  1.0000 0.1210657998
H   H35       1.0  0.62400  0.87260  0.20110  1.0000 0.1125078537
H   H36       1.0  0.37600  0.12740  0.79890  1.0000 0.1125078537
H   H37       1.0  0.55880  0.76090  0.27450  1.0000 0.1210657998
H   H38       1.0  0.44120  0.23910  0.72550  1.0000 0.1210657998
H   H39       1.0  0.49270  0.98290  0.34380  1.0000 0.1210657998
H   H40       1.0  0.50730  0.01710  0.65620  1.0000 0.1210657998
H   H41       1.0  0.56270  0.09420  0.27040  1.0000 0.1125078537
H   H42       1.0  0.43730  0.90580  0.72960  1.0000 0.1125078537
H   H43       1.0  0.74720  0.72830  0.01370  1.0000 0.1315010495
H   H44       1.0  0.25280  0.27170  0.98630  1.0000 0.1315010495
H   H45       1.0  0.86290  0.92510  0.88820  1.0000 0.1315010495
H   H46       1.0  0.13710  0.07490  0.11180  1.0000 0.1315010495
H   H47       1.0  0.68030  0.71030  0.88150  1.0000 0.1210657998
H   H48       1.0  0.31970  0.28970  0.11850  1.0000 0.1210657998
H   H49       1.0  0.65020  0.82380  0.81050  1.0000 0.1125078537
H   H50       1.0  0.34980  0.17620  0.18950  1.0000 0.1125078537
H   H51       1.0  0.67610  0.87570  0.72480  1.0000 0.1210657998
H   H52       1.0  0.32390  0.12430  0.27520  1.0000 0.1210657998
H   H53       1.0  0.96350  0.95790  0.72410  1.0000 0.1210657998
H   H54       1.0  0.03650  0.04210  0.27590  1.0000 0.1210657998
H   H55       1.0  0.93850  0.90440  0.81000  1.0000 0.1210657998
H   H56       1.0  0.06150  0.09560  0.19000  1.0000 0.1210657998
H   H57       1.0  0.50200  0.44030  0.30490  1.0000 0.1315010495
H   H58       1.0  0.49800  0.55970  0.69510  1.0000 0.1315010495
H   H59       1.0  0.26260  0.28300  0.31840  1.0000 0.1315010495
H   H60       1.0  0.73740  0.71700  0.68160  1.0000 0.1315010495
H   H61       1.0  0.23890  0.36130  0.35130  1.0000 0.1389516265
H   H62       1.0  0.76110  0.63870  0.64870  1.0000 0.1389516265
H   H63       1.0  0.31510  0.26980  0.36570  1.0000 0.1533831428
H   H64       1.0  0.68490  0.73020  0.63430  1.0000 0.1533831428
H   H65       1.0  0.38540  0.31110  0.24870  1.0000 0.1315010495
H   H66       1.0  0.61460  0.68890  0.75130  1.0000 0.1315010495
H   H67       1.0  0.49590  0.31870  0.26200  1.0000 0.1315010495
H   H68       1.0  0.50410  0.68130  0.73800  1.0000 0.1315010495
H   H69       1.0  0.43960  0.41410  0.23370  1.0000 0.1315010495
H   H70       1.0  0.56040  0.58590  0.76630  1.0000 0.1315010495
H   H71       1.0  0.06420  0.70070  0.99530  1.0000 0.0949617471
H   H72       1.0  0.93580  0.29930  0.00470  1.0000 0.0949617471
H   H73       1.0  0.15990  0.46390  0.98810  1.0000 0.1315010495
H   H74       1.0  0.84010  0.53610  0.01190  1.0000 0.1315010495
H   H75       1.0  0.19630  0.57130  0.95950  1.0000 0.1389516265
H   H76       1.0  0.80370  0.42870  0.04050  1.0000 0.1389516265
H   H77       1.0  0.08060  0.54220  0.96300  1.0000 0.1315010495
H   H78       1.0  0.91940  0.45780  0.03700  1.0000 0.1315010495
H   H79       1.0  0.13660  0.43680  0.07280  1.0000 0.1210657998
H   H80       1.0  0.86340  0.56320  0.92720  1.0000 0.1210657998
H   H81       1.0  0.04400  0.49910  0.09650  1.0000 0.1315010495
H   H82       1.0  0.95600  0.50090  0.90350  1.0000 0.1315010495
H   H83       1.0  0.15990  0.52840  0.09220  1.0000 0.1389516265
H   H84       1.0  0.84010  0.47160  0.90780  1.0000 0.1389516265
H   H85       1.0  0.63600  0.01300  0.55600  1.0000 0.4206090341
H   H86       1.0  0.36400  0.98700  0.44400  1.0000 0.4206090341
H   H87       1.0  0.65200  0.12400  0.56100  1.0000 0.4088371093
H   H88       1.0  0.34800  0.87600  0.43900  1.0000 0.4088371093
H   H89       1.0  0.80700  0.21300  0.59600  1.0000 0.3998769219
H   H90       1.0  0.19300  0.78700  0.40400  1.0000 0.3998769219
H   H91       1.0  0.88800  0.25300  0.54700  1.0000 0.4088371093
H   H92       1.0  0.11200  0.74700  0.45300  1.0000 0.4088371093
H   H93       1.0  0.38800  0.62000  0.50920  1.0000 0.4206090341
H   H94       1.0  0.61200  0.38000  0.49080  1.0000 0.4206090341
H   H95       1.0  0.31800  0.67600  0.46900  1.0000 0.3998769219
H   H96       1.0  0.68200  0.32400  0.53100  1.0000 0.3998769219
H   H97       1.0  0.25800  0.64500  0.38700  1.0000 0.3998769219
H   H98       1.0  0.74200  0.35500  0.61300  1.0000 0.3998769219
H   H99       1.0  0.22800  0.53400  0.41300  1.0000 0.4206090341
H   H100      1.0  0.77200  0.46600  0.58700  1.0000 0.4206090341
H   H101      1.0  0.27700  0.87100  0.05600  1.0000 0.4088371093
H   H102      1.0  0.72300  0.12900  0.94400  1.0000 0.4088371093
H   H103      1.0  0.24200  0.76500  0.09000  1.0000 0.3998769219
H   H104      1.0  0.75800  0.23500  0.91000  1.0000 0.3998769219
H   H105      1.0  0.30130  0.48300  0.88000  1.0000 0.4206090341
H   H106      1.0  0.69870  0.51700  0.12000  1.0000 0.4206090341
H   H107      1.0  0.38300  0.43700  0.84100  1.0000 0.3998769219
H   H108      1.0  0.61700  0.56300  0.15900  1.0000 0.3998769219
H   H109      1.0  0.60500  0.28200  0.89000  1.0000 0.391426451
H   H110      1.0  0.39500  0.71800  0.11000  1.0000 0.391426451
H   H111      1.0  0.50700  0.31200  0.86100  1.0000 0.3998769219
H   H112      1.0  0.49300  0.68800  0.13900  1.0000 0.3998769219
H   H113      1.0  0.63400  0.36700  0.00400  1.0000 0.4088371093
H   H114      1.0  0.36600  0.63300  0.99600  1.0000 0.4088371093
H   H115      1.0  0.65400  0.29700  0.96600  1.0000 0.391426451
H   H116      1.0  0.34600  0.70300  0.03400  1.0000 0.391426451
C   C1        1.0  0.82450  0.82280  0.45760  1.0000 -0.0190696788
C   C2        1.0  0.17550  0.17720  0.54240  1.0000 -0.0190696788
C   C3        1.0  0.75080  0.75220  0.48170  1.0000 -0.1191793647
C   C4        1.0  0.24920  0.24780  0.51830  1.0000 -0.1191793647
C   C5        1.0  0.71480  0.69310  0.45530  1.0000 -0.0190696788
C   C6        1.0  0.28520  0.30690  0.54470  1.0000 -0.0190696788
C   C7        1.0  0.75300  0.70520  0.40460  1.0000 -0.1423760148
C   C8        1.0  0.24700  0.29480  0.59540  1.0000 -0.1423760148
C   C9        1.0  0.82940  0.77640  0.37930  1.0000 0.0757813523
C   C10       1.0  0.17060  0.22360  0.62070  1.0000 0.0757813523
C   C11       1.0  0.86510  0.83340  0.40690  1.0000 -0.1492415317
C   C12       1.0  0.13490  0.16660  0.59310  1.0000 -0.1492415317
C   C13       1.0  0.86720  0.78840  0.32440  1.0000 0.0696950714
C   C14       1.0  0.13280  0.21160  0.67560  1.0000 0.0696950714
C   C15       1.0  0.96200  0.83210  0.30170  1.0000 -0.1423760148
C   C16       1.0  0.03800  0.16790  0.69830  1.0000 -0.1423760148
C   C17       1.0  0.99530  0.84400  0.25060  1.0000 -0.0998678268
C   C18       1.0  0.00470  0.15600  0.74940  1.0000 -0.0998678268
C   C19       1.0  0.93670  0.81450  0.22130  1.0000 -0.0190696788
C   C20       1.0  0.06330  0.18550  0.77870  1.0000 -0.0190696788
C   C21       1.0  0.84710  0.76400  0.24450  1.0000 -0.0998678268
C   C22       1.0  0.15290  0.23600  0.75550  1.0000 -0.0998678268
C   C23       1.0  0.81400  0.75120  0.29540  1.0000 -0.1423760148
C   C24       1.0  0.18600  0.24880  0.70460  1.0000 -0.1423760148
C   C25       1.0  0.85920  0.88830  0.48670  1.0000 0.6192437182
C   C26       1.0  0.14080  0.11170  0.51330  1.0000 0.6192437182
C   C27       1.0  0.63950  0.61180  0.48230  1.0000 0.6451775651
C   C28       1.0  0.36050  0.38820  0.51770  1.0000 0.6451775651
C   C29       1.0  0.97320  0.83090  0.16560  1.0000 0.5507474909
C   C30       1.0  0.02680  0.16910  0.83440  1.0000 0.5507474909
C   C31       1.0  0.76620  0.38380  0.37480  1.0000 -0.0190696788
C   C32       1.0  0.23380  0.61620  0.62520  1.0000 -0.0190696788
C   C33       1.0  0.79560  0.29990  0.40820  1.0000 -0.1191793647
C   C34       1.0  0.20440  0.70010  0.59180  1.0000 -0.1191793647
C   C35       1.0  0.89390  0.25370  0.39740  1.0000 -0.0190696788
C   C36       1.0  0.10610  0.74630  0.60260  1.0000 -0.0190696788
C   C37       1.0  0.96090  0.29380  0.35360  1.0000 -0.1423760148
C   C38       1.0  0.03910  0.70620  0.64640  1.0000 -0.1423760148
C   C39       1.0  0.93410  0.37950  0.31990  1.0000 0.0579168717
C   C40       1.0  0.06590  0.62050  0.68010  1.0000 0.0579168717
C   C41       1.0  0.83590  0.42330  0.33130  1.0000 -0.1492415317
C   C42       1.0  0.16410  0.57670  0.66870  1.0000 -0.1492415317
C   C43       1.0  0.01030  0.42740  0.27590  1.0000 0.0696950714
C   C44       1.0  0.98970  0.57260  0.72410  1.0000 0.0696950714
C   C45       1.0  0.01680  0.52970  0.26000  1.0000 -0.1492415317
C   C46       1.0  0.98320  0.47030  0.74000  1.0000 -0.1492415317
C   C47       1.0  0.09360  0.57550  0.22150  1.0000 -0.0927552772
C   C48       1.0  0.90640  0.42450  0.77850  1.0000 -0.0927552772
C   C49       1.0  0.16650  0.51680  0.19720  1.0000 -0.0314929639
C   C50       1.0  0.83350  0.48320  0.80280  1.0000 -0.0314929639
C   C51       1.0  0.15940  0.41600  0.21120  1.0000 -0.0998678268
C   C52       1.0  0.84060  0.58400  0.78880  1.0000 -0.0998678268
C   C53       1.0  0.08180  0.37070  0.25000  1.0000 -0.1572388117
C   C54       1.0  0.91820  0.62930  0.75000  1.0000 -0.1572388117
C   C55       1.0  0.66090  0.43280  0.38580  1.0000 0.566091157
C   C56       1.0  0.33910  0.56720  0.61420  1.0000 0.566091157
C   C57       1.0  0.92950  0.16440  0.43540  1.0000 0.6316651772
C   C58       1.0  0.07050  0.83560  0.56460  1.0000 0.6316651772
C   C59       1.0  0.25570  0.56560  0.15880  1.0000 0.6012053559
C   C60       1.0  0.74430  0.43440  0.84120  1.0000 0.6012053559
C   C61       1.0  0.76100  0.10300  0.10020  1.0000 -0.0190696788
C   C62       1.0  0.23900  0.89700  0.89980  1.0000 -0.0190696788
C   C63       1.0  0.71450  0.19720  0.08780  1.0000 -0.1312364121
C   C64       1.0  0.28550  0.80280  0.91220  1.0000 -0.1312364121
C   C65       1.0  0.63250  0.22650  0.12110  1.0000 -0.0190696788
C   C66       1.0  0.36750  0.77350  0.87890  1.0000 -0.0190696788
C   C67       1.0  0.59740  0.16140  0.16600  1.0000 -0.1492415317
C   C68       1.0  0.40260  0.83860  0.83400  1.0000 -0.1492415317
C   C69       1.0  0.64270  0.06700  0.17940  1.0000 0.0696950714
C   C70       1.0  0.35730  0.93300  0.82060  1.0000 0.0696950714
C   C71       1.0  0.72660  0.03820  0.14570  1.0000 -0.1423760148
C   C72       1.0  0.27340  0.96180  0.85430  1.0000 -0.1423760148
C   C73       1.0  0.60090  0.99550  0.22750  1.0000 0.0757813523
C   C74       1.0  0.39910  0.00450  0.77250  1.0000 0.0757813523
C   C75       1.0  0.59860  0.89570  0.22960  1.0000 -0.1492415317
C   C76       1.0  0.40140  0.10430  0.77040  1.0000 -0.1492415317
C   C77       1.0  0.55890  0.82840  0.27390  1.0000 -0.0998678268
C   C78       1.0  0.44110  0.17160  0.72610  1.0000 -0.0998678268
C   C79       1.0  0.52000  0.85980  0.31660  1.0000 -0.0314929639
C   C80       1.0  0.48000  0.14020  0.68340  1.0000 -0.0314929639
C   C81       1.0  0.52000  0.95990  0.31530  1.0000 -0.0927552772
C   C82       1.0  0.48000  0.04010  0.68470  1.0000 -0.0927552772
C   C83       1.0  0.56150  0.02690  0.27090  1.0000 -0.1572388117
C   C84       1.0  0.43850  0.97310  0.72910  1.0000 -0.1572388117
C   C85       1.0  0.84820  0.06830  0.06360  1.0000 0.6451775651
C   C86       1.0  0.15180  0.93170  0.93640  1.0000 0.6451775651
C   C87       1.0  0.57970  0.32790  0.10800  1.0000 0.5563310156
C   C88       1.0  0.42030  0.67210  0.89200  1.0000 0.5563310156
C   C89       1.0  0.48040  0.78480  0.36490  1.0000 0.6012053559
C   C90       1.0  0.51960  0.21520  0.63510  1.0000 0.6012053559
C   C91       1.0  0.69950  0.70820  0.95220  1.0000 -0.0405290784
C   C92       1.0  0.30050  0.29180  0.04780  1.0000 -0.0405290784
C   C93       1.0  0.75290  0.75290  0.97930  1.0000 -0.1312364121
C   C94       1.0  0.24710  0.24710  0.02070  1.0000 -0.1312364121
C   C95       1.0  0.81470  0.83440  0.95510  1.0000 -0.0190696788
C   C96       1.0  0.18530  0.16560  0.04490  1.0000 -0.0190696788
C   C97       1.0  0.82360  0.86920  0.90410  1.0000 -0.1423760148
C   C98       1.0  0.17640  0.13080  0.09590  1.0000 -0.1423760148
C   C99       1.0  0.77540  0.82290  0.87580  1.0000 0.0696950714
C   C100      1.0  0.22460  0.17710  0.12420  1.0000 0.0696950714
C   C101      1.0  0.71310  0.74200  0.89990  1.0000 -0.1492415317
C   C102      1.0  0.28690  0.25800  0.10010  1.0000 -0.1492415317
C   C103      1.0  0.79100  0.85830  0.82040  1.0000 0.0696950714
C   C104      1.0  0.20900  0.14170  0.17960  1.0000 0.0696950714
C   C105      1.0  0.71380  0.85080  0.79350  1.0000 -0.1492415317
C   C106      1.0  0.28620  0.14920  0.20650  1.0000 -0.1492415317
C   C107      1.0  0.72900  0.88230  0.74190  1.0000 -0.1083203075
C   C108      1.0  0.27100  0.11770  0.25810  1.0000 -0.1083203075
C   C109      1.0  0.82210  0.92350  0.71560  1.0000 -0.0124707658
C   C110      1.0  0.17790  0.07650  0.28440  1.0000 -0.0124707658
C   C111      1.0  0.90000  0.93100  0.74140  1.0000 -0.1083203075
C   C112      1.0  0.10000  0.06900  0.25860  1.0000 -0.1083203075
C   C113      1.0  0.88480  0.89880  0.79320  1.0000 -0.1492415317
C   C114      1.0  0.11520  0.10120  0.20680  1.0000 -0.1492415317
C   C115      1.0  0.63080  0.62390  0.97920  1.0000 0.6383559476
C   C116      1.0  0.36920  0.37610  0.02080  1.0000 0.6383559476
C   C117      1.0  0.87310  0.88000  0.98510  1.0000 0.6316651772
C   C118      1.0  0.12690  0.12000  0.01490  1.0000 0.6316651772
C   C119      1.0  0.83920  0.96140  0.65960  1.0000 0.5507474909
C   C120      1.0  0.16080  0.03860  0.34040  1.0000 0.5507474909
C   C121      1.0  0.43700  0.42910  0.32540  1.0000 0.2269439469
C   C122      1.0  0.56300  0.57090  0.67460  1.0000 0.2269439469
C   C123      1.0  0.29200  0.31740  0.33840  1.0000 -0.292511188
C   C124      1.0  0.70800  0.68260  0.66160  1.0000 -0.292511188
C   C125      1.0  0.42940  0.35250  0.25860  1.0000 -0.3298409213
C   C126      1.0  0.57060  0.64750  0.74140  1.0000 -0.3298409213
C   C127      1.0  0.07550  0.66040  0.02590  1.0000 0.2984870146
C   C128      1.0  0.92450  0.33960  0.97410  1.0000 0.2984870146
C   C129      1.0  0.13900  0.53320  0.98030  1.0000 -0.3591839005
C   C130      1.0  0.86100  0.46680  0.01970  1.0000 -0.3591839005
C   C131      1.0  0.11260  0.50240  0.07640  1.0000 -0.3298409213
C   C132      1.0  0.88740  0.49760  0.92360  1.0000 -0.3298409213
N   N1        1.0  0.37760  0.37400  0.30850  1.0000 0.0094210473
N   N2        1.0  0.62240  0.62600  0.69150  1.0000 0.0094210473
N   N3        1.0  0.10830  0.56760  0.02720  1.0000 0.0227355841
N   N4        1.0  0.89170  0.43240  0.97280  1.0000 0.0227355841
O   O1        1.0  0.94470  0.93210  0.47240  1.0000 -0.7134945025
O   O2        1.0  0.05530  0.06790  0.52760  1.0000 -0.7134945025
O   O3        1.0  0.79890  0.89890  0.52615  1.0000 -0.616890498
O   O4        1.0  0.20110  0.10110  0.47385  1.0000 -0.616890498
O   O5        1.0  0.60000  0.56710  0.45682  1.0000 -0.6907809486
O   O6        1.0  0.40000  0.43290  0.54318  1.0000 -0.6907809486
O   O7        1.0  0.62460  0.59060  0.52898  1.0000 -0.6519750943
O   O8        1.0  0.37540  0.40940  0.47102  1.0000 -0.6519750943
O   O9        1.0  0.04470  0.88890  0.14483  1.0000 -0.5918854902
O   O10       1.0  0.95530  0.11110  0.85517  1.0000 -0.5918854902
O   O11       1.0  0.93050  0.78590  0.14101  1.0000 -0.6086769631
O   O12       1.0  0.06950  0.21410  0.85899  1.0000 -0.6086769631
O   O13       1.0  0.63980  0.51700  0.35810  1.0000 -0.6519750943
O   O14       1.0  0.36020  0.48300  0.64190  1.0000 -0.6519750943
O   O15       1.0  0.59570  0.39190  0.42349  1.0000 -0.6419714172
O   O16       1.0  0.40430  0.60810  0.57651  1.0000 -0.6419714172
O   O17       1.0  0.86880  0.13530  0.47613  1.0000 -0.6519750943
O   O18       1.0  0.13120  0.86470  0.52387  1.0000 -0.6519750943
O   O19       1.0  0.01880  0.12690  0.42219  1.0000 -0.6782931914
O   O20       1.0  0.98120  0.87310  0.57781  1.0000 -0.6782931914
O   O21       1.0  0.25940  0.65960  0.14720  1.0000 -0.5837765564
O   O22       1.0  0.74060  0.34040  0.85280  1.0000 -0.5837765564
O   O23       1.0  0.32460  0.50820  0.14131  1.0000 -0.6907809486
O   O24       1.0  0.67540  0.49180  0.85869  1.0000 -0.6907809486
O   O25       1.0  0.88920  0.98420  0.07753  1.0000 -0.6519750943
O   O26       1.0  0.11080  0.01580  0.92247  1.0000 -0.6519750943
O   O27       1.0  0.87640  0.12750  0.02166  1.0000 -0.6907809486
O   O28       1.0  0.12360  0.87250  0.97834  1.0000 -0.6907809486
O   O29       1.0  0.50400  0.35080  0.13824  1.0000 -0.616890498
O   O30       1.0  0.49600  0.64920  0.86176  1.0000 -0.616890498
O   O31       1.0  0.61290  0.38670  0.06686  1.0000 -0.6419714172
O   O32       1.0  0.38710  0.61330  0.93314  1.0000 -0.6419714172
O   O33       1.0  0.49080  0.69450  0.36314  1.0000 -0.6907809486
O   O34       1.0  0.50920  0.30550  0.63686  1.0000 -0.6907809486
O   O35       1.0  0.44330  0.81500  0.40310  1.0000 -0.5533110728
O   O36       1.0  0.55670  0.18500  0.59690  1.0000 -0.5533110728
O   O37       1.0  0.59820  0.57200  0.95505  1.0000 -0.6721043219
O   O38       1.0  0.40180  0.42800  0.04495  1.0000 -0.6721043219
O   O39       1.0  0.61130  0.60710  0.02570  1.0000 -0.6519750943
O   O40       1.0  0.38870  0.39290  0.97430  1.0000 -0.6519750943
O   O41       1.0  0.90160  0.96760  0.96699  1.0000 -0.6907809486
O   O42       1.0  0.09840  0.03240  0.03301  1.0000 -0.6907809486
O   O43       1.0  0.89260  0.82690  0.02565  1.0000 -0.6311928858
O   O44       1.0  0.10740  0.17310  0.97435  1.0000 -0.6311928858
O   O45       1.0  0.77960  0.93550  0.63574  1.0000 -0.5918854902
O   O46       1.0  0.22040  0.06450  0.36426  1.0000 -0.5918854902
O   O47       1.0  0.91290  0.01790  0.63864  1.0000 -0.6086769631
O   O48       1.0  0.08710  0.98210  0.36136  1.0000 -0.6086769631
O   O49       1.0  0.69190  0.06060  0.55580  1.0000 -0.8695180645
O   O50       1.0  0.30810  0.93940  0.44420  1.0000 -0.8695180645
O   O51       1.0  0.85640  0.18840  0.56860  1.0000 -0.8325174679
O   O52       1.0  0.14360  0.81160  0.43140  1.0000 -0.8325174679
O   O53       1.0  0.42900  0.46270  0.35540  1.0000 -0.444630601
O   O54       1.0  0.57100  0.53730  0.64460  1.0000 -0.444630601
O   O55       1.0  0.38960  0.64350  0.47231  1.0000 -0.8388491501
O   O56       1.0  0.61040  0.35650  0.52769  1.0000 -0.8388491501
O   O57       1.0  0.28640  0.58160  0.40700  1.0000 -0.8601784338
O   O58       1.0  0.71360  0.41840  0.59300  1.0000 -0.8601784338
O   O59       1.0  0.05800  0.69930  0.06390  1.0000 -0.5918854902
O   O60       1.0  0.94200  0.30070  0.93610  1.0000 -0.5918854902
O   O61       1.0  0.21240  0.83260  0.07420  1.0000 -0.8493337164
O   O62       1.0  0.78760  0.16740  0.92580  1.0000 -0.8493337164
O   O63       1.0  0.37710  0.47620  0.86690  1.0000 -0.8493337164
O   O64       1.0  0.62290  0.52380  0.13310  1.0000 -0.8493337164
O   O65       1.0  0.53680  0.32170  0.88980  1.0000 -0.8695180645
O   O66       1.0  0.46320  0.67830  0.11020  1.0000 -0.8695180645
O   O67       1.0  0.61750  0.36210  0.97054  1.0000 -0.8493337164
O   O68       1.0  0.38250  0.63790  0.02946  1.0000 -0.8493337164
