# DDEC6 charges by PACMAN v1.1 (https://github.com/mtap-research/PACMAN-charge/)
data_2015[Cu][rob]3[FSR]2
_chemical_formula_sum              "Cu4 H52 C80 N12 O24"
_cell_length_a       13.3459
_cell_length_b       13.3459
_cell_length_c       21.7319
_cell_angle_alpha    78.5505
_cell_angle_beta     101.45
_cell_angle_gamma    138.369

_symmetry_space_group_name_H-M    "P 1"
_symmetry_Int_Tables_number       1

loop_
  _symmetry_equiv_pos_as_xyz
  'x, y, z'

loop_
  _atom_site_type_symbol
  _atom_site_label
  _atom_site_symmetry_multiplicity
  _atom_site_fract_x
  _atom_site_fract_y
  _atom_site_fract_z
  _atom_site_occupancy
  _atom_site_charge
Cu  Cu1       1.0  0.62409  0.21827  0.52957  1.0000 0.7859584246
Cu  Cu2       1.0  0.21827  0.62409  0.97043  1.0000 0.7859584246
Cu  Cu3       1.0  0.37591  0.78173  0.47043  1.0000 0.7859584246
Cu  Cu4       1.0  0.78173  0.37591  0.02957  1.0000 0.7859584246
H   H1        1.0  0.36970  0.09190  0.59280  1.0000 0.1089874349
H   H2        1.0  0.09190  0.36970  0.90720  1.0000 0.1089874349
H   H3        1.0  0.63030  0.90810  0.40720  1.0000 0.1089874349
H   H4        1.0  0.90810  0.63030  0.09280  1.0000 0.1089874349
H   H5        1.0  0.20850  0.10890  0.58730  1.0000 0.1295584891
H   H6        1.0  0.10890  0.20850  0.91270  1.0000 0.1295584891
H   H7        1.0  0.79150  0.89110  0.41270  1.0000 0.1295584891
H   H8        1.0  0.89110  0.79150  0.08730  1.0000 0.1295584891
H   H9        1.0  0.40040  0.39240  0.43150  1.0000 0.1391582847
H   H10       1.0  0.39240  0.40040  0.06850  1.0000 0.1391582847
H   H11       1.0  0.59960  0.60760  0.56850  1.0000 0.1391582847
H   H12       1.0  0.60760  0.59960  0.93150  1.0000 0.1391582847
H   H13       1.0  0.55410  0.36430  0.44010  1.0000 0.1089874349
H   H14       1.0  0.36430  0.55410  0.05990  1.0000 0.1089874349
H   H15       1.0  0.44590  0.63570  0.55990  1.0000 0.1089874349
H   H16       1.0  0.63570  0.44590  0.94010  1.0000 0.1089874349
H   H17       1.0  0.20610  0.34250  0.47150  1.0000 0.1391582847
H   H18       1.0  0.34250  0.20610  0.02850  1.0000 0.1391582847
H   H19       1.0  0.79390  0.65750  0.52850  1.0000 0.1391582847
H   H20       1.0  0.65750  0.79390  0.97150  1.0000 0.1391582847
H   H21       1.0  0.06170  0.12370  0.57170  1.0000 0.1089874349
H   H22       1.0  0.12370  0.06170  0.92830  1.0000 0.1089874349
H   H23       1.0  0.93830  0.87630  0.42830  1.0000 0.1089874349
H   H24       1.0  0.87630  0.93830  0.07170  1.0000 0.1089874349
H   H25       1.0  0.86670  0.06290  0.61420  1.0000 0.1295584891
H   H26       1.0  0.06290  0.86670  0.88580  1.0000 0.1295584891
H   H27       1.0  0.13330  0.93710  0.38580  1.0000 0.1295584891
H   H28       1.0  0.93710  0.13330  0.11420  1.0000 0.1295584891
H   H29       1.0  0.71370  0.08970  0.61320  1.0000 0.1089874349
H   H30       1.0  0.08970  0.71370  0.88680  1.0000 0.1089874349
H   H31       1.0  0.28630  0.91030  0.38680  1.0000 0.1089874349
H   H32       1.0  0.91030  0.28630  0.11320  1.0000 0.1089874349
H   H33       1.0  0.89580  0.37900  0.46400  1.0000 0.1089874349
H   H34       1.0  0.37900  0.89580  0.03600  1.0000 0.1089874349
H   H35       1.0  0.10420  0.62100  0.53600  1.0000 0.1089874349
H   H36       1.0  0.62100  0.10420  0.96400  1.0000 0.1089874349
H   H37       1.0  0.06570  0.37470  0.46520  1.0000 0.1391582847
H   H38       1.0  0.37470  0.06570  0.03480  1.0000 0.1391582847
H   H39       1.0  0.93430  0.62530  0.53480  1.0000 0.1391582847
H   H40       1.0  0.62530  0.93430  0.96520  1.0000 0.1391582847
H   H41       1.0  0.36560  0.64780  0.66720  1.0000 0.1168153514
H   H42       1.0  0.64780  0.36560  0.83280  1.0000 0.1168153514
H   H43       1.0  0.63440  0.35220  0.33280  1.0000 0.1168153514
H   H44       1.0  0.35220  0.63440  0.16720  1.0000 0.1168153514
H   H45       1.0  0.36190  0.60190  0.77660  1.0000 0.1295584891
H   H46       1.0  0.60190  0.36190  0.72340  1.0000 0.1295584891
H   H47       1.0  0.63810  0.39810  0.22340  1.0000 0.1295584891
H   H48       1.0  0.39810  0.63810  0.27660  1.0000 0.1295584891
H   H49       1.0  0.43720  0.99680  0.67750  1.0000 0.1391582847
H   H50       1.0  0.99680  0.43720  0.82250  1.0000 0.1391582847
H   H51       1.0  0.56280  0.00320  0.32250  1.0000 0.1391582847
H   H52       1.0  0.00320  0.56280  0.17750  1.0000 0.1391582847
C   C1        1.0  0.37587  0.15373  0.55931  1.0000 0.1009489004
C   C2        1.0  0.15373  0.37587  0.94069  1.0000 0.1009489004
C   C3        1.0  0.62413  0.84627  0.44069  1.0000 0.1009489004
C   C4        1.0  0.84627  0.62413  0.05931  1.0000 0.1009489004
C   C5        1.0  0.27906  0.16334  0.55640  1.0000 -0.2019339945
C   C6        1.0  0.16334  0.27906  0.94360  1.0000 -0.2019339945
C   C7        1.0  0.72094  0.83666  0.44360  1.0000 -0.2019339945
C   C8        1.0  0.83666  0.72094  0.05640  1.0000 -0.2019339945
C   C9        1.0  0.28501  0.25239  0.50833  1.0000 0.1561134015
C   C10       1.0  0.25239  0.28501  0.99167  1.0000 0.1561134015
C   C11       1.0  0.71499  0.74761  0.49167  1.0000 0.1561134015
C   C12       1.0  0.74761  0.71499  0.00833  1.0000 0.1561134015
C   C13       1.0  0.39108  0.32872  0.46510  1.0000 -0.2076412882
C   C14       1.0  0.32872  0.39108  0.03490  1.0000 -0.2076412882
C   C15       1.0  0.60892  0.67128  0.53490  1.0000 -0.2076412882
C   C16       1.0  0.67128  0.60892  0.96510  1.0000 -0.2076412882
C   C17       1.0  0.48344  0.31236  0.47074  1.0000 0.0887965284
C   C18       1.0  0.31236  0.48344  0.02926  1.0000 0.0887965284
C   C19       1.0  0.51656  0.68764  0.52926  1.0000 0.0887965284
C   C20       1.0  0.68764  0.51656  0.97074  1.0000 0.0887965284
C   C21       1.0  0.18897  0.27183  0.50338  1.0000 -0.1406288516
C   C22       1.0  0.27183  0.18897  0.99662  1.0000 -0.1406288516
C   C23       1.0  0.81103  0.72817  0.49662  1.0000 -0.1406288516
C   C24       1.0  0.72817  0.81103  0.00338  1.0000 -0.1406288516
C   C25       1.0  0.07950  0.19630  0.54090  1.0000 -0.1476857062
C   C26       1.0  0.19630  0.07950  0.95910  1.0000 -0.1476857062
C   C27       1.0  0.92050  0.80370  0.45910  1.0000 -0.1476857062
C   C28       1.0  0.80370  0.92050  0.04090  1.0000 -0.1476857062
C   C29       1.0  0.98359  0.21481  0.53917  1.0000 0.1662646238
C   C30       1.0  0.21481  0.98359  0.96083  1.0000 0.1662646238
C   C31       1.0  0.01641  0.78519  0.46083  1.0000 0.1662646238
C   C32       1.0  0.78519  0.01641  0.03917  1.0000 0.1662646238
C   C33       1.0  0.87615  0.13025  0.58320  1.0000 -0.2019339945
C   C34       1.0  0.13025  0.87615  0.91680  1.0000 -0.2019339945
C   C35       1.0  0.12385  0.86975  0.41680  1.0000 -0.2019339945
C   C36       1.0  0.86975  0.12385  0.08320  1.0000 -0.2019339945
C   C37       1.0  0.78309  0.14451  0.58164  1.0000 0.1089874349
C   C38       1.0  0.14451  0.78309  0.91836  1.0000 0.1089874349
C   C39       1.0  0.21691  0.85549  0.41836  1.0000 0.1089874349
C   C40       1.0  0.85549  0.21691  0.08164  1.0000 0.1089874349
C   C41       1.0  0.89124  0.31496  0.49531  1.0000 0.0835699815
C   C42       1.0  0.31496  0.89124  0.00469  1.0000 0.0835699815
C   C43       1.0  0.10876  0.68504  0.50469  1.0000 0.0835699815
C   C44       1.0  0.68504  0.10876  0.99531  1.0000 0.0835699815
C   C45       1.0  0.99161  0.31159  0.49513  1.0000 -0.1795442548
C   C46       1.0  0.31159  0.99161  0.00487  1.0000 -0.1795442548
C   C47       1.0  0.00839  0.68841  0.50487  1.0000 -0.1795442548
C   C48       1.0  0.68841  0.00839  0.99513  1.0000 -0.1795442548
C   C49       1.0  0.40754  0.85946  0.59078  1.0000 0.5524046797
C   C50       1.0  0.85946  0.40754  0.90922  1.0000 0.5524046797
C   C51       1.0  0.59246  0.14054  0.40922  1.0000 0.5524046797
C   C52       1.0  0.14054  0.59246  0.09078  1.0000 0.5524046797
C   C53       1.0  0.39896  0.82504  0.66120  1.0000 -0.008582742
C   C54       1.0  0.82504  0.39896  0.83880  1.0000 -0.008582742
C   C55       1.0  0.60104  0.17496  0.33880  1.0000 -0.008582742
C   C56       1.0  0.17496  0.60104  0.16120  1.0000 -0.008582742
C   C57       1.0  0.37758  0.70862  0.69135  1.0000 -0.0875032168
C   C58       1.0  0.70862  0.37758  0.80865  1.0000 -0.0875032168
C   C59       1.0  0.62242  0.29138  0.30865  1.0000 -0.0875032168
C   C60       1.0  0.29138  0.62242  0.19135  1.0000 -0.0875032168
C   C61       1.0  0.37348  0.67992  0.75666  1.0000 -0.1125552129
C   C62       1.0  0.67992  0.37348  0.74334  1.0000 -0.1125552129
C   C63       1.0  0.62652  0.32008  0.24334  1.0000 -0.1125552129
C   C64       1.0  0.32008  0.62652  0.25666  1.0000 -0.1125552129
C   C65       1.0  0.38600  0.76400  0.79253  1.0000 -0.0374231698
C   C66       1.0  0.76400  0.38600  0.70747  1.0000 -0.0374231698
C   C67       1.0  0.61400  0.23600  0.20747  1.0000 -0.0374231698
C   C68       1.0  0.23600  0.61400  0.29253  1.0000 -0.0374231698
C   C69       1.0  0.40965  0.88115  0.76154  1.0000 0.0467843305
C   C70       1.0  0.88115  0.40965  0.73846  1.0000 0.0467843305
C   C71       1.0  0.59035  0.11885  0.23846  1.0000 0.0467843305
C   C72       1.0  0.11885  0.59035  0.26154  1.0000 0.0467843305
C   C73       1.0  0.41821  0.91399  0.69698  1.0000 -0.1476857062
C   C74       1.0  0.91399  0.41821  0.80302  1.0000 -0.1476857062
C   C75       1.0  0.58179  0.08601  0.30302  1.0000 -0.1476857062
C   C76       1.0  0.08601  0.58179  0.19698  1.0000 -0.1476857062
C   C77       1.0  0.37447  0.72513  0.86326  1.0000 0.5524046797
C   C78       1.0  0.72513  0.37447  0.63674  1.0000 0.5524046797
C   C79       1.0  0.62553  0.27487  0.13674  1.0000 0.5524046797
C   C80       1.0  0.27487  0.62553  0.36326  1.0000 0.5524046797
N   N1        1.0  0.47726  0.22654  0.51758  1.0000 -0.2076412882
N   N2        1.0  0.22654  0.47726  0.98242  1.0000 -0.2076412882
N   N3        1.0  0.52274  0.77346  0.48242  1.0000 -0.2076412882
N   N4        1.0  0.77346  0.52274  0.01758  1.0000 -0.2076412882
N   N5        1.0  0.78717  0.23243  0.53749  1.0000 -0.2171178978
N   N6        1.0  0.23243  0.78717  0.96251  1.0000 -0.2171178978
N   N7        1.0  0.21283  0.76757  0.46251  1.0000 -0.2171178978
N   N8        1.0  0.76757  0.21283  0.03749  1.0000 -0.2171178978
N   N9        1.0  0.42641  0.97519  0.79810  1.0000 0.5170232956
N   N10       1.0  0.97519  0.42641  0.70190  1.0000 0.5170232956
N   N11       1.0  0.57359  0.02481  0.20190  1.0000 0.5170232956
N   N12       1.0  0.02481  0.57359  0.29810  1.0000 0.5170232956
O   O1        1.0  0.43493  0.96907  0.56622  1.0000 -0.5779858675
O   O2        1.0  0.96907  0.43493  0.93378  1.0000 -0.5779858675
O   O3        1.0  0.56507  0.03093  0.43378  1.0000 -0.5779858675
O   O4        1.0  0.03093  0.56507  0.06622  1.0000 -0.5779858675
O   O5        1.0  0.38433  0.76867  0.56196  1.0000 -0.5573618855
O   O6        1.0  0.76867  0.38433  0.93804  1.0000 -0.5573618855
O   O7        1.0  0.61567  0.23133  0.43804  1.0000 -0.5573618855
O   O8        1.0  0.23133  0.61567  0.06196  1.0000 -0.5573618855
O   O9        1.0  0.25550  0.67110  0.88119  1.0000 -0.5573618855
O   O10       1.0  0.67110  0.25550  0.61881  1.0000 -0.5573618855
O   O11       1.0  0.74450  0.32890  0.11881  1.0000 -0.5573618855
O   O12       1.0  0.32890  0.74450  0.38119  1.0000 -0.5573618855
O   O13       1.0  0.47272  0.74268  0.89499  1.0000 -0.5486035194
O   O14       1.0  0.74268  0.47272  0.60501  1.0000 -0.5486035194
O   O15       1.0  0.52728  0.25732  0.10501  1.0000 -0.5486035194
O   O16       1.0  0.25732  0.52728  0.39499  1.0000 -0.5486035194
O   O17       1.0  0.37109  0.01851  0.77444  1.0000 -0.3248496499
O   O18       1.0  0.01851  0.37109  0.72556  1.0000 -0.3248496499
O   O19       1.0  0.62891  0.98149  0.22556  1.0000 -0.3255401697
O   O20       1.0  0.98149  0.62891  0.27444  1.0000 -0.3255401697
O   O21       1.0  0.49465  0.00635  0.85020  1.0000 -0.3019320216
O   O22       1.0  0.00635  0.49465  0.64980  1.0000 -0.3019320216
O   O23       1.0  0.50535  0.99365  0.14980  1.0000 -0.3019320216
O   O24       1.0  0.99365  0.50535  0.35020  1.0000 -0.3019320216
