# DDEC6 charges by PACMAN v1.1 (https://github.com/mtap-research/PACMAN-charge/)
data_2015[Zn][nou]3[FSR]1
_chemical_formula_sum              "Zn4 H8 C40 O32"
_cell_length_a       9.5741
_cell_length_b       14.5044
_cell_length_c       13.7329
_cell_angle_alpha    90
_cell_angle_beta     100.582
_cell_angle_gamma    90

_symmetry_space_group_name_H-M    "P 1"
_symmetry_Int_Tables_number       1

loop_
  _symmetry_equiv_pos_as_xyz
  'x, y, z'

loop_
  _atom_site_type_symbol
  _atom_site_label
  _atom_site_symmetry_multiplicity
  _atom_site_fract_x
  _atom_site_fract_y
  _atom_site_fract_z
  _atom_site_occupancy
  _atom_site_charge
Zn  Zn1       1.0  0.53768  0.35793  0.63953  1.0000 0.9387461848
Zn  Zn2       1.0  0.46232  0.85793  0.86047  1.0000 0.9387461848
Zn  Zn3       1.0  0.46232  0.64207  0.36047  1.0000 0.9387461848
Zn  Zn4       1.0  0.53768  0.14207  0.13953  1.0000 0.9387461848
H   H1        1.0  0.07170  0.40450  0.63360  1.0000 0.1406171068
H   H2        1.0  0.92830  0.90450  0.86640  1.0000 0.1406171068
H   H3        1.0  0.92830  0.59550  0.36640  1.0000 0.1406171068
H   H4        1.0  0.07170  0.09550  0.13360  1.0000 0.1406171068
H   H5        1.0  0.55210  0.05830  0.65960  1.0000 0.1482439644
H   H6        1.0  0.44790  0.55830  0.84040  1.0000 0.1482439644
H   H7        1.0  0.44790  0.94170  0.34040  1.0000 0.1482439644
H   H8        1.0  0.55210  0.44170  0.15960  1.0000 0.1482439644
C   C1        1.0  0.89810  0.45640  0.54550  1.0000 -0.0105939547
C   C2        1.0  0.10190  0.95640  0.95450  1.0000 -0.0105939547
C   C3        1.0  0.10190  0.54360  0.45450  1.0000 -0.0105939547
C   C4        1.0  0.89810  0.04360  0.04550  1.0000 -0.0105939547
C   C5        1.0  0.79350  0.40780  0.59810  1.0000 0.5321043439
C   C6        1.0  0.20650  0.90780  0.90190  1.0000 0.5321043439
C   C7        1.0  0.20650  0.59220  0.40190  1.0000 0.5321043439
C   C8        1.0  0.79350  0.09220  0.09810  1.0000 0.5321043439
C   C9        1.0  0.04270  0.44360  0.58000  1.0000 -0.0807254419
C   C10       1.0  0.95730  0.94360  0.92000  1.0000 -0.0807254419
C   C11       1.0  0.95730  0.55640  0.42000  1.0000 -0.0807254419
C   C12       1.0  0.04270  0.05640  0.08000  1.0000 -0.0807254419
C   C13       1.0  0.29780  0.47130  0.58300  1.0000 0.5619522936
C   C14       1.0  0.70220  0.97130  0.91700  1.0000 0.5619522936
C   C15       1.0  0.70220  0.52870  0.41700  1.0000 0.5619522936
C   C16       1.0  0.29780  0.02870  0.08300  1.0000 0.5619522936
C   C17       1.0  0.51360  0.09590  0.51510  1.0000 -0.0328589717
C   C18       1.0  0.48640  0.59590  0.98490  1.0000 -0.0328589717
C   C19       1.0  0.48640  0.90410  0.48490  1.0000 -0.0328589717
C   C20       1.0  0.51360  0.40410  0.01510  1.0000 -0.0328589717
C   C21       1.0  0.52810  0.19720  0.53360  1.0000 0.5378789313
C   C22       1.0  0.47190  0.69720  0.96640  1.0000 0.5378789313
C   C23       1.0  0.47190  0.80280  0.46640  1.0000 0.5378789313
C   C24       1.0  0.52810  0.30280  0.03360  1.0000 0.5378789313
C   C25       1.0  0.53900  0.88270  0.67490  1.0000 0.5455928899
C   C26       1.0  0.46100  0.38270  0.82510  1.0000 0.5455928899
C   C27       1.0  0.46100  0.11730  0.32510  1.0000 0.5455928899
C   C28       1.0  0.53900  0.61730  0.17490  1.0000 0.5455928899
C   C29       1.0  0.53020  0.03510  0.59550  1.0000 -0.0694016434
C   C30       1.0  0.46980  0.53510  0.90450  1.0000 -0.0694016434
C   C31       1.0  0.46980  0.96490  0.40450  1.0000 -0.0694016434
C   C32       1.0  0.53020  0.46490  0.09550  1.0000 -0.0694016434
C   C33       1.0  0.14500  0.48720  0.53700  1.0000 0.0008563558
C   C34       1.0  0.85500  0.98720  0.96300  1.0000 0.0008563558
C   C35       1.0  0.85500  0.51280  0.46300  1.0000 0.0008563558
C   C36       1.0  0.14500  0.01280  0.03700  1.0000 0.0008563558
C   C37       1.0  0.51430  0.93960  0.58070  1.0000 0.0175086132
C   C38       1.0  0.48570  0.43960  0.91930  1.0000 0.0175086132
C   C39       1.0  0.48570  0.06040  0.41930  1.0000 0.0175086132
C   C40       1.0  0.51430  0.56040  0.08070  1.0000 0.0175086132
O   O1        1.0  0.54130  0.22215  0.62600  1.0000 -0.4233135574
O   O2        1.0  0.45870  0.72215  0.87400  1.0000 -0.4233135574
O   O3        1.0  0.45870  0.77785  0.37400  1.0000 -0.4233135574
O   O4        1.0  0.54130  0.27785  0.12600  1.0000 -0.4233135574
O   O5        1.0  0.43180  0.88030  0.71730  1.0000 -0.4281449013
O   O6        1.0  0.56820  0.38030  0.78270  1.0000 -0.4281449013
O   O7        1.0  0.56820  0.11970  0.28270  1.0000 -0.4281449013
O   O8        1.0  0.43180  0.61970  0.21730  1.0000 -0.4281449013
O   O9        1.0  0.66800  0.43960  0.58330  1.0000 -0.4058687233
O   O10       1.0  0.33200  0.93960  0.91670  1.0000 -0.4058687233
O   O11       1.0  0.33200  0.56040  0.41670  1.0000 -0.4058687233
O   O12       1.0  0.66800  0.06040  0.08330  1.0000 -0.4058687233
O   O13       1.0  0.83230  0.34290  0.65290  1.0000 -0.3702499487
O   O14       1.0  0.16770  0.84290  0.84710  1.0000 -0.3702499487
O   O15       1.0  0.16770  0.65710  0.34710  1.0000 -0.3702499487
O   O16       1.0  0.83230  0.15710  0.15290  1.0000 -0.3702499487
O   O17       1.0  0.35050  0.39500  0.56210  1.0000 -0.4562290155
O   O18       1.0  0.64950  0.89500  0.93790  1.0000 -0.4562290155
O   O19       1.0  0.64950  0.60500  0.43790  1.0000 -0.4562290155
O   O20       1.0  0.35050  0.10500  0.06210  1.0000 -0.4562290155
O   O21       1.0  0.65690  0.85050  0.70570  1.0000 -0.3792515017
O   O22       1.0  0.34310  0.35050  0.79430  1.0000 -0.3792515017
O   O23       1.0  0.34310  0.14950  0.29430  1.0000 -0.3792515017
O   O24       1.0  0.65690  0.64950  0.20570  1.0000 -0.3792515017
O   O25       1.0  0.36380  0.52970  0.64180  1.0000 -0.403841465
O   O26       1.0  0.63620  0.02970  0.85820  1.0000 -0.403841465
O   O27       1.0  0.63620  0.47030  0.35820  1.0000 -0.403841465
O   O28       1.0  0.36380  0.97030  0.14180  1.0000 -0.403841465
O   O29       1.0  0.52790  0.25110  0.46450  1.0000 -0.3630215593
O   O30       1.0  0.47210  0.75110  0.03550  1.0000 -0.3630215593
O   O31       1.0  0.47210  0.74890  0.53550  1.0000 -0.3630215593
O   O32       1.0  0.52790  0.24890  0.96450  1.0000 -0.3630215593
