# DDEC6 charges by PACMAN v1.1 (https://github.com/mtap-research/PACMAN-charge/)
data_2015[Tb][nan]3[FSR]5
_chemical_formula_sum              "Tb8 H116 C132 N4 O68"
_cell_length_a       12.955
_cell_length_b       13.814
_cell_length_c       27.962
_cell_angle_alpha    75.69
_cell_angle_beta     79.38
_cell_angle_gamma    85.69

_symmetry_space_group_name_H-M    "P 1"
_symmetry_Int_Tables_number       1

loop_
  _symmetry_equiv_pos_as_xyz
  'x, y, z'

loop_
  _atom_site_type_symbol
  _atom_site_label
  _atom_site_symmetry_multiplicity
  _atom_site_fract_x
  _atom_site_fract_y
  _atom_site_fract_z
  _atom_site_occupancy
  _atom_site_charge
Tb  Tb1       1.0  0.87991  0.02124  0.55384  1.0000 2.1077706102
Tb  Tb2       1.0  0.12009  0.97876  0.44616  1.0000 2.1077706102
Tb  Tb3       1.0  0.47109  0.53755  0.41492  1.0000 2.0951728109
Tb  Tb4       1.0  0.52891  0.46245  0.58508  1.0000 2.0927294178
Tb  Tb5       1.0  0.03100  0.87493  0.06034  1.0000 2.0927294178
Tb  Tb6       1.0  0.96900  0.12507  0.93966  1.0000 2.0927294178
Tb  Tb7       1.0  0.51626  0.48066  0.91420  1.0000 2.1290797475
Tb  Tb8       1.0  0.48374  0.51934  0.08580  1.0000 2.1290797475
H   H1        1.0  0.72310  0.74650  0.51480  1.0000 0.1315520508
H   H2        1.0  0.27690  0.25350  0.48520  1.0000 0.1315520508
H   H3        1.0  0.72660  0.66640  0.38640  1.0000 0.120218394
H   H4        1.0  0.27340  0.33360  0.61360  1.0000 0.120218394
H   H5        1.0  0.91820  0.87960  0.39060  1.0000 0.1315520508
H   H6        1.0  0.08180  0.12040  0.60940  1.0000 0.1315520508
H   H7        1.0  0.00500  0.85210  0.32020  1.0000 0.1114493062
H   H8        1.0  0.99500  0.14790  0.67980  1.0000 0.1114493062
H   H9        1.0  0.05940  0.87500  0.23430  1.0000 0.120218394
H   H10       1.0  0.94060  0.12500  0.76570  1.0000 0.120218394
H   H11       1.0  0.80940  0.73560  0.22500  1.0000 0.120218394
H   H12       1.0  0.19060  0.26440  0.77500  1.0000 0.120218394
H   H13       1.0  0.75270  0.71570  0.30950  1.0000 0.120218394
H   H14       1.0  0.24730  0.28430  0.69050  1.0000 0.120218394
H   H15       1.0  0.75050  0.27240  0.43750  1.0000 0.1315520508
H   H16       1.0  0.24950  0.72760  0.56250  1.0000 0.1315520508
H   H17       1.0  0.02670  0.26180  0.34650  1.0000 0.120218394
H   H18       1.0  0.97330  0.73820  0.65350  1.0000 0.120218394
H   H19       1.0  0.81560  0.48040  0.30910  1.0000 0.120218394
H   H20       1.0  0.18440  0.51960  0.69090  1.0000 0.120218394
H   H21       1.0  0.96830  0.56920  0.27580  1.0000 0.1114493062
H   H22       1.0  0.03170  0.43080  0.72420  1.0000 0.1114493062
H   H23       1.0  0.09690  0.64350  0.21130  1.0000 0.120218394
H   H24       1.0  0.90310  0.35650  0.78870  1.0000 0.120218394
H   H25       1.0  0.20720  0.37470  0.19380  1.0000 0.120218394
H   H26       1.0  0.79280  0.62530  0.80620  1.0000 0.120218394
H   H27       1.0  0.07960  0.30030  0.25900  1.0000 0.1114493062
H   H28       1.0  0.92040  0.69970  0.74100  1.0000 0.1114493062
H   H29       1.0  0.73850  0.24070  0.05710  1.0000 0.1114493062
H   H30       1.0  0.26150  0.75930  0.94290  1.0000 0.1114493062
H   H31       1.0  0.54490  0.18300  0.18930  1.0000 0.1114493062
H   H32       1.0  0.45510  0.81700  0.81070  1.0000 0.1114493062
H   H33       1.0  0.75790  0.97450  0.15440  1.0000 0.120218394
H   H34       1.0  0.24210  0.02550  0.84560  1.0000 0.120218394
H   H35       1.0  0.62530  0.87260  0.20120  1.0000 0.1114493062
H   H36       1.0  0.37470  0.12740  0.79880  1.0000 0.1114493062
H   H37       1.0  0.55820  0.76030  0.27490  1.0000 0.120218394
H   H38       1.0  0.44180  0.23970  0.72510  1.0000 0.120218394
H   H39       1.0  0.49640  0.98370  0.34390  1.0000 0.120218394
H   H40       1.0  0.50360  0.01630  0.65610  1.0000 0.120218394
H   H41       1.0  0.56290  0.09540  0.27130  1.0000 0.1114493062
H   H42       1.0  0.43710  0.90460  0.72870  1.0000 0.1114493062
H   H43       1.0  0.74580  0.72930  0.01330  1.0000 0.1315520508
H   H44       1.0  0.25420  0.27070  0.98670  1.0000 0.1315520508
H   H45       1.0  0.86170  0.92700  0.88770  1.0000 0.1315520508
H   H46       1.0  0.13830  0.07300  0.11230  1.0000 0.1315520508
H   H47       1.0  0.67910  0.71110  0.88100  1.0000 0.120218394
H   H48       1.0  0.32090  0.28890  0.11900  1.0000 0.120218394
H   H49       1.0  0.64940  0.82460  0.80980  1.0000 0.120218394
H   H50       1.0  0.35060  0.17540  0.19020  1.0000 0.120218394
H   H51       1.0  0.67390  0.87760  0.72460  1.0000 0.120218394
H   H52       1.0  0.32610  0.12240  0.27540  1.0000 0.120218394
H   H53       1.0  0.96360  0.95750  0.72350  1.0000 0.120218394
H   H54       1.0  0.03640  0.04250  0.27650  1.0000 0.120218394
H   H55       1.0  0.93690  0.90730  0.80970  1.0000 0.120218394
H   H56       1.0  0.06310  0.09270  0.19030  1.0000 0.120218394
H   H57       1.0  0.50350  0.45090  0.30060  1.0000 0.1315520508
H   H58       1.0  0.49650  0.54910  0.69940  1.0000 0.1315520508
H   H59       1.0  0.26470  0.28440  0.31750  1.0000 0.1315520508
H   H60       1.0  0.73530  0.71560  0.68250  1.0000 0.1315520508
H   H61       1.0  0.24270  0.36480  0.34940  1.0000 0.1377792317
H   H62       1.0  0.75730  0.63520  0.65060  1.0000 0.1377792317
H   H63       1.0  0.31820  0.27260  0.36460  1.0000 0.1525725606
H   H64       1.0  0.68180  0.72740  0.63540  1.0000 0.1525725606
H   H65       1.0  0.38380  0.31210  0.24740  1.0000 0.1315520508
H   H66       1.0  0.61620  0.68790  0.75260  1.0000 0.1315520508
H   H67       1.0  0.49590  0.32040  0.25940  1.0000 0.1315520508
H   H68       1.0  0.50410  0.67960  0.74060  1.0000 0.1315520508
H   H69       1.0  0.43730  0.41590  0.23230  1.0000 0.1315520508
H   H70       1.0  0.56270  0.58410  0.76770  1.0000 0.1315520508
H   H71       1.0  0.06780  0.70290  0.99400  1.0000 0.0930146757
H   H72       1.0  0.93220  0.29710  0.00600  1.0000 0.0930146757
H   H73       1.0  0.15950  0.46290  0.98850  1.0000 0.1315520508
H   H74       1.0  0.84050  0.53710  0.01150  1.0000 0.1315520508
H   H75       1.0  0.19610  0.57050  0.95960  1.0000 0.1315520508
H   H76       1.0  0.80390  0.42950  0.04040  1.0000 0.1315520508
H   H77       1.0  0.07980  0.54120  0.96330  1.0000 0.1315520508
H   H78       1.0  0.92020  0.45880  0.03670  1.0000 0.1315520508
H   H79       1.0  0.14190  0.43610  0.07140  1.0000 0.120218394
H   H80       1.0  0.85810  0.56390  0.92860  1.0000 0.120218394
H   H81       1.0  0.05040  0.49690  0.09710  1.0000 0.1315520508
H   H82       1.0  0.94960  0.50310  0.90290  1.0000 0.1315520508
H   H83       1.0  0.16710  0.52800  0.09040  1.0000 0.1377792317
H   H84       1.0  0.83290  0.47200  0.90960  1.0000 0.1377792317
H   H85       1.0  0.63600  0.01300  0.55100  1.0000 0.4184297624
H   H86       1.0  0.36400  0.98700  0.44900  1.0000 0.4184297624
H   H87       1.0  0.64600  0.10900  0.57200  1.0000 0.3919379049
H   H88       1.0  0.35400  0.89100  0.42800  1.0000 0.3919379049
H   H89       1.0  0.79400  0.21700  0.59000  1.0000 0.4008598385
H   H90       1.0  0.20600  0.78300  0.41000  1.0000 0.4008598385
H   H91       1.0  0.91000  0.24200  0.56300  1.0000 0.4076369289
H   H92       1.0  0.09000  0.75800  0.43700  1.0000 0.4076369289
H   H93       1.0  0.34900  0.61600  0.50500  1.0000 0.4184297624
H   H94       1.0  0.65100  0.38400  0.49500  1.0000 0.4184297624
H   H95       1.0  0.37700  0.71500  0.46100  1.0000 0.4008598385
H   H96       1.0  0.62300  0.28500  0.53900  1.0000 0.4008598385
H   H97       1.0  0.23600  0.62600  0.42500  1.0000 0.3919379049
H   H98       1.0  0.76400  0.37400  0.57500  1.0000 0.3919379049
H   H99       1.0  0.25000  0.57800  0.37900  1.0000 0.4184297624
H   H100      1.0  0.75000  0.42200  0.62100  1.0000 0.4184297624
H   H101      1.0  0.27920  0.86400  0.05200  1.0000 0.4008598385
H   H102      1.0  0.72080  0.13600  0.94800  1.0000 0.4008598385
H   H103      1.0  0.24000  0.76900  0.09500  1.0000 0.4076369289
H   H104      1.0  0.76000  0.23100  0.90500  1.0000 0.4076369289
H   H105      1.0  0.30100  0.49300  0.87800  1.0000 0.4184297624
H   H106      1.0  0.69900  0.50700  0.12200  1.0000 0.4184297624
H   H107      1.0  0.38000  0.43600  0.84200  1.0000 0.4008598385
H   H108      1.0  0.62000  0.56400  0.15800  1.0000 0.4008598385
H   H109      1.0  0.60500  0.28400  0.88600  1.0000 0.3919379049
H   H110      1.0  0.39500  0.71600  0.11400  1.0000 0.3919379049
H   H111      1.0  0.49700  0.30600  0.86500  1.0000 0.4008598385
H   H112      1.0  0.50300  0.69400  0.13500  1.0000 0.4008598385
H   H113      1.0  0.65300  0.37500  0.99700  1.0000 0.4184297624
H   H114      1.0  0.34700  0.62500  0.00300  1.0000 0.4184297624
H   H115      1.0  0.62000  0.28640  0.97800  1.0000 0.4008598385
H   H116      1.0  0.38000  0.71360  0.02200  1.0000 0.4008598385
C   C1        1.0  0.82560  0.82320  0.45700  1.0000 -0.0209603861
C   C2        1.0  0.17440  0.17680  0.54300  1.0000 -0.0209603861
C   C3        1.0  0.75030  0.75300  0.48110  1.0000 -0.1173639711
C   C4        1.0  0.24970  0.24700  0.51890  1.0000 -0.1173639711
C   C5        1.0  0.71540  0.69210  0.45460  1.0000 -0.025076833
C   C6        1.0  0.28460  0.30790  0.54540  1.0000 -0.025076833
C   C7        1.0  0.75240  0.70520  0.40420  1.0000 -0.1418632057
C   C8        1.0  0.24760  0.29480  0.59580  1.0000 -0.1418632057
C   C9        1.0  0.82910  0.77670  0.37870  1.0000 0.0779691334
C   C10       1.0  0.17090  0.22330  0.62130  1.0000 0.0779691334
C   C11       1.0  0.86600  0.83390  0.40620  1.0000 -0.1588051882
C   C12       1.0  0.13400  0.16610  0.59380  1.0000 -0.1588051882
C   C13       1.0  0.86600  0.78830  0.32410  1.0000 0.0707323882
C   C14       1.0  0.13400  0.21170  0.67590  1.0000 0.0707323882
C   C15       1.0  0.96280  0.83190  0.30110  1.0000 -0.1488012089
C   C16       1.0  0.03720  0.16810  0.69890  1.0000 -0.1488012089
C   C17       1.0  0.99580  0.84490  0.24930  1.0000 -0.1096657984
C   C18       1.0  0.00420  0.15510  0.75070  1.0000 -0.1096657984
C   C19       1.0  0.93710  0.81450  0.22060  1.0000 -0.0105795338
C   C20       1.0  0.06290  0.18550  0.77940  1.0000 -0.0105795338
C   C21       1.0  0.84710  0.76250  0.24360  1.0000 -0.0980091844
C   C22       1.0  0.15290  0.23750  0.75640  1.0000 -0.0980091844
C   C23       1.0  0.81350  0.75070  0.29460  1.0000 -0.1418632057
C   C24       1.0  0.18650  0.24930  0.70540  1.0000 -0.1418632057
C   C25       1.0  0.86070  0.88880  0.48610  1.0000 0.6195099238
C   C26       1.0  0.13930  0.11120  0.51390  1.0000 0.6195099238
C   C27       1.0  0.63950  0.61190  0.48150  1.0000 0.6470439616
C   C28       1.0  0.36050  0.38810  0.51850  1.0000 0.6470439616
C   C29       1.0  0.97370  0.83030  0.16490  1.0000 0.5515383664
C   C30       1.0  0.02630  0.16970  0.83510  1.0000 0.5515383664
C   C31       1.0  0.76500  0.38320  0.37420  1.0000 -0.0209603861
C   C32       1.0  0.23500  0.61680  0.62580  1.0000 -0.0209603861
C   C33       1.0  0.79590  0.29830  0.40780  1.0000 -0.1096657984
C   C34       1.0  0.20410  0.70170  0.59220  1.0000 -0.1096657984
C   C35       1.0  0.89370  0.25160  0.39770  1.0000 -0.0209603861
C   C36       1.0  0.10630  0.74840  0.60230  1.0000 -0.0209603861
C   C37       1.0  0.96120  0.29250  0.35360  1.0000 -0.1418632057
C   C38       1.0  0.03880  0.70750  0.64640  1.0000 -0.1418632057
C   C39       1.0  0.93270  0.37900  0.31960  1.0000 0.0607574131
C   C40       1.0  0.06730  0.62100  0.68040  1.0000 0.0607574131
C   C41       1.0  0.83510  0.42250  0.33110  1.0000 -0.1488012089
C   C42       1.0  0.16490  0.57750  0.66890  1.0000 -0.1488012089
C   C43       1.0  0.01070  0.42610  0.27520  1.0000 0.0707323882
C   C44       1.0  0.98930  0.57390  0.72480  1.0000 0.0707323882
C   C45       1.0  0.01690  0.52930  0.25980  1.0000 -0.1488012089
C   C46       1.0  0.98310  0.47070  0.74020  1.0000 -0.1488012089
C   C47       1.0  0.09450  0.57410  0.22100  1.0000 -0.0916359093
C   C48       1.0  0.90550  0.42590  0.77900  1.0000 -0.0916359093
C   C49       1.0  0.16810  0.51690  0.19670  1.0000 -0.0410551929
C   C50       1.0  0.83190  0.48310  0.80330  1.0000 -0.0410551929
C   C51       1.0  0.16030  0.41440  0.21070  1.0000 -0.0980091844
C   C52       1.0  0.83970  0.58560  0.78930  1.0000 -0.0980091844
C   C53       1.0  0.08280  0.36960  0.24980  1.0000 -0.1488012089
C   C54       1.0  0.91720  0.63040  0.75020  1.0000 -0.1588051882
C   C55       1.0  0.65990  0.43270  0.38540  1.0000 0.5564650181
C   C56       1.0  0.34010  0.56730  0.61460  1.0000 0.5564650181
C   C57       1.0  0.93040  0.16240  0.43510  1.0000 0.6322139833
C   C58       1.0  0.06960  0.83760  0.56490  1.0000 0.6322139833
C   C59       1.0  0.25690  0.56530  0.15840  1.0000 0.597073603
C   C60       1.0  0.74310  0.43470  0.84160  1.0000 0.597073603
C   C61       1.0  0.76250  0.10250  0.10010  1.0000 -0.025076833
C   C62       1.0  0.23750  0.89750  0.89990  1.0000 -0.025076833
C   C63       1.0  0.71510  0.19730  0.08780  1.0000 -0.1314487374
C   C64       1.0  0.28490  0.80270  0.91220  1.0000 -0.1314487374
C   C65       1.0  0.63360  0.22690  0.12100  1.0000 -0.0209603861
C   C66       1.0  0.36640  0.77310  0.87900  1.0000 -0.0209603861
C   C67       1.0  0.59920  0.16230  0.16690  1.0000 -0.1488012089
C   C68       1.0  0.40080  0.83770  0.83310  1.0000 -0.1488012089
C   C69       1.0  0.64430  0.06740  0.17990  1.0000 0.0607574131
C   C70       1.0  0.35570  0.93260  0.82010  1.0000 0.0607574131
C   C71       1.0  0.72670  0.03790  0.14610  1.0000 -0.1314487374
C   C72       1.0  0.27330  0.96210  0.85390  1.0000 -0.1314487374
C   C73       1.0  0.60140  0.99610  0.22780  1.0000 0.0779691334
C   C74       1.0  0.39860  0.00390  0.77220  1.0000 0.0779691334
C   C75       1.0  0.59940  0.89570  0.22980  1.0000 -0.1488012089
C   C76       1.0  0.40060  0.10430  0.77020  1.0000 -0.1488012089
C   C77       1.0  0.55910  0.82790  0.27430  1.0000 -0.0980091844
C   C78       1.0  0.44090  0.17210  0.72570  1.0000 -0.0980091844
C   C79       1.0  0.52050  0.86020  0.31760  1.0000 -0.0410551929
C   C80       1.0  0.47950  0.13980  0.68240  1.0000 -0.0410551929
C   C81       1.0  0.52250  0.96060  0.31530  1.0000 -0.0980091844
C   C82       1.0  0.47750  0.03940  0.68470  1.0000 -0.0980091844
C   C83       1.0  0.56220  0.02800  0.27170  1.0000 -0.1488012089
C   C84       1.0  0.43780  0.97200  0.72830  1.0000 -0.1588051882
C   C85       1.0  0.84970  0.06840  0.06390  1.0000 0.6470439616
C   C86       1.0  0.15030  0.93160  0.93610  1.0000 0.6470439616
C   C87       1.0  0.58130  0.32780  0.10800  1.0000 0.5564650181
C   C88       1.0  0.41870  0.67220  0.89200  1.0000 0.5564650181
C   C89       1.0  0.48070  0.78380  0.36520  1.0000 0.6086329106
C   C90       1.0  0.51930  0.21620  0.63480  1.0000 0.6086329106
C   C91       1.0  0.69910  0.70780  0.95180  1.0000 -0.0410551929
C   C92       1.0  0.30090  0.29220  0.04820  1.0000 -0.0410551929
C   C93       1.0  0.75200  0.75340  0.97880  1.0000 -0.1314487374
C   C94       1.0  0.24800  0.24660  0.02120  1.0000 -0.1314487374
C   C95       1.0  0.81420  0.83490  0.95470  1.0000 -0.0209603861
C   C96       1.0  0.18580  0.16510  0.04530  1.0000 -0.0209603861
C   C97       1.0  0.82290  0.87050  0.90360  1.0000 -0.1418632057
C   C98       1.0  0.17710  0.12950  0.09640  1.0000 -0.1418632057
C   C99       1.0  0.77480  0.82360  0.87500  1.0000 0.0707323882
C   C100      1.0  0.22520  0.17640  0.12500  1.0000 0.0707323882
C   C101      1.0  0.71240  0.74270  0.89950  1.0000 -0.1488012089
C   C102      1.0  0.28760  0.25730  0.10050  1.0000 -0.1488012089
C   C103      1.0  0.78950  0.85860  0.81940  1.0000 0.0707323882
C   C104      1.0  0.21050  0.14140  0.18060  1.0000 0.0707323882
C   C105      1.0  0.71320  0.85170  0.79270  1.0000 -0.1418632057
C   C106      1.0  0.28680  0.14830  0.20730  1.0000 -0.1418632057
C   C107      1.0  0.72770  0.88340  0.74160  1.0000 -0.1096657984
C   C108      1.0  0.27230  0.11660  0.25840  1.0000 -0.1096657984
C   C109      1.0  0.82200  0.92400  0.71480  1.0000 -0.0105795338
C   C110      1.0  0.17800  0.07600  0.28520  1.0000 -0.0105795338
C   C111      1.0  0.89940  0.93130  0.74080  1.0000 -0.1096657984
C   C112      1.0  0.10060  0.06870  0.25920  1.0000 -0.1096657984
C   C113      1.0  0.88380  0.90030  0.79260  1.0000 -0.1488012089
C   C114      1.0  0.11620  0.09970  0.20740  1.0000 -0.1488012089
C   C115      1.0  0.63030  0.62300  0.97870  1.0000 0.6353295032
C   C116      1.0  0.36970  0.37700  0.02130  1.0000 0.6353295032
C   C117      1.0  0.87370  0.88090  0.98450  1.0000 0.6322139833
C   C118      1.0  0.12630  0.11910  0.01550  1.0000 0.6322139833
C   C119      1.0  0.83920  0.96150  0.65860  1.0000 0.5515383664
C   C120      1.0  0.16080  0.03850  0.34140  1.0000 0.5515383664
C   C121      1.0  0.44060  0.43230  0.32210  1.0000 0.2323673699
C   C122      1.0  0.55940  0.56770  0.67790  1.0000 0.2323673699
C   C123      1.0  0.29470  0.31960  0.33700  1.0000 -0.2677698549
C   C124      1.0  0.70530  0.68040  0.66300  1.0000 -0.2677698549
C   C125      1.0  0.42860  0.35360  0.25700  1.0000 -0.3320101913
C   C126      1.0  0.57140  0.64640  0.74300  1.0000 -0.3320101913
C   C127      1.0  0.07690  0.66210  0.02490  1.0000 0.3142263029
C   C128      1.0  0.92310  0.33790  0.97510  1.0000 0.3142263029
C   C129      1.0  0.13860  0.53240  0.98060  1.0000 -0.3562499401
C   C130      1.0  0.86140  0.46760  0.01940  1.0000 -0.3562499401
C   C131      1.0  0.11780  0.50140  0.07560  1.0000 -0.324049544
C   C132      1.0  0.88220  0.49860  0.92440  1.0000 -0.324049544
N   N1        1.0  0.37960  0.37330  0.30710  1.0000 0.0078168051
N   N2        1.0  0.62040  0.62670  0.69290  1.0000 0.0047415686
N   N3        1.0  0.10850  0.56690  0.02710  1.0000 0.0162650156
N   N4        1.0  0.89150  0.43310  0.97290  1.0000 0.0162650156
O   O1        1.0  0.94680  0.93100  0.47167  1.0000 -0.7116128024
O   O2        1.0  0.05320  0.06900  0.52833  1.0000 -0.7116128024
O   O3        1.0  0.79960  0.89970  0.52548  1.0000 -0.62166689
O   O4        1.0  0.20040  0.10030  0.47452  1.0000 -0.62166689
O   O5        1.0  0.59930  0.56740  0.45588  1.0000 -0.6864894744
O   O6        1.0  0.40070  0.43260  0.54412  1.0000 -0.6864894744
O   O7        1.0  0.62380  0.59010  0.52835  1.0000 -0.6400715824
O   O8        1.0  0.37620  0.40990  0.47165  1.0000 -0.6400715824
O   O9        1.0  0.04570  0.88880  0.14407  1.0000 -0.5999811904
O   O10       1.0  0.95430  0.11120  0.85593  1.0000 -0.5999811904
O   O11       1.0  0.93160  0.78480  0.14023  1.0000 -0.5999811904
O   O12       1.0  0.06840  0.21520  0.85977  1.0000 -0.5999811904
O   O13       1.0  0.63830  0.51620  0.35775  1.0000 -0.6400715824
O   O14       1.0  0.36170  0.48380  0.64225  1.0000 -0.6400715824
O   O15       1.0  0.59470  0.39160  0.42331  1.0000 -0.6297824101
O   O16       1.0  0.40530  0.60840  0.57669  1.0000 -0.6297824101
O   O17       1.0  0.86820  0.13430  0.47582  1.0000 -0.6495321807
O   O18       1.0  0.13180  0.86570  0.52418  1.0000 -0.6495321807
O   O19       1.0  0.01910  0.12580  0.42252  1.0000 -0.6612208124
O   O20       1.0  0.98090  0.87420  0.57748  1.0000 -0.6612208124
O   O21       1.0  0.26040  0.65930  0.14674  1.0000 -0.5737559315
O   O22       1.0  0.73960  0.34070  0.85326  1.0000 -0.5737559315
O   O23       1.0  0.32660  0.50770  0.14135  1.0000 -0.6805313643
O   O24       1.0  0.67340  0.49230  0.85865  1.0000 -0.6805313643
O   O25       1.0  0.88960  0.98240  0.07775  1.0000 -0.6612208124
O   O26       1.0  0.11040  0.01760  0.92225  1.0000 -0.6612208124
O   O27       1.0  0.87650  0.12690  0.02135  1.0000 -0.6951248762
O   O28       1.0  0.12350  0.87310  0.97865  1.0000 -0.6951248762
O   O29       1.0  0.50560  0.35250  0.13861  1.0000 -0.6297824101
O   O30       1.0  0.49440  0.64750  0.86139  1.0000 -0.6297824101
O   O31       1.0  0.61300  0.38740  0.06648  1.0000 -0.6495321807
O   O32       1.0  0.38700  0.61260  0.93352  1.0000 -0.6495321807
O   O33       1.0  0.48980  0.69360  0.36325  1.0000 -0.6805313643
O   O34       1.0  0.51020  0.30640  0.63675  1.0000 -0.6805313643
O   O35       1.0  0.44430  0.81430  0.40367  1.0000 -0.5737559315
O   O36       1.0  0.55570  0.18570  0.59633  1.0000 -0.5737559315
O   O37       1.0  0.59680  0.57210  0.95425  1.0000 -0.6654431936
O   O38       1.0  0.40320  0.42790  0.04575  1.0000 -0.6612208124
O   O39       1.0  0.61120  0.60720  0.02515  1.0000 -0.6495321807
O   O40       1.0  0.38880  0.39280  0.97485  1.0000 -0.6495321807
O   O41       1.0  0.90060  0.96930  0.96644  1.0000 -0.6864894744
O   O42       1.0  0.09940  0.03070  0.03356  1.0000 -0.6864894744
O   O43       1.0  0.89420  0.82730  0.02492  1.0000 -0.6297824101
O   O44       1.0  0.10580  0.17270  0.97508  1.0000 -0.6297824101
O   O45       1.0  0.77900  0.93440  0.63488  1.0000 -0.5999811904
O   O46       1.0  0.22100  0.06560  0.36512  1.0000 -0.5999811904
O   O47       1.0  0.91240  0.01850  0.63769  1.0000 -0.6073324498
O   O48       1.0  0.08760  0.98150  0.36231  1.0000 -0.6073324498
O   O49       1.0  0.69140  0.05910  0.55550  1.0000 -0.8667030152
O   O50       1.0  0.30860  0.94090  0.44450  1.0000 -0.8667030152
O   O51       1.0  0.85500  0.18770  0.56806  1.0000 -0.8340537664
O   O52       1.0  0.14500  0.81230  0.43194  1.0000 -0.8340537664
O   O53       1.0  0.42590  0.46100  0.35617  1.0000 -0.4498465177
O   O54       1.0  0.57410  0.53900  0.64383  1.0000 -0.4498465177
O   O55       1.0  0.39000  0.64210  0.47191  1.0000 -0.8481160518
O   O56       1.0  0.61000  0.35790  0.52809  1.0000 -0.8481160518
O   O57       1.0  0.28600  0.58110  0.40725  1.0000 -0.8428939697
O   O58       1.0  0.71400  0.41890  0.59275  1.0000 -0.8428939697
O   O59       1.0  0.05880  0.69960  0.06280  1.0000 -0.5613576587
O   O60       1.0  0.94120  0.30040  0.93720  1.0000 -0.5613576587
O   O61       1.0  0.21160  0.83250  0.07364  1.0000 -0.8481160518
O   O62       1.0  0.78840  0.16750  0.92636  1.0000 -0.8481160518
O   O63       1.0  0.37560  0.47420  0.86830  1.0000 -0.8481160518
O   O64       1.0  0.62440  0.52580  0.13170  1.0000 -0.8481160518
O   O65       1.0  0.53540  0.32200  0.89019  1.0000 -0.8667030152
O   O66       1.0  0.46460  0.67800  0.10981  1.0000 -0.8667030152
O   O67       1.0  0.61780  0.36250  0.96992  1.0000 -0.8481160518
O   O68       1.0  0.38220  0.63750  0.03008  1.0000 -0.8428939697
