# DDEC6 charges by PACMAN v1.1 (https://github.com/mtap-research/PACMAN-charge/)
data_2015[Cd][dia]3[FSR]6
_chemical_formula_sum              "Cd2 H136 C160 N16 O16"
_cell_length_a       12.7832
_cell_length_b       12.7832
_cell_length_c       32.5345
_cell_angle_alpha    90
_cell_angle_beta     90
_cell_angle_gamma    90

_symmetry_space_group_name_H-M    "P 1"
_symmetry_Int_Tables_number       1

loop_
  _symmetry_equiv_pos_as_xyz
  'x, y, z'

loop_
  _atom_site_type_symbol
  _atom_site_label
  _atom_site_symmetry_multiplicity
  _atom_site_fract_x
  _atom_site_fract_y
  _atom_site_fract_z
  _atom_site_occupancy
  _atom_site_charge
Cd  Cd1       1.0  0.50000  0.50000  0.50000  1.0000 0.9817547808
Cd  Cd2       1.0  0.00000  0.00000  0.00000  1.0000 0.9817547808
H   H1        1.0  0.72310  0.82800  0.62750  1.0000 0.1201143896
H   H2        1.0  0.27690  0.17200  0.62750  1.0000 0.1201143896
H   H3        1.0  0.67200  0.22310  0.12750  1.0000 0.1201143896
H   H4        1.0  0.32800  0.77690  0.12750  1.0000 0.1201143896
H   H5        1.0  0.77690  0.67200  0.87250  1.0000 0.1201143896
H   H6        1.0  0.22310  0.32800  0.87250  1.0000 0.1201143896
H   H7        1.0  0.82800  0.27690  0.37250  1.0000 0.1201143896
H   H8        1.0  0.17200  0.72310  0.37250  1.0000 0.1201143896
H   H9        1.0  0.76980  0.94110  0.63050  1.0000 0.1025849301
H   H10       1.0  0.23020  0.05890  0.63050  1.0000 0.1025849301
H   H11       1.0  0.55890  0.26980  0.13050  1.0000 0.1025849301
H   H12       1.0  0.44110  0.73020  0.13050  1.0000 0.1025849301
H   H13       1.0  0.73020  0.55890  0.86950  1.0000 0.1025849301
H   H14       1.0  0.26980  0.44110  0.86950  1.0000 0.1025849301
H   H15       1.0  0.94110  0.23020  0.36950  1.0000 0.1025849301
H   H16       1.0  0.05890  0.76980  0.36950  1.0000 0.1025849301
H   H17       1.0  0.64950  0.92560  0.62350  1.0000 0.13804183
H   H18       1.0  0.35050  0.07440  0.62350  1.0000 0.13804183
H   H19       1.0  0.57440  0.14950  0.12350  1.0000 0.13804183
H   H20       1.0  0.42560  0.85050  0.12350  1.0000 0.13804183
H   H21       1.0  0.85050  0.57440  0.87650  1.0000 0.13804183
H   H22       1.0  0.14950  0.42560  0.87650  1.0000 0.13804183
H   H23       1.0  0.92560  0.35050  0.37650  1.0000 0.13804183
H   H24       1.0  0.07440  0.64950  0.37650  1.0000 0.13804183
H   H25       1.0  0.77200  0.79160  0.71870  1.0000 0.1296516875
H   H26       1.0  0.22800  0.20840  0.71870  1.0000 0.1296516875
H   H27       1.0  0.70840  0.27200  0.21870  1.0000 0.1296516875
H   H28       1.0  0.29160  0.72800  0.21870  1.0000 0.1296516875
H   H29       1.0  0.72800  0.70840  0.78130  1.0000 0.1296516875
H   H30       1.0  0.27200  0.29160  0.78130  1.0000 0.1296516875
H   H31       1.0  0.79160  0.22800  0.28130  1.0000 0.1296516875
H   H32       1.0  0.20840  0.77200  0.28130  1.0000 0.1296516875
H   H33       1.0  0.84600  0.88070  0.70280  1.0000 0.1296516875
H   H34       1.0  0.15400  0.11930  0.70280  1.0000 0.1296516875
H   H35       1.0  0.61930  0.34600  0.20280  1.0000 0.1296516875
H   H36       1.0  0.38070  0.65400  0.20280  1.0000 0.1296516875
H   H37       1.0  0.65400  0.61930  0.79720  1.0000 0.1296516875
H   H38       1.0  0.34600  0.38070  0.79720  1.0000 0.1296516875
H   H39       1.0  0.88070  0.15400  0.29720  1.0000 0.1296516875
H   H40       1.0  0.11930  0.84600  0.29720  1.0000 0.1296516875
H   H41       1.0  0.81420  0.78890  0.67340  1.0000 0.1201143896
H   H42       1.0  0.18580  0.21110  0.67340  1.0000 0.1201143896
H   H43       1.0  0.71110  0.31420  0.17340  1.0000 0.1201143896
H   H44       1.0  0.28890  0.68580  0.17340  1.0000 0.1201143896
H   H45       1.0  0.68580  0.71110  0.82660  1.0000 0.1201143896
H   H46       1.0  0.31420  0.28890  0.82660  1.0000 0.1201143896
H   H47       1.0  0.78890  0.18580  0.32660  1.0000 0.1201143896
H   H48       1.0  0.21110  0.81420  0.32660  1.0000 0.1201143896
H   H49       1.0  0.54410  0.86780  0.68730  1.0000 0.13804183
H   H50       1.0  0.45590  0.13220  0.68730  1.0000 0.13804183
H   H51       1.0  0.63220  0.04410  0.18730  1.0000 0.13804183
H   H52       1.0  0.36780  0.95590  0.18730  1.0000 0.13804183
H   H53       1.0  0.95590  0.63220  0.81270  1.0000 0.13804183
H   H54       1.0  0.04410  0.36780  0.81270  1.0000 0.13804183
H   H55       1.0  0.86780  0.45590  0.31270  1.0000 0.13804183
H   H56       1.0  0.13220  0.54410  0.31270  1.0000 0.13804183
H   H57       1.0  0.61100  0.83730  0.72590  1.0000 0.1201143896
H   H58       1.0  0.38900  0.16270  0.72590  1.0000 0.1201143896
H   H59       1.0  0.66270  0.11100  0.22590  1.0000 0.1201143896
H   H60       1.0  0.33730  0.88900  0.22590  1.0000 0.1201143896
H   H61       1.0  0.88900  0.66270  0.77410  1.0000 0.1201143896
H   H62       1.0  0.11100  0.33730  0.77410  1.0000 0.1201143896
H   H63       1.0  0.83730  0.38900  0.27410  1.0000 0.1201143896
H   H64       1.0  0.16270  0.61100  0.27410  1.0000 0.1201143896
H   H65       1.0  0.61370  0.76680  0.68650  1.0000 0.13804183
H   H66       1.0  0.38630  0.23320  0.68650  1.0000 0.13804183
H   H67       1.0  0.73320  0.11370  0.18650  1.0000 0.13804183
H   H68       1.0  0.26680  0.88630  0.18650  1.0000 0.13804183
H   H69       1.0  0.88630  0.73320  0.81350  1.0000 0.13804183
H   H70       1.0  0.11370  0.26680  0.81350  1.0000 0.13804183
H   H71       1.0  0.76680  0.38630  0.31350  1.0000 0.13804183
H   H72       1.0  0.23320  0.61370  0.31350  1.0000 0.13804183
H   H73       1.0  0.14830  0.30560  0.53370  1.0000 0.1296516875
H   H74       1.0  0.85170  0.69440  0.53370  1.0000 0.1296516875
H   H75       1.0  0.19440  0.64830  0.03370  1.0000 0.1296516875
H   H76       1.0  0.80560  0.35170  0.03370  1.0000 0.1296516875
H   H77       1.0  0.35170  0.19440  0.96630  1.0000 0.1296516875
H   H78       1.0  0.64830  0.80560  0.96630  1.0000 0.1296516875
H   H79       1.0  0.30560  0.85170  0.46630  1.0000 0.1296516875
H   H80       1.0  0.69440  0.14830  0.46630  1.0000 0.1296516875
H   H81       1.0  0.01960  0.26800  0.58140  1.0000 0.1296516875
H   H82       1.0  0.98040  0.73200  0.58140  1.0000 0.1296516875
H   H83       1.0  0.23200  0.51960  0.08140  1.0000 0.1296516875
H   H84       1.0  0.76800  0.48040  0.08140  1.0000 0.1296516875
H   H85       1.0  0.48040  0.23200  0.91860  1.0000 0.1296516875
H   H86       1.0  0.51960  0.76800  0.91860  1.0000 0.1296516875
H   H87       1.0  0.26800  0.98040  0.41860  1.0000 0.1296516875
H   H88       1.0  0.73200  0.01960  0.41860  1.0000 0.1296516875
H   H89       1.0  0.16280  0.44580  0.66390  1.0000 0.1201143896
H   H90       1.0  0.83720  0.55420  0.66390  1.0000 0.1201143896
H   H91       1.0  0.05420  0.66280  0.16390  1.0000 0.1201143896
H   H92       1.0  0.94580  0.33720  0.16390  1.0000 0.1201143896
H   H93       1.0  0.33720  0.05420  0.83610  1.0000 0.1201143896
H   H94       1.0  0.66280  0.94580  0.83610  1.0000 0.1201143896
H   H95       1.0  0.44580  0.83720  0.33610  1.0000 0.1201143896
H   H96       1.0  0.55420  0.16280  0.33610  1.0000 0.1201143896
H   H97       1.0  0.29170  0.48140  0.61660  1.0000 0.1296516875
H   H98       1.0  0.70830  0.51860  0.61660  1.0000 0.1296516875
H   H99       1.0  0.01860  0.79170  0.11660  1.0000 0.1296516875
H   H100      1.0  0.98140  0.20830  0.11660  1.0000 0.1296516875
H   H101      1.0  0.20830  0.01860  0.88340  1.0000 0.1296516875
H   H102      1.0  0.79170  0.98140  0.88340  1.0000 0.1296516875
H   H103      1.0  0.48140  0.70830  0.38340  1.0000 0.1296516875
H   H104      1.0  0.51860  0.29170  0.38340  1.0000 0.1296516875
H   H105      1.0  0.81800  0.05920  0.66180  1.0000 0.1121356422
H   H106      1.0  0.18200  0.94080  0.66180  1.0000 0.1121356422
H   H107      1.0  0.44080  0.31800  0.16180  1.0000 0.1121356422
H   H108      1.0  0.55920  0.68200  0.16180  1.0000 0.1121356422
H   H109      1.0  0.68200  0.44080  0.83820  1.0000 0.1121356422
H   H110      1.0  0.31800  0.55920  0.83820  1.0000 0.1121356422
H   H111      1.0  0.05920  0.18200  0.33820  1.0000 0.1121356422
H   H112      1.0  0.94080  0.81800  0.33820  1.0000 0.1121356422
H   H113      1.0  0.59950  0.98880  0.74540  1.0000 0.1201143896
H   H114      1.0  0.40050  0.01120  0.74540  1.0000 0.1201143896
H   H115      1.0  0.51120  0.09950  0.24540  1.0000 0.1201143896
H   H116      1.0  0.48880  0.90050  0.24540  1.0000 0.1201143896
H   H117      1.0  0.90050  0.51120  0.75460  1.0000 0.1201143896
H   H118      1.0  0.09950  0.48880  0.75460  1.0000 0.1201143896
H   H119      1.0  0.98880  0.40050  0.25460  1.0000 0.1201143896
H   H120      1.0  0.01120  0.59950  0.25460  1.0000 0.1201143896
H   H121      1.0  0.99810  0.44980  0.69490  1.0000 0.1655778075
H   H122      1.0  0.00190  0.55020  0.69490  1.0000 0.1655778075
H   H123      1.0  0.05020  0.49810  0.19490  1.0000 0.1655778075
H   H124      1.0  0.94980  0.50190  0.19490  1.0000 0.1655778075
H   H125      1.0  0.50190  0.05020  0.80510  1.0000 0.1655778075
H   H126      1.0  0.49810  0.94980  0.80510  1.0000 0.1655778075
H   H127      1.0  0.44980  0.00190  0.30510  1.0000 0.1655778075
H   H128      1.0  0.55020  0.99810  0.30510  1.0000 0.1655778075
H   H129      1.0  0.94350  0.19010  0.63900  1.0000 0.2954263883
H   H130      1.0  0.05650  0.80990  0.63900  1.0000 0.2954263883
H   H131      1.0  0.30990  0.44350  0.13900  1.0000 0.2954263883
H   H132      1.0  0.69010  0.55650  0.13900  1.0000 0.2954263883
H   H133      1.0  0.55650  0.30990  0.86100  1.0000 0.2954263883
H   H134      1.0  0.44350  0.69010  0.86100  1.0000 0.2954263883
H   H135      1.0  0.19010  0.05650  0.36100  1.0000 0.2954263883
H   H136      1.0  0.80990  0.94350  0.36100  1.0000 0.2954263883
C   C1        1.0  0.31970  0.42500  0.54100  1.0000 0.5332970629
C   C2        1.0  0.68030  0.57500  0.54100  1.0000 0.5332970629
C   C3        1.0  0.07500  0.81970  0.04100  1.0000 0.5332970629
C   C4        1.0  0.92500  0.18030  0.04100  1.0000 0.5332970629
C   C5        1.0  0.18030  0.07500  0.95900  1.0000 0.5332970629
C   C6        1.0  0.81970  0.92500  0.95900  1.0000 0.5332970629
C   C7        1.0  0.42500  0.68030  0.45900  1.0000 0.5332970629
C   C8        1.0  0.57500  0.31970  0.45900  1.0000 0.5332970629
C   C9        1.0  0.70810  0.00390  0.70121  1.0000 0.093159901
C   C10       1.0  0.29190  0.99610  0.70121  1.0000 0.093159901
C   C11       1.0  0.49610  0.20810  0.20121  1.0000 0.093159901
C   C12       1.0  0.50390  0.79190  0.20121  1.0000 0.093159901
C   C13       1.0  0.79190  0.49610  0.79879  1.0000 0.093159901
C   C14       1.0  0.20810  0.50390  0.79879  1.0000 0.093159901
C   C15       1.0  0.00390  0.29190  0.29879  1.0000 0.093159901
C   C16       1.0  0.99610  0.70810  0.29879  1.0000 0.093159901
C   C17       1.0  0.69420  0.89720  0.68080  1.0000 0.2282435047
C   C18       1.0  0.30580  0.10280  0.68080  1.0000 0.2282435047
C   C19       1.0  0.60280  0.19420  0.18080  1.0000 0.2282435047
C   C20       1.0  0.39720  0.80580  0.18080  1.0000 0.2282435047
C   C21       1.0  0.80580  0.60280  0.81920  1.0000 0.2282435047
C   C22       1.0  0.19420  0.39720  0.81920  1.0000 0.2282435047
C   C23       1.0  0.89720  0.30580  0.31920  1.0000 0.2282435047
C   C24       1.0  0.10280  0.69420  0.31920  1.0000 0.2282435047
C   C25       1.0  0.71050  0.89800  0.63690  1.0000 -0.4465916583
C   C26       1.0  0.28950  0.10200  0.63690  1.0000 -0.4465916583
C   C27       1.0  0.60200  0.21050  0.13690  1.0000 -0.4465916583
C   C28       1.0  0.39800  0.78950  0.13690  1.0000 -0.4465916583
C   C29       1.0  0.78950  0.60200  0.86310  1.0000 -0.4465916583
C   C30       1.0  0.21050  0.39800  0.86310  1.0000 -0.4465916583
C   C31       1.0  0.89800  0.28950  0.36310  1.0000 -0.4465916583
C   C32       1.0  0.10200  0.71050  0.36310  1.0000 -0.4465916583
C   C33       1.0  0.79080  0.83350  0.69530  1.0000 -0.461997292
C   C34       1.0  0.20920  0.16650  0.69530  1.0000 -0.461997292
C   C35       1.0  0.66650  0.29080  0.19530  1.0000 -0.461997292
C   C36       1.0  0.33350  0.70920  0.19530  1.0000 -0.461997292
C   C37       1.0  0.70920  0.66650  0.80470  1.0000 -0.461997292
C   C38       1.0  0.29080  0.33350  0.80470  1.0000 -0.461997292
C   C39       1.0  0.83350  0.20920  0.30470  1.0000 -0.461997292
C   C40       1.0  0.16650  0.79080  0.30470  1.0000 -0.461997292
C   C41       1.0  0.60870  0.83740  0.69640  1.0000 -0.461997292
C   C42       1.0  0.39130  0.16260  0.69640  1.0000 -0.461997292
C   C43       1.0  0.66260  0.10870  0.19640  1.0000 -0.461997292
C   C44       1.0  0.33740  0.89130  0.19640  1.0000 -0.461997292
C   C45       1.0  0.89130  0.66260  0.80360  1.0000 -0.461997292
C   C46       1.0  0.10870  0.33740  0.80360  1.0000 -0.461997292
C   C47       1.0  0.83740  0.39130  0.30360  1.0000 -0.461997292
C   C48       1.0  0.16260  0.60870  0.30360  1.0000 -0.461997292
C   C49       1.0  0.23350  0.39990  0.57062  1.0000 -0.0047435649
C   C50       1.0  0.76650  0.60010  0.57062  1.0000 -0.0047435649
C   C51       1.0  0.10010  0.73350  0.07062  1.0000 -0.0061492368
C   C52       1.0  0.89990  0.26650  0.07062  1.0000 -0.0061492368
C   C53       1.0  0.26650  0.10010  0.92938  1.0000 -0.0047435649
C   C54       1.0  0.73350  0.89990  0.92938  1.0000 -0.0047435649
C   C55       1.0  0.39990  0.76650  0.42938  1.0000 -0.0047435649
C   C56       1.0  0.60010  0.23350  0.42938  1.0000 -0.0047435649
C   C57       1.0  0.15140  0.33450  0.55989  1.0000 -0.0796402907
C   C58       1.0  0.84860  0.66550  0.55989  1.0000 -0.0796402907
C   C59       1.0  0.16550  0.65140  0.05989  1.0000 -0.0796402907
C   C60       1.0  0.83450  0.34860  0.05989  1.0000 -0.0796402907
C   C61       1.0  0.34860  0.16550  0.94011  1.0000 -0.0796402907
C   C62       1.0  0.65140  0.83450  0.94011  1.0000 -0.0796402907
C   C63       1.0  0.33450  0.84860  0.44011  1.0000 -0.0796402907
C   C64       1.0  0.66550  0.15140  0.44011  1.0000 -0.0796402907
C   C65       1.0  0.07410  0.31260  0.58854  1.0000 -0.146797278
C   C66       1.0  0.92590  0.68740  0.58854  1.0000 -0.146797278
C   C67       1.0  0.18740  0.57410  0.08854  1.0000 -0.146797278
C   C68       1.0  0.81260  0.42590  0.08854  1.0000 -0.146797278
C   C69       1.0  0.42590  0.18740  0.91146  1.0000 -0.146797278
C   C70       1.0  0.57410  0.81260  0.91146  1.0000 -0.146797278
C   C71       1.0  0.31260  0.92590  0.41146  1.0000 -0.146797278
C   C72       1.0  0.68740  0.07410  0.41146  1.0000 -0.146797278
C   C73       1.0  0.07620  0.35440  0.62645  1.0000 0.0117412025
C   C74       1.0  0.92380  0.64560  0.62645  1.0000 0.0117412025
C   C75       1.0  0.14560  0.57620  0.12645  1.0000 0.0117412025
C   C76       1.0  0.85440  0.42380  0.12645  1.0000 0.0117412025
C   C77       1.0  0.42380  0.14560  0.87355  1.0000 0.0117412025
C   C78       1.0  0.57620  0.85440  0.87355  1.0000 0.0117412025
C   C79       1.0  0.35440  0.92380  0.37355  1.0000 0.0117412025
C   C80       1.0  0.64560  0.07620  0.37355  1.0000 0.0117412025
C   C81       1.0  0.15900  0.41780  0.63759  1.0000 -0.146797278
C   C82       1.0  0.84100  0.58220  0.63759  1.0000 -0.146797278
C   C83       1.0  0.08220  0.65900  0.13759  1.0000 -0.146797278
C   C84       1.0  0.91780  0.34100  0.13759  1.0000 -0.146797278
C   C85       1.0  0.34100  0.08220  0.86241  1.0000 -0.146797278
C   C86       1.0  0.65900  0.91780  0.86241  1.0000 -0.146797278
C   C87       1.0  0.41780  0.84100  0.36241  1.0000 -0.146797278
C   C88       1.0  0.58220  0.15900  0.36241  1.0000 -0.146797278
C   C89       1.0  0.23600  0.43880  0.60901  1.0000 -0.0954263648
C   C90       1.0  0.76400  0.56120  0.60901  1.0000 -0.0954263648
C   C91       1.0  0.06120  0.73600  0.10901  1.0000 -0.0954263648
C   C92       1.0  0.93880  0.26400  0.10901  1.0000 -0.0954263648
C   C93       1.0  0.26400  0.06120  0.89099  1.0000 -0.0954263648
C   C94       1.0  0.73600  0.93880  0.89099  1.0000 -0.0954263648
C   C95       1.0  0.43880  0.76400  0.39099  1.0000 -0.0954263648
C   C96       1.0  0.56120  0.23600  0.39099  1.0000 -0.0954263648
C   C97       1.0  0.99420  0.32890  0.65672  1.0000 0.2578505958
C   C98       1.0  0.00580  0.67110  0.65672  1.0000 0.2578505958
C   C99       1.0  0.17110  0.49420  0.15672  1.0000 0.2578505958
C   C100      1.0  0.82890  0.50580  0.15672  1.0000 0.2578505958
C   C101      1.0  0.50580  0.17110  0.84328  1.0000 0.2578505958
C   C102      1.0  0.49420  0.82890  0.84328  1.0000 0.2578505958
C   C103      1.0  0.32890  0.00580  0.34328  1.0000 0.2578505958
C   C104      1.0  0.67110  0.99420  0.34328  1.0000 0.2578505958
C   C105      1.0  0.89080  0.33900  0.70985  1.0000 0.0439345771
C   C106      1.0  0.10920  0.66100  0.70985  1.0000 0.0439345771
C   C107      1.0  0.16100  0.39080  0.20985  1.0000 0.0439345771
C   C108      1.0  0.83900  0.60920  0.20985  1.0000 0.0439345771
C   C109      1.0  0.60920  0.16100  0.79015  1.0000 0.0439345771
C   C110      1.0  0.39080  0.83900  0.79015  1.0000 0.0439345771
C   C111      1.0  0.33900  0.10920  0.29015  1.0000 0.0439345771
C   C112      1.0  0.66100  0.89080  0.29015  1.0000 0.0439345771
C   C113      1.0  0.87310  0.24610  0.68972  1.0000 0.0546476906
C   C114      1.0  0.12690  0.75390  0.68972  1.0000 0.0546476906
C   C115      1.0  0.25390  0.37310  0.18972  1.0000 0.0546476906
C   C116      1.0  0.74610  0.62690  0.18972  1.0000 0.0546476906
C   C117      1.0  0.62690  0.25390  0.81028  1.0000 0.0546476906
C   C118      1.0  0.37310  0.74610  0.81028  1.0000 0.0546476906
C   C119      1.0  0.24610  0.12690  0.31028  1.0000 0.0546476906
C   C120      1.0  0.75390  0.87310  0.31028  1.0000 0.0546476906
C   C121      1.0  0.79770  0.17230  0.70430  1.0000 0.0117412025
C   C122      1.0  0.20230  0.82770  0.70430  1.0000 0.0117412025
C   C123      1.0  0.32770  0.29770  0.20430  1.0000 0.0117412025
C   C124      1.0  0.67230  0.70230  0.20430  1.0000 0.0117412025
C   C125      1.0  0.70230  0.32770  0.79570  1.0000 0.0117412025
C   C126      1.0  0.29770  0.67230  0.79570  1.0000 0.0117412025
C   C127      1.0  0.17230  0.20230  0.29570  1.0000 0.0117412025
C   C128      1.0  0.82770  0.79770  0.29570  1.0000 0.0117412025
C   C129      1.0  0.78060  0.07610  0.68538  1.0000 -0.2175988225
C   C130      1.0  0.21940  0.92390  0.68538  1.0000 -0.2175988225
C   C131      1.0  0.42390  0.28060  0.18538  1.0000 -0.2175988225
C   C132      1.0  0.57610  0.71940  0.18538  1.0000 -0.2175988225
C   C133      1.0  0.71940  0.42390  0.81462  1.0000 -0.2138433149
C   C134      1.0  0.28060  0.57610  0.81462  1.0000 -0.2175988225
C   C135      1.0  0.07610  0.21940  0.31462  1.0000 -0.2138433149
C   C136      1.0  0.92390  0.78060  0.31462  1.0000 -0.2138433149
C   C137      1.0  0.65040  0.03400  0.73532  1.0000 -0.2175988225
C   C138      1.0  0.34960  0.96600  0.73532  1.0000 -0.2175988225
C   C139      1.0  0.46600  0.15040  0.23532  1.0000 -0.2175988225
C   C140      1.0  0.53400  0.84960  0.23532  1.0000 -0.2175988225
C   C141      1.0  0.84960  0.46600  0.76468  1.0000 -0.2175988225
C   C142      1.0  0.15040  0.53400  0.76468  1.0000 -0.2175988225
C   C143      1.0  0.03400  0.34960  0.26468  1.0000 -0.2175988225
C   C144      1.0  0.96600  0.65040  0.26468  1.0000 -0.2175988225
C   C145      1.0  0.66590  0.12890  0.75487  1.0000 0.0229465584
C   C146      1.0  0.33410  0.87110  0.75487  1.0000 0.0229465584
C   C147      1.0  0.37110  0.16590  0.25487  1.0000 0.0229465584
C   C148      1.0  0.62890  0.83410  0.25487  1.0000 0.0229465584
C   C149      1.0  0.83410  0.37110  0.74513  1.0000 0.0229465584
C   C150      1.0  0.16590  0.62890  0.74513  1.0000 0.0229465584
C   C151      1.0  0.12890  0.33410  0.24513  1.0000 0.0229465584
C   C152      1.0  0.87110  0.66590  0.24513  1.0000 0.0229465584
C   C153      1.0  0.74130  0.20050  0.73981  1.0000 -0.031697148
C   C154      1.0  0.25870  0.79950  0.73981  1.0000 -0.031697148
C   C155      1.0  0.29950  0.24130  0.23981  1.0000 -0.031697148
C   C156      1.0  0.70050  0.75870  0.23981  1.0000 -0.031697148
C   C157      1.0  0.75870  0.29950  0.76019  1.0000 -0.031697148
C   C158      1.0  0.24130  0.70050  0.76019  1.0000 -0.031697148
C   C159      1.0  0.20050  0.25870  0.26019  1.0000 -0.031697148
C   C160      1.0  0.79950  0.74130  0.26019  1.0000 -0.031697148
N   N1        1.0  0.97020  0.39070  0.68874  1.0000 -0.3543417072
N   N2        1.0  0.02980  0.60930  0.68874  1.0000 -0.3543417072
N   N3        1.0  0.10930  0.47020  0.18874  1.0000 -0.3543417072
N   N4        1.0  0.89070  0.52980  0.18874  1.0000 -0.3543417072
N   N5        1.0  0.52980  0.10930  0.81126  1.0000 -0.3543417072
N   N6        1.0  0.47020  0.89070  0.81126  1.0000 -0.3543417072
N   N7        1.0  0.39070  0.02980  0.31126  1.0000 -0.3543417072
N   N8        1.0  0.60930  0.97020  0.31126  1.0000 -0.3543417072
N   N9        1.0  0.93890  0.24040  0.65642  1.0000 -0.3024032405
N   N10       1.0  0.06110  0.75960  0.65642  1.0000 -0.3052674948
N   N11       1.0  0.25960  0.43890  0.15642  1.0000 -0.3052674948
N   N12       1.0  0.74040  0.56110  0.15642  1.0000 -0.3052674948
N   N13       1.0  0.56110  0.25960  0.84358  1.0000 -0.3052674948
N   N14       1.0  0.43890  0.74040  0.84358  1.0000 -0.3052674948
N   N15       1.0  0.24040  0.06110  0.34358  1.0000 -0.3052674948
N   N16       1.0  0.75960  0.93890  0.34358  1.0000 -0.3052674948
O   O1        1.0  0.38820  0.48130  0.55116  1.0000 -0.4269079594
O   O2        1.0  0.61180  0.51870  0.55116  1.0000 -0.4269079594
O   O3        1.0  0.01870  0.88820  0.05116  1.0000 -0.4269079594
O   O4        1.0  0.98130  0.11180  0.05116  1.0000 -0.4269079594
O   O5        1.0  0.11180  0.01870  0.94884  1.0000 -0.4269079594
O   O6        1.0  0.88820  0.98130  0.94884  1.0000 -0.4269079594
O   O7        1.0  0.48130  0.61180  0.44884  1.0000 -0.4269079594
O   O8        1.0  0.51870  0.38820  0.44884  1.0000 -0.4269079594
O   O9        1.0  0.31790  0.38760  0.50644  1.0000 -0.4465916583
O   O10       1.0  0.68210  0.61240  0.50644  1.0000 -0.4465916583
O   O11       1.0  0.11240  0.81790  0.00644  1.0000 -0.4465916583
O   O12       1.0  0.88760  0.18210  0.00644  1.0000 -0.4465916583
O   O13       1.0  0.18210  0.11240  0.99356  1.0000 -0.4441968094
O   O14       1.0  0.81790  0.88760  0.99356  1.0000 -0.4441968094
O   O15       1.0  0.38760  0.68210  0.49356  1.0000 -0.4441968094
O   O16       1.0  0.61240  0.31790  0.49356  1.0000 -0.4465916583
