# DDEC6 charges by PACMAN v1.1 (https://github.com/mtap-research/PACMAN-charge/)
data_2015[Cd][hcb]2[FSR]1
_chemical_formula_sum              "Cd4 H44 C52 N4 O24"
_cell_length_a       11.144
_cell_length_b       11.599
_cell_length_c       13.529
_cell_angle_alpha    104.05
_cell_angle_beta     97.18
_cell_angle_gamma    108.05

_symmetry_space_group_name_H-M    "P 1"
_symmetry_Int_Tables_number       1

loop_
  _symmetry_equiv_pos_as_xyz
  'x, y, z'

loop_
  _atom_site_type_symbol
  _atom_site_label
  _atom_site_symmetry_multiplicity
  _atom_site_fract_x
  _atom_site_fract_y
  _atom_site_fract_z
  _atom_site_occupancy
  _atom_site_charge
Cd  Cd1       1.0  0.82324  0.25110  0.42037  1.0000 0.9162606479
Cd  Cd2       1.0  0.32999  0.59928  0.92613  1.0000 0.9264797749
Cd  Cd3       1.0  0.17676  0.74890  0.57963  1.0000 0.9148314477
Cd  Cd4       1.0  0.67001  0.40072  0.07387  1.0000 0.9264797749
H   H1        1.0  0.60510  0.18460  0.25530  1.0000 0.3677380713
H   H2        1.0  0.59340  0.06870  0.27090  1.0000 0.3298882724
H   H3        1.0  0.06940  0.40150  0.53080  1.0000 0.3892792942
H   H4        1.0  0.99960  0.36810  0.60720  1.0000 0.3593272896
H   H5        1.0  0.11550  0.56830  0.76940  1.0000 0.3677380713
H   H6        1.0  0.09070  0.44790  0.77900  1.0000 0.3487098993
H   H7        1.0  0.58160  0.66400  0.06310  1.0000 0.3892792942
H   H8        1.0  0.52330  0.75180  0.10490  1.0000 0.3593272896
H   H9        1.0  0.08490  0.40020  0.17720  1.0000 0.1196147458
H   H10       1.0  0.26030  0.20010  0.99660  1.0000 0.1124983431
H   H11       1.0  0.06500  0.05110  0.19370  1.0000 0.1196147458
H   H12       1.0  0.35610  0.07040  0.99490  1.0000 0.1280994614
H   H13       1.0  0.40810  0.89260  0.94030  1.0000 0.0995004954
H   H14       1.0  0.12960  0.69400  0.04430  1.0000 0.1196147458
H   H15       1.0  0.06890  0.86990  0.10410  1.0000 0.1385553262
H   H16       1.0  0.58560  0.44990  0.67530  1.0000 0.1280994614
H   H17       1.0  0.58100  0.80150  0.70210  1.0000 0.0995004954
H   H18       1.0  0.75690  0.64920  0.49100  1.0000 0.1124983431
H   H19       1.0  0.56870  0.92440  0.60170  1.0000 0.1280994614
H   H20       1.0  0.62790  0.10380  0.54580  1.0000 0.1124983431
H   H21       1.0  0.91150  0.02020  0.44080  1.0000 0.1124983431
H   H22       1.0  0.86290  0.84180  0.49750  1.0000 0.1385553262
H   H23       1.0  0.39490  0.81540  0.74470  1.0000 0.3677380713
H   H24       1.0  0.40660  0.93130  0.72910  1.0000 0.3298882724
H   H25       1.0  0.93060  0.59850  0.46920  1.0000 0.3892792942
H   H26       1.0  0.00040  0.63190  0.39280  1.0000 0.3593272896
H   H27       1.0  0.88450  0.43170  0.23060  1.0000 0.3677380713
H   H28       1.0  0.90930  0.55210  0.22100  1.0000 0.3487098993
H   H29       1.0  0.41840  0.33600  0.93690  1.0000 0.3892792942
H   H30       1.0  0.47670  0.24820  0.89510  1.0000 0.3593272896
H   H31       1.0  0.91510  0.59980  0.82280  1.0000 0.1196147458
H   H32       1.0  0.73970  0.79990  0.00340  1.0000 0.1124983431
H   H33       1.0  0.93500  0.94890  0.80630  1.0000 0.1196147458
H   H34       1.0  0.64390  0.92960  0.00510  1.0000 0.1280994614
H   H35       1.0  0.59190  0.10740  0.05970  1.0000 0.0995004954
H   H36       1.0  0.87040  0.30600  0.95570  1.0000 0.1196147458
H   H37       1.0  0.93110  0.13010  0.89590  1.0000 0.1385553262
H   H38       1.0  0.41440  0.55010  0.32470  1.0000 0.1280994614
H   H39       1.0  0.41900  0.19850  0.29790  1.0000 0.0995004954
H   H40       1.0  0.24310  0.35080  0.50900  1.0000 0.1124983431
H   H41       1.0  0.43130  0.07560  0.39830  1.0000 0.1280994614
H   H42       1.0  0.37210  0.89620  0.45420  1.0000 0.1124983431
H   H43       1.0  0.08850  0.97980  0.55920  1.0000 0.1124983431
H   H44       1.0  0.13710  0.15820  0.50250  1.0000 0.1385553262
C   C1        1.0  0.97470  0.23100  0.27520  1.0000 0.5540548445
C   C2        1.0  0.22700  0.42220  0.03010  1.0000 0.5623698415
C   C3        1.0  0.06150  0.22610  0.19550  1.0000 -0.0003442812
C   C4        1.0  0.10510  0.32570  0.15420  1.0000 -0.131773275
C   C5        1.0  0.17960  0.31600  0.07780  1.0000 -0.0055683687
C   C6        1.0  0.20940  0.20650  0.04760  1.0000 -0.1599512814
C   C7        1.0  0.16820  0.10670  0.08870  1.0000 0.0645961607
C   C8        1.0  0.09400  0.11810  0.16370  1.0000 -0.1545408188
C   C9        1.0  0.20440  0.99220  0.05410  1.0000 0.1280994614
C   C10       1.0  0.30610  0.99370  0.00590  1.0000 -0.196774724
C   C11       1.0  0.33710  0.88690  0.97340  1.0000 0.0319577338
C   C12       1.0  0.17660  0.77190  0.03350  1.0000 0.1124983431
C   C13       1.0  0.13880  0.87760  0.06950  1.0000 -0.196774724
C   C14       1.0  0.71690  0.42730  0.52530  1.0000 0.5704835535
C   C15       1.0  0.48840  0.61810  0.77960  1.0000 0.5623698415
C   C16       1.0  0.67020  0.52830  0.57280  1.0000 -0.0363114091
C   C17       1.0  0.60400  0.52260  0.65130  1.0000 -0.0875344022
C   C18       1.0  0.56300  0.62120  0.69670  1.0000 -0.0249184693
C   C19       1.0  0.60230  0.73130  0.66730  1.0000 -0.1397694281
C   C20       1.0  0.67070  0.74370  0.59020  1.0000 0.0707746477
C   C21       1.0  0.70740  0.64230  0.54290  1.0000 -0.1397694281
C   C22       1.0  0.70720  0.85910  0.55350  1.0000 0.1385553262
C   C23       1.0  0.63940  0.94090  0.56800  1.0000 -0.196774724
C   C24       1.0  0.67470  0.04770  0.53340  1.0000 0.0707746477
C   C25       1.0  0.83970  0.00010  0.47280  1.0000 0.0889072449
C   C26       1.0  0.81060  0.89290  0.50670  1.0000 -0.1920869468
C   C27       1.0  0.02530  0.76900  0.72480  1.0000 0.5540548445
C   C28       1.0  0.77300  0.57780  0.96990  1.0000 0.5623698415
C   C29       1.0  0.93850  0.77390  0.80450  1.0000 -0.0003442812
C   C30       1.0  0.89490  0.67430  0.84580  1.0000 -0.131773275
C   C31       1.0  0.82040  0.68400  0.92220  1.0000 -0.0055683687
C   C32       1.0  0.79060  0.79350  0.95240  1.0000 -0.1599512814
C   C33       1.0  0.83180  0.89330  0.91130  1.0000 0.0645961607
C   C34       1.0  0.90600  0.88190  0.83630  1.0000 -0.1545408188
C   C35       1.0  0.79560  0.00780  0.94590  1.0000 0.1280994614
C   C36       1.0  0.69390  0.00630  0.99410  1.0000 -0.196774724
C   C37       1.0  0.66290  0.11310  0.02660  1.0000 0.0319577338
C   C38       1.0  0.82340  0.22810  0.96650  1.0000 0.1124983431
C   C39       1.0  0.86120  0.12240  0.93050  1.0000 -0.196774724
C   C40       1.0  0.28310  0.57270  0.47470  1.0000 0.5704835535
C   C41       1.0  0.51160  0.38190  0.22040  1.0000 0.5623698415
C   C42       1.0  0.32980  0.47170  0.42720  1.0000 -0.0363114091
C   C43       1.0  0.39600  0.47740  0.34870  1.0000 -0.0875344022
C   C44       1.0  0.43700  0.37880  0.30330  1.0000 -0.0249184693
C   C45       1.0  0.39770  0.26870  0.33270  1.0000 -0.1397694281
C   C46       1.0  0.32930  0.25630  0.40980  1.0000 0.0707746477
C   C47       1.0  0.29260  0.35770  0.45710  1.0000 -0.1397694281
C   C48       1.0  0.29280  0.14090  0.44650  1.0000 0.1385553262
C   C49       1.0  0.36060  0.05910  0.43200  1.0000 -0.1920869468
C   C50       1.0  0.32530  0.95230  0.46660  1.0000 0.0707746477
C   C51       1.0  0.16030  0.99990  0.52720  1.0000 0.0889072449
C   C52       1.0  0.18940  0.10710  0.49330  1.0000 -0.1920869468
N   N1        1.0  0.27190  0.77470  0.98630  1.0000 -0.2393258555
N   N2        1.0  0.77130  0.07520  0.48340  1.0000 -0.2393258555
N   N3        1.0  0.72810  0.22530  0.01370  1.0000 -0.2393258555
N   N4        1.0  0.22870  0.92480  0.51660  1.0000 -0.2393258555
O   O1        1.0  0.94690  0.32990  0.30250  1.0000 -0.571608436
O   O2        1.0  0.93720  0.13890  0.30900  1.0000 -0.5597604631
O   O3        1.0  0.21540  0.52700  0.06670  1.0000 -0.5597604631
O   O4        1.0  0.28110  0.40220  0.95350  1.0000 -0.5597604631
O   O5        1.0  0.78280  0.43690  0.45320  1.0000 -0.5885653911
O   O6        1.0  0.69480  0.32780  0.55420  1.0000 -0.5764321803
O   O7        1.0  0.46050  0.52010  0.81360  1.0000 -0.5516168395
O   O8        1.0  0.45000  0.70790  0.81660  1.0000 -0.5885653911
O   O9        1.0  0.63820  0.14750  0.29200  1.0000 -0.6697684793
O   O10       1.0  0.01550  0.33900  0.54620  1.0000 -0.6884790777
O   O11       1.0  0.14340  0.52410  0.80160  1.0000 -0.6697684793
O   O12       1.0  0.51380  0.68310  0.05890  1.0000 -0.6587886332
O   O13       1.0  0.05310  0.67010  0.69750  1.0000 -0.571608436
O   O14       1.0  0.06280  0.86110  0.69100  1.0000 -0.5597604631
O   O15       1.0  0.78460  0.47300  0.93330  1.0000 -0.5516168395
O   O16       1.0  0.71890  0.59780  0.04650  1.0000 -0.5597604631
O   O17       1.0  0.21720  0.56310  0.54680  1.0000 -0.5885653911
O   O18       1.0  0.30520  0.67220  0.44580  1.0000 -0.5764321803
O   O19       1.0  0.53950  0.47990  0.18640  1.0000 -0.5516168395
O   O20       1.0  0.55000  0.29210  0.18340  1.0000 -0.5885653911
O   O21       1.0  0.36180  0.85250  0.70800  1.0000 -0.6697684793
O   O22       1.0  0.98450  0.66100  0.45380  1.0000 -0.6884790777
O   O23       1.0  0.85660  0.47590  0.19840  1.0000 -0.6697684793
O   O24       1.0  0.48620  0.31690  0.94110  1.0000 -0.6587886332
