# DDEC6 charges by PACMAN v1.1 (https://github.com/mtap-research/PACMAN-charge/)
data_2015[Tb][nan]3[FSR]12
_chemical_formula_sum              "Tb4 H24 C48 O32"
_cell_length_a       12.9936
_cell_length_b       12.9936
_cell_length_c       19.7584
_cell_angle_alpha    57.6721
_cell_angle_beta     122.328
_cell_angle_gamma    132.151

_symmetry_space_group_name_H-M    "P 1"
_symmetry_Int_Tables_number       1

loop_
  _symmetry_equiv_pos_as_xyz
  'x, y, z'

loop_
  _atom_site_type_symbol
  _atom_site_label
  _atom_site_symmetry_multiplicity
  _atom_site_fract_x
  _atom_site_fract_y
  _atom_site_fract_z
  _atom_site_occupancy
  _atom_site_charge
Tb  Tb1       1.0  0.45473  0.45209  0.87352  1.0000 2.0496830979
Tb  Tb2       1.0  0.45209  0.45473  0.62648  1.0000 2.0496830979
Tb  Tb3       1.0  0.54527  0.54791  0.12648  1.0000 2.0496830979
Tb  Tb4       1.0  0.54791  0.54527  0.37352  1.0000 2.0496830979
H   H1        1.0  0.82610  0.85750  0.83910  1.0000 0.127802843
H   H2        1.0  0.85750  0.82610  0.66090  1.0000 0.127802843
H   H3        1.0  0.17390  0.14250  0.16090  1.0000 0.127802843
H   H4        1.0  0.14250  0.17390  0.33910  1.0000 0.127802843
H   H5        1.0  0.37470  0.05950  0.03560  1.0000 0.1230183581
H   H6        1.0  0.05950  0.37470  0.46440  1.0000 0.1230183581
H   H7        1.0  0.62530  0.94050  0.96440  1.0000 0.1230183581
H   H8        1.0  0.94050  0.62530  0.53560  1.0000 0.1230183581
H   H9        1.0  0.04970  0.07450  0.84240  1.0000 0.127802843
H   H10       1.0  0.07450  0.04970  0.65760  1.0000 0.127802843
H   H11       1.0  0.95030  0.92550  0.15760  1.0000 0.127802843
H   H12       1.0  0.92550  0.95030  0.34240  1.0000 0.127802843
H   H13       1.0  0.40380  0.86580  0.11810  1.0000 0.127802843
H   H14       1.0  0.86580  0.40380  0.38190  1.0000 0.127802843
H   H15       1.0  0.59620  0.13420  0.88190  1.0000 0.127802843
H   H16       1.0  0.13420  0.59620  0.61810  1.0000 0.127802843
H   H17       1.0  0.63250  0.02170  0.31430  1.0000 0.127802843
H   H18       1.0  0.02170  0.63250  0.18570  1.0000 0.127802843
H   H19       1.0  0.36750  0.97830  0.68570  1.0000 0.127802843
H   H20       1.0  0.97830  0.36750  0.81430  1.0000 0.127802843
H   H21       1.0  0.60600  0.21400  0.23600  1.0000 0.127802843
H   H22       1.0  0.21400  0.60600  0.26400  1.0000 0.127802843
H   H23       1.0  0.39400  0.78600  0.76400  1.0000 0.127802843
H   H24       1.0  0.78600  0.39400  0.73600  1.0000 0.127802843
C   C1        1.0  0.67810  0.67810  0.75000  1.0000 0.6457854846
C   C2        1.0  0.32190  0.32190  0.25000  1.0000 0.6457854846
C   C3        1.0  0.22740  0.22740  0.75000  1.0000 0.6457854846
C   C4        1.0  0.77260  0.77260  0.25000  1.0000 0.6457854846
C   C5        1.0  0.08540  0.08540  0.75000  1.0000 -0.0233312036
C   C6        1.0  0.91460  0.91460  0.25000  1.0000 -0.0233312036
C   C7        1.0  0.82060  0.82060  0.75000  1.0000 -0.0514587758
C   C8        1.0  0.17940  0.17940  0.25000  1.0000 -0.0514587758
C   C9        1.0  0.46458  0.28122  0.07300  1.0000 0.6408180186
C   C10       1.0  0.28122  0.46458  0.42700  1.0000 0.6408180186
C   C11       1.0  0.53542  0.71878  0.92700  1.0000 0.6408180186
C   C12       1.0  0.71878  0.53542  0.57300  1.0000 0.6408180186
C   C13       1.0  0.87710  0.89510  0.80370  1.0000 -0.0937713104
C   C14       1.0  0.89510  0.87710  0.69630  1.0000 -0.0937713104
C   C15       1.0  0.12290  0.10490  0.19630  1.0000 -0.0937713104
C   C16       1.0  0.10490  0.12290  0.30370  1.0000 -0.0937713104
C   C17       1.0  0.48336  0.15544  0.12640  1.0000 -0.0283424434
C   C18       1.0  0.15544  0.48336  0.37360  1.0000 -0.0283424434
C   C19       1.0  0.51664  0.84456  0.87360  1.0000 -0.0283424434
C   C20       1.0  0.84456  0.51664  0.62640  1.0000 -0.0283424434
C   C21       1.0  0.42560  0.05160  0.09180  1.0000 -0.0981097499
C   C22       1.0  0.05160  0.42560  0.40820  1.0000 -0.0981097499
C   C23       1.0  0.57440  0.94840  0.90820  1.0000 -0.0981097499
C   C24       1.0  0.94840  0.57440  0.59180  1.0000 -0.0981097499
C   C25       1.0  0.55890  0.14170  0.21040  1.0000 -0.0937713104
C   C26       1.0  0.14170  0.55890  0.28960  1.0000 -0.0937713104
C   C27       1.0  0.44110  0.85830  0.78960  1.0000 -0.0937713104
C   C28       1.0  0.85830  0.44110  0.71040  1.0000 -0.0937713104
C   C29       1.0  0.01050  0.02630  0.80490  1.0000 -0.0981097499
C   C30       1.0  0.02630  0.01050  0.69510  1.0000 -0.0981097499
C   C31       1.0  0.98950  0.97370  0.19510  1.0000 -0.0981097499
C   C32       1.0  0.97370  0.98950  0.30490  1.0000 -0.0981097499
C   C33       1.0  0.52065  0.92375  0.22420  1.0000 -0.0233312036
C   C34       1.0  0.92375  0.52065  0.27580  1.0000 -0.0233312036
C   C35       1.0  0.47935  0.07625  0.77580  1.0000 -0.0233312036
C   C36       1.0  0.07625  0.47935  0.72420  1.0000 -0.0233312036
C   C37       1.0  0.44400  0.93580  0.14140  1.0000 -0.0937713104
C   C38       1.0  0.93580  0.44400  0.35860  1.0000 -0.0937713104
C   C39       1.0  0.55600  0.06420  0.85860  1.0000 -0.0937713104
C   C40       1.0  0.06420  0.55600  0.64140  1.0000 -0.0937713104
C   C41       1.0  0.57910  0.02830  0.25850  1.0000 -0.0937713104
C   C42       1.0  0.02830  0.57910  0.24150  1.0000 -0.0937713104
C   C43       1.0  0.42090  0.97170  0.74150  1.0000 -0.0937713104
C   C44       1.0  0.97170  0.42090  0.75850  1.0000 -0.0937713104
C   C45       1.0  0.54073  0.79987  0.27590  1.0000 0.5636605361
C   C46       1.0  0.79987  0.54073  0.22410  1.0000 0.5636605361
C   C47       1.0  0.45927  0.20013  0.72410  1.0000 0.5636605361
C   C48       1.0  0.20013  0.45927  0.77590  1.0000 0.5636605361
O   O1        1.0  0.58449  0.35731  0.89580  1.0000 -0.186834473
O   O2        1.0  0.35731  0.58449  0.60420  1.0000 -0.186834473
O   O3        1.0  0.41551  0.64269  0.10420  1.0000 -0.186834473
O   O4        1.0  0.64269  0.41551  0.39580  1.0000 -0.186834473
O   O5        1.0  0.47676  0.70104  0.24377  1.0000 -0.5749188623
O   O6        1.0  0.70104  0.47676  0.25623  1.0000 -0.5749188623
O   O7        1.0  0.52324  0.29896  0.75623  1.0000 -0.5749188623
O   O8        1.0  0.29896  0.52324  0.74377  1.0000 -0.5749188623
O   O9        1.0  0.61807  0.79133  0.35084  1.0000 -0.5768955609
O   O10       1.0  0.79133  0.61807  0.14916  1.0000 -0.5768955609
O   O11       1.0  0.38193  0.20867  0.64916  1.0000 -0.5768955609
O   O12       1.0  0.20867  0.38193  0.85084  1.0000 -0.5768955609
O   O13       1.0  0.40106  0.29234  0.99644  1.0000 -0.6101463696
O   O14       1.0  0.29234  0.40106  0.50356  1.0000 -0.6101463696
O   O15       1.0  0.59894  0.70766  0.00356  1.0000 -0.6101463696
O   O16       1.0  0.70766  0.59894  0.49644  1.0000 -0.6101463696
O   O17       1.0  0.51437  0.36803  0.10810  1.0000 -0.6101463696
O   O18       1.0  0.36803  0.51437  0.39190  1.0000 -0.6101463696
O   O19       1.0  0.48563  0.63197  0.89190  1.0000 -0.6101463696
O   O20       1.0  0.63197  0.48563  0.60810  1.0000 -0.6101463696
O   O21       1.0  0.68818  0.54262  0.97890  1.0000 -0.2160703203
O   O22       1.0  0.54262  0.68818  0.52110  1.0000 -0.2139289862
O   O23       1.0  0.31182  0.45738  0.02110  1.0000 -0.2160703203
O   O24       1.0  0.45738  0.31182  0.47890  1.0000 -0.2139289862
O   O25       1.0  0.30018  0.26242  0.81650  1.0000 -0.6175186744
O   O26       1.0  0.26242  0.30018  0.68350  1.0000 -0.6175186744
O   O27       1.0  0.69982  0.73758  0.18350  1.0000 -0.6175186744
O   O28       1.0  0.73758  0.69982  0.31650  1.0000 -0.6175186744
O   O29       1.0  0.60518  0.63962  0.79090  1.0000 -0.6101463696
O   O30       1.0  0.63962  0.60518  0.70910  1.0000 -0.6101463696
O   O31       1.0  0.39482  0.36038  0.20910  1.0000 -0.6101463696
O   O32       1.0  0.36038  0.39482  0.29090  1.0000 -0.6101463696
