# DDEC6 charges by PACMAN v1.1 (https://github.com/mtap-research/PACMAN-charge/)
data_2015[TbEu][nan]3[FSR]2
_chemical_formula_sum              "Tb4 Eu4 H116 C132 N4 O68"
_cell_length_a       13.006
_cell_length_b       13.821
_cell_length_c       27.982
_cell_angle_alpha    75.67
_cell_angle_beta     79.35
_cell_angle_gamma    85.62

_symmetry_space_group_name_H-M    "P 1"
_symmetry_Int_Tables_number       1

loop_
  _symmetry_equiv_pos_as_xyz
  'x, y, z'

loop_
  _atom_site_type_symbol
  _atom_site_label
  _atom_site_symmetry_multiplicity
  _atom_site_fract_x
  _atom_site_fract_y
  _atom_site_fract_z
  _atom_site_occupancy
  _atom_site_charge
Tb  Tb1       1.0  0.88028  0.02118  0.55405  1.0000 2.1108930226
Tb  Tb2       1.0  0.11972  0.97882  0.44595  1.0000 2.1108930226
Tb  Tb3       1.0  0.03068  0.87524  0.06050  1.0000 2.0908520337
Tb  Tb4       1.0  0.96932  0.12476  0.93950  1.0000 2.0908520337
Eu  Eu1       1.0  0.47145  0.53782  0.41508  1.0000 2.1215512868
Eu  Eu2       1.0  0.52855  0.46218  0.58492  1.0000 2.1215512868
Eu  Eu3       1.0  0.51709  0.48078  0.91415  1.0000 2.1671564694
Eu  Eu4       1.0  0.48291  0.51922  0.08585  1.0000 2.1671564694
H   H1        1.0  0.72430  0.74510  0.51540  1.0000 0.1303916993
H   H2        1.0  0.27570  0.25490  0.48460  1.0000 0.1303916993
H   H3        1.0  0.72590  0.66710  0.38680  1.0000 0.1208972166
H   H4        1.0  0.27410  0.33290  0.61320  1.0000 0.1208972166
H   H5        1.0  0.91780  0.87890  0.39110  1.0000 0.1303916993
H   H6        1.0  0.08220  0.12110  0.60890  1.0000 0.1303916993
H   H7        1.0  0.00340  0.85510  0.32010  1.0000 0.1124056533
H   H8        1.0  0.99660  0.14490  0.67990  1.0000 0.1124056533
H   H9        1.0  0.05870  0.87400  0.23530  1.0000 0.1208972166
H   H10       1.0  0.94130  0.12600  0.76470  1.0000 0.1208972166
H   H11       1.0  0.80920  0.73550  0.22590  1.0000 0.1208972166
H   H12       1.0  0.19080  0.26450  0.77410  1.0000 0.1208972166
H   H13       1.0  0.75140  0.71840  0.31010  1.0000 0.1208972166
H   H14       1.0  0.24860  0.28160  0.68990  1.0000 0.1208972166
H   H15       1.0  0.75010  0.27150  0.43710  1.0000 0.1303916993
H   H16       1.0  0.24990  0.72850  0.56290  1.0000 0.1303916993
H   H17       1.0  0.02660  0.26230  0.34690  1.0000 0.1208972166
H   H18       1.0  0.97340  0.73770  0.65310  1.0000 0.1208972166
H   H19       1.0  0.81550  0.48060  0.30950  1.0000 0.1208972166
H   H20       1.0  0.18450  0.51940  0.69050  1.0000 0.1208972166
H   H21       1.0  0.96810  0.56890  0.27600  1.0000 0.1124056533
H   H22       1.0  0.03190  0.43110  0.72400  1.0000 0.1124056533
H   H23       1.0  0.09420  0.64430  0.21060  1.0000 0.1208972166
H   H24       1.0  0.90580  0.35570  0.78940  1.0000 0.1208972166
H   H25       1.0  0.20670  0.37500  0.19440  1.0000 0.1208972166
H   H26       1.0  0.79330  0.62500  0.80560  1.0000 0.1208972166
H   H27       1.0  0.07760  0.30080  0.25850  1.0000 0.1124056533
H   H28       1.0  0.92240  0.69920  0.74150  1.0000 0.1124056533
H   H29       1.0  0.73820  0.24040  0.05730  1.0000 0.1124056533
H   H30       1.0  0.26180  0.75960  0.94270  1.0000 0.1124056533
H   H31       1.0  0.54390  0.18230  0.18890  1.0000 0.1124056533
H   H32       1.0  0.45610  0.81770  0.81110  1.0000 0.1124056533
H   H33       1.0  0.75780  0.97560  0.15380  1.0000 0.1208972166
H   H34       1.0  0.24220  0.02440  0.84620  1.0000 0.1208972166
H   H35       1.0  0.62660  0.87140  0.20150  1.0000 0.1124056533
H   H36       1.0  0.37340  0.12860  0.79850  1.0000 0.1124056533
H   H37       1.0  0.55840  0.76030  0.27470  1.0000 0.1303916993
H   H38       1.0  0.44160  0.23970  0.72530  1.0000 0.1303916993
H   H39       1.0  0.49590  0.98330  0.34430  1.0000 0.1208972166
H   H40       1.0  0.50410  0.01670  0.65570  1.0000 0.1208972166
H   H41       1.0  0.56110  0.09500  0.27040  1.0000 0.1124056533
H   H42       1.0  0.43890  0.90500  0.72960  1.0000 0.1124056533
H   H43       1.0  0.74470  0.72950  0.01360  1.0000 0.1303916993
H   H44       1.0  0.25530  0.27050  0.98640  1.0000 0.1303916993
H   H45       1.0  0.86260  0.92630  0.88820  1.0000 0.1303916993
H   H46       1.0  0.13740  0.07370  0.11180  1.0000 0.1303916993
H   H47       1.0  0.67930  0.71140  0.88150  1.0000 0.1208972166
H   H48       1.0  0.32070  0.28860  0.11850  1.0000 0.1208972166
H   H49       1.0  0.65120  0.82260  0.81020  1.0000 0.1208972166
H   H50       1.0  0.34880  0.17740  0.18980  1.0000 0.1208972166
H   H51       1.0  0.67490  0.87760  0.72490  1.0000 0.1208972166
H   H52       1.0  0.32510  0.12240  0.27510  1.0000 0.1208972166
H   H53       1.0  0.96370  0.95750  0.72350  1.0000 0.1208972166
H   H54       1.0  0.03630  0.04250  0.27650  1.0000 0.1208972166
H   H55       1.0  0.93700  0.90700  0.81030  1.0000 0.1208972166
H   H56       1.0  0.06300  0.09300  0.18970  1.0000 0.1208972166
H   H57       1.0  0.50290  0.43560  0.30770  1.0000 0.1377024408
H   H58       1.0  0.49710  0.56440  0.69230  1.0000 0.1377024408
H   H59       1.0  0.26520  0.27830  0.32340  1.0000 0.1303916993
H   H60       1.0  0.73480  0.72170  0.67660  1.0000 0.1303916993
H   H61       1.0  0.24710  0.35920  0.35500  1.0000 0.1377024408
H   H62       1.0  0.75290  0.64080  0.64500  1.0000 0.1377024408
H   H63       1.0  0.32670  0.26940  0.36760  1.0000 0.1483872052
H   H64       1.0  0.67330  0.73060  0.63240  1.0000 0.1483872052
H   H65       1.0  0.38370  0.31210  0.24740  1.0000 0.1303916993
H   H66       1.0  0.61630  0.68790  0.75260  1.0000 0.1303916993
H   H67       1.0  0.49560  0.32040  0.25900  1.0000 0.1303916993
H   H68       1.0  0.50440  0.67960  0.74100  1.0000 0.1303916993
H   H69       1.0  0.43650  0.41600  0.23240  1.0000 0.1377024408
H   H70       1.0  0.56350  0.58400  0.76760  1.0000 0.1377024408
H   H71       1.0  0.06800  0.70250  0.99430  1.0000 0.0953039642
H   H72       1.0  0.93200  0.29750  0.00570  1.0000 0.0953039642
H   H73       1.0  0.16000  0.46380  0.98770  1.0000 0.1303916993
H   H74       1.0  0.84000  0.53620  0.01230  1.0000 0.1303916993
H   H75       1.0  0.19590  0.57180  0.95940  1.0000 0.1377024408
H   H76       1.0  0.80410  0.42820  0.04060  1.0000 0.1377024408
H   H77       1.0  0.08020  0.54250  0.96300  1.0000 0.1303916993
H   H78       1.0  0.91980  0.45750  0.03700  1.0000 0.1303916993
H   H79       1.0  0.13870  0.43590  0.07210  1.0000 0.1208972166
H   H80       1.0  0.86130  0.56410  0.92790  1.0000 0.1208972166
H   H81       1.0  0.04650  0.49750  0.09640  1.0000 0.1303916993
H   H82       1.0  0.95350  0.50250  0.90360  1.0000 0.1303916993
H   H83       1.0  0.16250  0.52740  0.09160  1.0000 0.1377024408
H   H84       1.0  0.83750  0.47260  0.90840  1.0000 0.1377024408
H   H85       1.0  0.63600  0.01200  0.55500  1.0000 0.4200101312
H   H86       1.0  0.36400  0.98800  0.44500  1.0000 0.4200101312
H   H87       1.0  0.64800  0.11500  0.56900  1.0000 0.3932705637
H   H88       1.0  0.35200  0.88500  0.43100  1.0000 0.3932705637
H   H89       1.0  0.80800  0.21300  0.59700  1.0000 0.400450965
H   H90       1.0  0.19200  0.78700  0.40300  1.0000 0.400450965
H   H91       1.0  0.89500  0.25200  0.54900  1.0000 0.4124912884
H   H92       1.0  0.10500  0.74800  0.45100  1.0000 0.4124912884
H   H93       1.0  0.33500  0.61800  0.50200  1.0000 0.4200101312
H   H94       1.0  0.66500  0.38200  0.49800  1.0000 0.4200101312
H   H95       1.0  0.37500  0.71600  0.45940  1.0000 0.400450965
H   H96       1.0  0.62500  0.28400  0.54060  1.0000 0.400450965
H   H97       1.0  0.25600  0.64900  0.39100  1.0000 0.400450965
H   H98       1.0  0.74400  0.35100  0.60900  1.0000 0.400450965
H   H99       1.0  0.22800  0.53500  0.41300  1.0000 0.4200101312
H   H100      1.0  0.77200  0.46500  0.58700  1.0000 0.4200101312
H   H101      1.0  0.27800  0.86700  0.05400  1.0000 0.400450965
H   H102      1.0  0.72200  0.13300  0.94600  1.0000 0.400450965
H   H103      1.0  0.24100  0.76600  0.09200  1.0000 0.400450965
H   H104      1.0  0.75900  0.23400  0.90800  1.0000 0.400450965
H   H105      1.0  0.30300  0.49600  0.87700  1.0000 0.4200101312
H   H106      1.0  0.69700  0.50400  0.12300  1.0000 0.4200101312
H   H107      1.0  0.37800  0.42900  0.84500  1.0000 0.400450965
H   H108      1.0  0.62200  0.57100  0.15500  1.0000 0.400450965
H   H109      1.0  0.60200  0.27800  0.89200  1.0000 0.3932705637
H   H110      1.0  0.39800  0.72200  0.10800  1.0000 0.3932705637
H   H111      1.0  0.51000  0.31200  0.86000  1.0000 0.400450965
H   H112      1.0  0.49000  0.68800  0.14000  1.0000 0.400450965
H   H113      1.0  0.64300  0.37200  0.00100  1.0000 0.4124912884
H   H114      1.0  0.35700  0.62800  0.99900  1.0000 0.4124912884
H   H115      1.0  0.63200  0.28800  0.97300  1.0000 0.3932705637
H   H116      1.0  0.36800  0.71200  0.02700  1.0000 0.3932705637
C   C1        1.0  0.82530  0.82290  0.45730  1.0000 -0.0107815759
C   C2        1.0  0.17470  0.17710  0.54270  1.0000 -0.0107815759
C   C3        1.0  0.75070  0.75250  0.48150  1.0000 -0.1278628472
C   C4        1.0  0.24930  0.24750  0.51850  1.0000 -0.1197977845
C   C5        1.0  0.71580  0.69310  0.45490  1.0000 -0.0201246782
C   C6        1.0  0.28420  0.30690  0.54510  1.0000 -0.0201246782
C   C7        1.0  0.75200  0.70580  0.40450  1.0000 -0.1411405823
C   C8        1.0  0.24800  0.29420  0.59550  1.0000 -0.1411405823
C   C9        1.0  0.82840  0.77660  0.37910  1.0000 0.0773966614
C   C10       1.0  0.17160  0.22340  0.62090  1.0000 0.0773966614
C   C11       1.0  0.86560  0.83350  0.40670  1.0000 -0.1493992958
C   C12       1.0  0.13440  0.16650  0.59330  1.0000 -0.1493992958
C   C13       1.0  0.86610  0.78880  0.32440  1.0000 0.0726508353
C   C14       1.0  0.13390  0.21120  0.67560  1.0000 0.0726508353
C   C15       1.0  0.96210  0.83340  0.30120  1.0000 -0.1411405823
C   C16       1.0  0.03790  0.16660  0.69880  1.0000 -0.1411405823
C   C17       1.0  0.99490  0.84490  0.25010  1.0000 -0.109610777
C   C18       1.0  0.00510  0.15510  0.74990  1.0000 -0.109610777
C   C19       1.0  0.93650  0.81480  0.22080  1.0000 -0.0201246782
C   C20       1.0  0.06350  0.18520  0.77920  1.0000 -0.0201246782
C   C21       1.0  0.84670  0.76290  0.24430  1.0000 -0.099547543
C   C22       1.0  0.15330  0.23710  0.75570  1.0000 -0.099547543
C   C23       1.0  0.81280  0.75200  0.29520  1.0000 -0.1411405823
C   C24       1.0  0.18720  0.24800  0.70480  1.0000 -0.1411405823
C   C25       1.0  0.85980  0.88870  0.48670  1.0000 0.6197830554
C   C26       1.0  0.14020  0.11130  0.51330  1.0000 0.6197830554
C   C27       1.0  0.64020  0.61260  0.48220  1.0000 0.6494031068
C   C28       1.0  0.35980  0.38740  0.51780  1.0000 0.6494031068
C   C29       1.0  0.97360  0.83050  0.16540  1.0000 0.55196045
C   C30       1.0  0.02640  0.16950  0.83460  1.0000 0.55196045
C   C31       1.0  0.76570  0.38350  0.37490  1.0000 -0.0201246782
C   C32       1.0  0.23430  0.61650  0.62510  1.0000 -0.0201246782
C   C33       1.0  0.79570  0.29850  0.40780  1.0000 -0.1197977845
C   C34       1.0  0.20430  0.70150  0.59220  1.0000 -0.109610777
C   C35       1.0  0.89440  0.25290  0.39730  1.0000 -0.0201246782
C   C36       1.0  0.10560  0.74710  0.60270  1.0000 -0.0201246782
C   C37       1.0  0.96130  0.29310  0.35390  1.0000 -0.1411405823
C   C38       1.0  0.03870  0.70690  0.64610  1.0000 -0.1411405823
C   C39       1.0  0.93300  0.37930  0.32000  1.0000 0.0635609556
C   C40       1.0  0.06700  0.62070  0.68000  1.0000 0.0635609556
C   C41       1.0  0.83530  0.42300  0.33150  1.0000 -0.1493992958
C   C42       1.0  0.16470  0.57700  0.66850  1.0000 -0.1493992958
C   C43       1.0  0.01100  0.42640  0.27530  1.0000 0.0726508353
C   C44       1.0  0.98900  0.57360  0.72470  1.0000 0.0726508353
C   C45       1.0  0.01660  0.52940  0.25990  1.0000 -0.1493992958
C   C46       1.0  0.98340  0.47060  0.74010  1.0000 -0.1493992958
C   C47       1.0  0.09290  0.57500  0.22080  1.0000 -0.0909292806
C   C48       1.0  0.90710  0.42500  0.77920  1.0000 -0.0909292806
C   C49       1.0  0.16700  0.51730  0.19710  1.0000 -0.0362445345
C   C50       1.0  0.83300  0.48270  0.80290  1.0000 -0.0362445345
C   C51       1.0  0.15940  0.41470  0.21110  1.0000 -0.099547543
C   C52       1.0  0.84060  0.58530  0.78890  1.0000 -0.099547543
C   C53       1.0  0.08180  0.37000  0.24970  1.0000 -0.1493992958
C   C54       1.0  0.91820  0.63000  0.75030  1.0000 -0.1493992958
C   C55       1.0  0.66110  0.43290  0.38570  1.0000 0.5573492166
C   C56       1.0  0.33890  0.56710  0.61430  1.0000 0.5573492166
C   C57       1.0  0.92960  0.16290  0.43530  1.0000 0.630141687
C   C58       1.0  0.07040  0.83710  0.56470  1.0000 0.630141687
C   C59       1.0  0.25590  0.56610  0.15900  1.0000 0.5981992599
C   C60       1.0  0.74410  0.43390  0.84100  1.0000 0.5981992599
C   C61       1.0  0.76200  0.10270  0.10010  1.0000 -0.0201246782
C   C62       1.0  0.23800  0.89730  0.89990  1.0000 -0.0201246782
C   C63       1.0  0.71480  0.19690  0.08790  1.0000 -0.1278628472
C   C64       1.0  0.28520  0.80310  0.91210  1.0000 -0.1278628472
C   C65       1.0  0.63270  0.22680  0.12110  1.0000 -0.0201246782
C   C66       1.0  0.36730  0.77320  0.87890  1.0000 -0.0201246782
C   C67       1.0  0.59830  0.16170  0.16660  1.0000 -0.1493992958
C   C68       1.0  0.40170  0.83830  0.83340  1.0000 -0.1493992958
C   C69       1.0  0.64290  0.06650  0.17970  1.0000 0.0635609556
C   C70       1.0  0.35710  0.93350  0.82030  1.0000 0.0635609556
C   C71       1.0  0.72600  0.03870  0.14560  1.0000 -0.1411405823
C   C72       1.0  0.27400  0.96130  0.85440  1.0000 -0.1411405823
C   C73       1.0  0.60070  0.99610  0.22740  1.0000 0.0773966614
C   C74       1.0  0.39930  0.00390  0.77260  1.0000 0.0773966614
C   C75       1.0  0.59970  0.89490  0.22980  1.0000 -0.1493992958
C   C76       1.0  0.40030  0.10510  0.77020  1.0000 -0.1493992958
C   C77       1.0  0.55910  0.82780  0.27400  1.0000 -0.099547543
C   C78       1.0  0.44090  0.17220  0.72600  1.0000 -0.099547543
C   C79       1.0  0.51980  0.86010  0.31690  1.0000 -0.0300343731
C   C80       1.0  0.48020  0.13990  0.68310  1.0000 -0.0300343731
C   C81       1.0  0.52130  0.96050  0.31560  1.0000 -0.099547543
C   C82       1.0  0.47870  0.03950  0.68440  1.0000 -0.099547543
C   C83       1.0  0.56100  0.02740  0.27100  1.0000 -0.1493992958
C   C84       1.0  0.43900  0.97260  0.72900  1.0000 -0.1493992958
C   C85       1.0  0.84910  0.06840  0.06400  1.0000 0.6414490457
C   C86       1.0  0.15090  0.93160  0.93600  1.0000 0.6414490457
C   C87       1.0  0.58020  0.32800  0.10810  1.0000 0.5573492166
C   C88       1.0  0.41980  0.67200  0.89190  1.0000 0.5573492166
C   C89       1.0  0.48080  0.78480  0.36510  1.0000 0.6055388566
C   C90       1.0  0.51920  0.21520  0.63490  1.0000 0.6055388566
C   C91       1.0  0.70000  0.70800  0.95200  1.0000 -0.0362445345
C   C92       1.0  0.30000  0.29200  0.04800  1.0000 -0.0362445345
C   C93       1.0  0.75180  0.75340  0.97900  1.0000 -0.1278628472
C   C94       1.0  0.24820  0.24660  0.02100  1.0000 -0.1278628472
C   C95       1.0  0.81470  0.83440  0.95510  1.0000 -0.0300343731
C   C96       1.0  0.18530  0.16560  0.04490  1.0000 -0.0300343731
C   C97       1.0  0.82360  0.87000  0.90400  1.0000 -0.1411405823
C   C98       1.0  0.17640  0.13000  0.09600  1.0000 -0.1411405823
C   C99       1.0  0.77540  0.82330  0.87540  1.0000 0.0726508353
C   C100      1.0  0.22460  0.17670  0.12460  1.0000 0.0726508353
C   C101      1.0  0.71290  0.74270  0.89980  1.0000 -0.1493992958
C   C102      1.0  0.28710  0.25730  0.10020  1.0000 -0.1493992958
C   C103      1.0  0.79040  0.85890  0.82000  1.0000 0.0726508353
C   C104      1.0  0.20960  0.14110  0.18000  1.0000 0.0726508353
C   C105      1.0  0.71430  0.85090  0.79320  1.0000 -0.1493992958
C   C106      1.0  0.28570  0.14910  0.20680  1.0000 -0.1493992958
C   C107      1.0  0.72840  0.88330  0.74180  1.0000 -0.109610777
C   C108      1.0  0.27160  0.11670  0.25820  1.0000 -0.109610777
C   C109      1.0  0.82170  0.92430  0.71540  1.0000 -0.0107815759
C   C110      1.0  0.17830  0.07570  0.28460  1.0000 -0.0107815759
C   C111      1.0  0.89980  0.93160  0.74090  1.0000 -0.099547543
C   C112      1.0  0.10020  0.06840  0.25910  1.0000 -0.099547543
C   C113      1.0  0.88410  0.90010  0.79330  1.0000 -0.1493992958
C   C114      1.0  0.11590  0.09990  0.20670  1.0000 -0.1493992958
C   C115      1.0  0.63040  0.62340  0.97890  1.0000 0.6414490457
C   C116      1.0  0.36960  0.37660  0.02110  1.0000 0.6414490457
C   C117      1.0  0.87300  0.88010  0.98470  1.0000 0.630141687
C   C118      1.0  0.12700  0.11990  0.01530  1.0000 0.630141687
C   C119      1.0  0.83870  0.96110  0.65930  1.0000 0.5573492166
C   C120      1.0  0.16130  0.03890  0.34070  1.0000 0.5573492166
C   C121      1.0  0.43600  0.42660  0.32650  1.0000 0.2031823139
C   C122      1.0  0.56400  0.57340  0.67350  1.0000 0.2031823139
C   C123      1.0  0.29800  0.31510  0.34110  1.0000 -0.2861497585
C   C124      1.0  0.70200  0.68490  0.65890  1.0000 -0.2861497585
C   C125      1.0  0.42840  0.35350  0.25690  1.0000 -0.3282295201
C   C126      1.0  0.57160  0.64650  0.74310  1.0000 -0.3282295201
C   C127      1.0  0.07710  0.66180  0.02520  1.0000 0.3113664802
C   C128      1.0  0.92290  0.33820  0.97480  1.0000 0.3113664802
C   C129      1.0  0.13890  0.53330  0.98020  1.0000 -0.3587620739
C   C130      1.0  0.86110  0.46670  0.01980  1.0000 -0.3587620739
C   C131      1.0  0.11460  0.50130  0.07590  1.0000 -0.3226014559
C   C132      1.0  0.88540  0.49870  0.92410  1.0000 -0.3226014559
N   N1        1.0  0.38020  0.37240  0.30720  1.0000 -0.0107815759
N   N2        1.0  0.61980  0.62760  0.69280  1.0000 -0.0107815759
N   N3        1.0  0.10890  0.56650  0.02740  1.0000 0.0190588267
N   N4        1.0  0.89110  0.43350  0.97260  1.0000 0.0190588267
O   O1        1.0  0.94570  0.93200  0.47215  1.0000 -0.7200638238
O   O2        1.0  0.05430  0.06800  0.52785  1.0000 -0.7200638238
O   O3        1.0  0.79910  0.89900  0.52589  1.0000 -0.617064981
O   O4        1.0  0.20090  0.10100  0.47411  1.0000 -0.617064981
O   O5        1.0  0.59970  0.56730  0.45670  1.0000 -0.6977483217
O   O6        1.0  0.40030  0.43270  0.54330  1.0000 -0.6977483217
O   O7        1.0  0.62380  0.59060  0.52878  1.0000 -0.6415334229
O   O8        1.0  0.37620  0.40940  0.47122  1.0000 -0.6415334229
O   O9        1.0  0.04520  0.88960  0.14447  1.0000 -0.6007953171
O   O10       1.0  0.95480  0.11040  0.85553  1.0000 -0.6007953171
O   O11       1.0  0.93130  0.78580  0.14087  1.0000 -0.6007953171
O   O12       1.0  0.06870  0.21420  0.85913  1.0000 -0.6007953171
O   O13       1.0  0.63990  0.51690  0.35808  1.0000 -0.6461113278
O   O14       1.0  0.36010  0.48310  0.64192  1.0000 -0.6461113278
O   O15       1.0  0.59550  0.39250  0.42354  1.0000 -0.6256078366
O   O16       1.0  0.40450  0.60750  0.57646  1.0000 -0.6256078366
O   O17       1.0  0.86870  0.13510  0.47589  1.0000 -0.6461113278
O   O18       1.0  0.13130  0.86490  0.52411  1.0000 -0.6461113278
O   O19       1.0  0.01880  0.12660  0.42246  1.0000 -0.6676735763
O   O20       1.0  0.98120  0.87340  0.57754  1.0000 -0.6676735763
O   O21       1.0  0.25990  0.65930  0.14692  1.0000 -0.5763876621
O   O22       1.0  0.74010  0.34070  0.85308  1.0000 -0.5763876621
O   O23       1.0  0.32570  0.50800  0.14153  1.0000 -0.6977483217
O   O24       1.0  0.67430  0.49200  0.85847  1.0000 -0.6977483217
O   O25       1.0  0.88910  0.98360  0.07757  1.0000 -0.6415334229
O   O26       1.0  0.11090  0.01640  0.92243  1.0000 -0.6415334229
O   O27       1.0  0.87590  0.12730  0.02152  1.0000 -0.6883703504
O   O28       1.0  0.12410  0.87270  0.97848  1.0000 -0.6883703504
O   O29       1.0  0.50410  0.35110  0.13833  1.0000 -0.617064981
O   O30       1.0  0.49590  0.64890  0.86167  1.0000 -0.617064981
O   O31       1.0  0.61240  0.38720  0.06681  1.0000 -0.6461113278
O   O32       1.0  0.38760  0.61280  0.93319  1.0000 -0.6461113278
O   O33       1.0  0.49050  0.69420  0.36318  1.0000 -0.6883703504
O   O34       1.0  0.50950  0.30580  0.63682  1.0000 -0.6883703504
O   O35       1.0  0.44390  0.81440  0.40300  1.0000 -0.5653528456
O   O36       1.0  0.55610  0.18560  0.59700  1.0000 -0.5645292286
O   O37       1.0  0.59760  0.57200  0.95480  1.0000 -0.6676735763
O   O38       1.0  0.40240  0.42800  0.04520  1.0000 -0.6676735763
O   O39       1.0  0.61130  0.60700  0.02558  1.0000 -0.6594300751
O   O40       1.0  0.38870  0.39300  0.97442  1.0000 -0.6594300751
O   O41       1.0  0.90120  0.96790  0.96719  1.0000 -0.6827085499
O   O42       1.0  0.09880  0.03210  0.03281  1.0000 -0.6827085499
O   O43       1.0  0.89380  0.82670  0.02536  1.0000 -0.6415334229
O   O44       1.0  0.10620  0.17330  0.97464  1.0000 -0.6415334229
O   O45       1.0  0.77830  0.93540  0.63516  1.0000 -0.6069356088
O   O46       1.0  0.22170  0.06460  0.36484  1.0000 -0.6069356088
O   O47       1.0  0.91300  0.01760  0.63837  1.0000 -0.617064981
O   O48       1.0  0.08700  0.98240  0.36163  1.0000 -0.617064981
O   O49       1.0  0.69170  0.06040  0.55570  1.0000 -0.8602841977
O   O50       1.0  0.30830  0.93960  0.44430  1.0000 -0.8602841977
O   O51       1.0  0.85630  0.18800  0.56862  1.0000 -0.840364698
O   O52       1.0  0.14370  0.81200  0.43138  1.0000 -0.840364698
O   O53       1.0  0.42740  0.46180  0.35610  1.0000 -0.4496226791
O   O54       1.0  0.57260  0.53820  0.64390  1.0000 -0.4496226791
O   O55       1.0  0.39010  0.64290  0.47216  1.0000 -0.8524793271
O   O56       1.0  0.60990  0.35710  0.52784  1.0000 -0.8524793271
O   O57       1.0  0.28670  0.58160  0.40730  1.0000 -0.8602841977
O   O58       1.0  0.71330  0.41840  0.59270  1.0000 -0.8602841977
O   O59       1.0  0.05860  0.69990  0.06340  1.0000 -0.5763876621
O   O60       1.0  0.94140  0.30010  0.93660  1.0000 -0.5763876621
O   O61       1.0  0.21180  0.83240  0.07402  1.0000 -0.840364698
O   O62       1.0  0.78820  0.16760  0.92598  1.0000 -0.840364698
O   O63       1.0  0.37730  0.47600  0.86700  1.0000 -0.8524793271
O   O64       1.0  0.62270  0.52400  0.13300  1.0000 -0.8524793271
O   O65       1.0  0.53610  0.32150  0.89020  1.0000 -0.8742794577
O   O66       1.0  0.46390  0.67850  0.10980  1.0000 -0.8742794577
O   O67       1.0  0.61830  0.36210  0.97039  1.0000 -0.8524793271
O   O68       1.0  0.38170  0.63790  0.02961  1.0000 -0.8524793271
