# DDEC6 charges by PACMAN v1.1 (https://github.com/mtap-research/PACMAN-charge/)
data_2015[Cu][nan]3[FSR]18
_chemical_formula_sum              "Cu24 H64 C80 I16 N32 O40"
_cell_length_a       7.6681
_cell_length_b       15.4268
_cell_length_c       31.909
_cell_angle_alpha    90
_cell_angle_beta     90
_cell_angle_gamma    90

_symmetry_space_group_name_H-M    "P 1"
_symmetry_Int_Tables_number       1

loop_
  _symmetry_equiv_pos_as_xyz
  'x, y, z'

loop_
  _atom_site_type_symbol
  _atom_site_label
  _atom_site_symmetry_multiplicity
  _atom_site_fract_x
  _atom_site_fract_y
  _atom_site_fract_z
  _atom_site_occupancy
  _atom_site_charge
Cu  Cu1       1.0  0.08571  0.32611  0.06192  1.0000 0.167933067
Cu  Cu2       1.0  0.41429  0.82611  0.43808  1.0000 0.167933067
Cu  Cu3       1.0  0.91429  0.17389  0.06192  1.0000 0.167933067
Cu  Cu4       1.0  0.58571  0.67389  0.43808  1.0000 0.167933067
Cu  Cu5       1.0  0.91429  0.67389  0.93808  1.0000 0.167933067
Cu  Cu6       1.0  0.58571  0.17389  0.56192  1.0000 0.167933067
Cu  Cu7       1.0  0.08571  0.82611  0.93808  1.0000 0.167933067
Cu  Cu8       1.0  0.41429  0.32611  0.56192  1.0000 0.167933067
Cu  Cu9       1.0  0.07830  0.02995  0.03422  1.0000 0.1598333602
Cu  Cu10      1.0  0.42170  0.52995  0.46578  1.0000 0.1598333602
Cu  Cu11      1.0  0.92170  0.47005  0.03422  1.0000 0.1598333602
Cu  Cu12      1.0  0.57830  0.97005  0.46578  1.0000 0.1598333602
Cu  Cu13      1.0  0.92170  0.97005  0.96578  1.0000 0.1598333602
Cu  Cu14      1.0  0.57830  0.47005  0.53422  1.0000 0.1598333602
Cu  Cu15      1.0  0.07830  0.52995  0.96578  1.0000 0.1598333602
Cu  Cu16      1.0  0.42170  0.02995  0.53422  1.0000 0.1598333602
Cu  Cu17      1.0  0.24911  0.87333  0.22911  1.0000 0.7353041877
Cu  Cu18      1.0  0.25089  0.37333  0.27089  1.0000 0.7345107506
Cu  Cu19      1.0  0.75089  0.62667  0.22911  1.0000 0.7345107506
Cu  Cu20      1.0  0.74911  0.12667  0.27089  1.0000 0.7345107506
Cu  Cu21      1.0  0.75089  0.12667  0.77089  1.0000 0.7345107506
Cu  Cu22      1.0  0.74911  0.62667  0.72911  1.0000 0.7345107506
Cu  Cu23      1.0  0.24911  0.37333  0.77089  1.0000 0.7345107506
Cu  Cu24      1.0  0.25089  0.87333  0.72911  1.0000 0.7353041877
H   H1        1.0  0.37580  0.98300  0.09240  1.0000 0.1296801419
H   H2        1.0  0.12420  0.48300  0.40760  1.0000 0.1296801419
H   H3        1.0  0.62420  0.51700  0.09240  1.0000 0.1296801419
H   H4        1.0  0.87580  0.01700  0.40760  1.0000 0.1296801419
H   H5        1.0  0.62420  0.01700  0.90760  1.0000 0.1296801419
H   H6        1.0  0.87580  0.51700  0.59240  1.0000 0.1296801419
H   H7        1.0  0.37580  0.48300  0.90760  1.0000 0.1296801419
H   H8        1.0  0.12420  0.98300  0.59240  1.0000 0.1296801419
H   H9        1.0  0.87630  0.93880  0.10280  1.0000 0.1296801419
H   H10       1.0  0.62370  0.43880  0.39720  1.0000 0.1296801419
H   H11       1.0  0.12370  0.56120  0.10280  1.0000 0.1296801419
H   H12       1.0  0.37630  0.06120  0.39720  1.0000 0.1296801419
H   H13       1.0  0.12370  0.06120  0.89720  1.0000 0.1296801419
H   H14       1.0  0.37630  0.56120  0.60280  1.0000 0.1296801419
H   H15       1.0  0.87630  0.43880  0.89720  1.0000 0.1296801419
H   H16       1.0  0.62370  0.93880  0.60280  1.0000 0.1296801419
H   H17       1.0  0.91700  0.89160  0.17060  1.0000 0.1296801419
H   H18       1.0  0.58300  0.39160  0.32940  1.0000 0.1296801419
H   H19       1.0  0.08300  0.60840  0.17060  1.0000 0.1296801419
H   H20       1.0  0.41700  0.10840  0.32940  1.0000 0.1296801419
H   H21       1.0  0.08300  0.10840  0.82940  1.0000 0.1296801419
H   H22       1.0  0.41700  0.60840  0.67060  1.0000 0.1296801419
H   H23       1.0  0.91700  0.39160  0.82940  1.0000 0.1296801419
H   H24       1.0  0.58300  0.89160  0.67060  1.0000 0.1296801419
H   H25       1.0  0.38250  0.34540  0.12440  1.0000 0.1296801419
H   H26       1.0  0.11750  0.84540  0.37560  1.0000 0.1296801419
H   H27       1.0  0.61750  0.15460  0.12440  1.0000 0.1296801419
H   H28       1.0  0.88250  0.65460  0.37560  1.0000 0.1296801419
H   H29       1.0  0.61750  0.65460  0.87560  1.0000 0.1296801419
H   H30       1.0  0.88250  0.15460  0.62440  1.0000 0.1296801419
H   H31       1.0  0.38250  0.84540  0.87560  1.0000 0.1296801419
H   H32       1.0  0.11750  0.34540  0.62440  1.0000 0.1296801419
H   H33       1.0  0.87810  0.35840  0.14160  1.0000 0.11650734
H   H34       1.0  0.62190  0.85840  0.35840  1.0000 0.11650734
H   H35       1.0  0.12190  0.14160  0.14160  1.0000 0.11650734
H   H36       1.0  0.37810  0.64160  0.35840  1.0000 0.11650734
H   H37       1.0  0.12190  0.64160  0.85840  1.0000 0.11650734
H   H38       1.0  0.37810  0.14160  0.64160  1.0000 0.11650734
H   H39       1.0  0.87810  0.85840  0.85840  1.0000 0.11650734
H   H40       1.0  0.62190  0.35840  0.64160  1.0000 0.11650734
H   H41       1.0  0.91730  0.37440  0.21240  1.0000 0.1296801419
H   H42       1.0  0.58270  0.87440  0.28760  1.0000 0.1296801419
H   H43       1.0  0.08270  0.12560  0.21240  1.0000 0.1296801419
H   H44       1.0  0.41730  0.62560  0.28760  1.0000 0.1296801419
H   H45       1.0  0.08270  0.62560  0.78760  1.0000 0.1296801419
H   H46       1.0  0.41730  0.12560  0.71240  1.0000 0.1296801419
H   H47       1.0  0.91730  0.87440  0.78760  1.0000 0.1296801419
H   H48       1.0  0.58270  0.37440  0.71240  1.0000 0.1296801419
H   H49       1.0  0.25360  0.72040  0.19260  1.0000 0.3409182389
H   H50       1.0  0.24640  0.22040  0.30740  1.0000 0.3409182389
H   H51       1.0  0.74640  0.77960  0.19260  1.0000 0.3409182389
H   H52       1.0  0.75360  0.27960  0.30740  1.0000 0.3409182389
H   H53       1.0  0.74640  0.27960  0.80740  1.0000 0.3409182389
H   H54       1.0  0.75360  0.77960  0.69260  1.0000 0.3409182389
H   H55       1.0  0.25360  0.22040  0.80740  1.0000 0.3409182389
H   H56       1.0  0.24640  0.72040  0.69260  1.0000 0.3409182389
H   H57       1.0  0.34890  0.71030  0.22890  1.0000 0.3409182389
H   H58       1.0  0.15110  0.21030  0.27110  1.0000 0.3409182389
H   H59       1.0  0.65110  0.78970  0.22890  1.0000 0.3409182389
H   H60       1.0  0.84890  0.28970  0.27110  1.0000 0.3409182389
H   H61       1.0  0.65110  0.28970  0.77110  1.0000 0.3409182389
H   H62       1.0  0.84890  0.78970  0.72890  1.0000 0.3409182389
H   H63       1.0  0.34890  0.21030  0.77110  1.0000 0.3409182389
H   H64       1.0  0.15110  0.71030  0.72890  1.0000 0.3409182389
C   C1        1.0  0.48340  0.92960  0.16950  1.0000 0.5279802789
C   C2        1.0  0.01660  0.42960  0.33050  1.0000 0.5279802789
C   C3        1.0  0.51660  0.57040  0.16950  1.0000 0.5279802789
C   C4        1.0  0.98340  0.07040  0.33050  1.0000 0.5279802789
C   C5        1.0  0.51660  0.07040  0.83050  1.0000 0.5279802789
C   C6        1.0  0.98340  0.57040  0.66950  1.0000 0.5279802789
C   C7        1.0  0.48340  0.42960  0.83050  1.0000 0.5279802789
C   C8        1.0  0.01660  0.92960  0.66950  1.0000 0.5279802789
C   C9        1.0  0.30550  0.93550  0.14860  1.0000 0.0755424838
C   C10       1.0  0.19450  0.43550  0.35140  1.0000 0.0755424838
C   C11       1.0  0.69450  0.56450  0.14860  1.0000 0.0755424838
C   C12       1.0  0.80550  0.06450  0.35140  1.0000 0.0755424838
C   C13       1.0  0.69450  0.06450  0.85140  1.0000 0.0755424838
C   C14       1.0  0.80550  0.56450  0.64860  1.0000 0.0755424838
C   C15       1.0  0.30550  0.43550  0.85140  1.0000 0.0755424838
C   C16       1.0  0.19450  0.93550  0.64860  1.0000 0.0755424838
C   C17       1.0  0.28030  0.96490  0.10810  1.0000 0.0395547433
C   C18       1.0  0.21970  0.46490  0.39190  1.0000 0.0395547433
C   C19       1.0  0.71970  0.53510  0.10810  1.0000 0.0395547433
C   C20       1.0  0.78030  0.03510  0.39190  1.0000 0.0395547433
C   C21       1.0  0.71970  0.03510  0.89190  1.0000 0.0395547433
C   C22       1.0  0.78030  0.53510  0.60810  1.0000 0.0395547433
C   C23       1.0  0.28030  0.46490  0.89190  1.0000 0.0395547433
C   C24       1.0  0.21970  0.96490  0.60810  1.0000 0.0395547433
C   C25       1.0  0.98790  0.93920  0.11420  1.0000 0.0395547433
C   C26       1.0  0.51210  0.43920  0.38580  1.0000 0.0395547433
C   C27       1.0  0.01210  0.56080  0.11420  1.0000 0.0395547433
C   C28       1.0  0.48790  0.06080  0.38580  1.0000 0.0395547433
C   C29       1.0  0.01210  0.06080  0.88580  1.0000 0.0395547433
C   C30       1.0  0.48790  0.56080  0.61420  1.0000 0.0395547433
C   C31       1.0  0.98790  0.43920  0.88580  1.0000 0.0395547433
C   C32       1.0  0.51210  0.93920  0.61420  1.0000 0.0395547433
C   C33       1.0  0.01250  0.91020  0.15500  1.0000 0.0520878268
C   C34       1.0  0.48750  0.41020  0.34500  1.0000 0.0520878268
C   C35       1.0  0.98750  0.58980  0.15500  1.0000 0.0520878268
C   C36       1.0  0.51250  0.08980  0.34500  1.0000 0.0520878268
C   C37       1.0  0.98750  0.08980  0.84500  1.0000 0.0520878268
C   C38       1.0  0.51250  0.58980  0.65500  1.0000 0.0520878268
C   C39       1.0  0.01250  0.41020  0.84500  1.0000 0.0520878268
C   C40       1.0  0.48750  0.91020  0.65500  1.0000 0.0520878268
C   C41       1.0  0.48670  0.36090  0.20570  1.0000 0.5279802789
C   C42       1.0  0.01330  0.86090  0.29430  1.0000 0.5279802789
C   C43       1.0  0.51330  0.13910  0.20570  1.0000 0.5279802789
C   C44       1.0  0.98670  0.63910  0.29430  1.0000 0.5279802789
C   C45       1.0  0.51330  0.63910  0.79430  1.0000 0.5279802789
C   C46       1.0  0.98670  0.13910  0.70570  1.0000 0.5279802789
C   C47       1.0  0.48670  0.86090  0.79430  1.0000 0.5279802789
C   C48       1.0  0.01330  0.36090  0.70570  1.0000 0.5279802789
C   C49       1.0  0.31070  0.35990  0.18510  1.0000 0.0755424838
C   C50       1.0  0.18930  0.85990  0.31490  1.0000 0.0755424838
C   C51       1.0  0.68930  0.14010  0.18510  1.0000 0.0748971661
C   C52       1.0  0.81070  0.64010  0.31490  1.0000 0.0755424838
C   C53       1.0  0.68930  0.64010  0.81490  1.0000 0.0755424838
C   C54       1.0  0.81070  0.14010  0.68510  1.0000 0.0748971661
C   C55       1.0  0.31070  0.85990  0.81490  1.0000 0.0755424838
C   C56       1.0  0.18930  0.35990  0.68510  1.0000 0.0755424838
C   C57       1.0  0.28620  0.35030  0.14200  1.0000 0.0520878268
C   C58       1.0  0.21380  0.85030  0.35800  1.0000 0.0520878268
C   C59       1.0  0.71380  0.14970  0.14200  1.0000 0.0520878268
C   C60       1.0  0.78620  0.64970  0.35800  1.0000 0.0520878268
C   C61       1.0  0.71380  0.64970  0.85800  1.0000 0.0520878268
C   C62       1.0  0.78620  0.14970  0.64200  1.0000 0.0520878268
C   C63       1.0  0.28620  0.85030  0.85800  1.0000 0.0520878268
C   C64       1.0  0.21380  0.35030  0.64200  1.0000 0.0520878268
C   C65       1.0  0.99090  0.35810  0.15240  1.0000 0.0282818125
C   C66       1.0  0.50910  0.85810  0.34760  1.0000 0.0282818125
C   C67       1.0  0.00910  0.14190  0.15240  1.0000 0.0282818125
C   C68       1.0  0.49090  0.64190  0.34760  1.0000 0.0282818125
C   C69       1.0  0.00910  0.64190  0.84760  1.0000 0.0282818125
C   C70       1.0  0.49090  0.14190  0.65240  1.0000 0.0282818125
C   C71       1.0  0.99090  0.85810  0.84760  1.0000 0.0282818125
C   C72       1.0  0.50910  0.35810  0.65240  1.0000 0.0282818125
C   C73       1.0  0.01390  0.36790  0.19504  1.0000 0.0520878268
C   C74       1.0  0.48610  0.86790  0.30496  1.0000 0.0520878268
C   C75       1.0  0.98610  0.13210  0.19504  1.0000 0.0520878268
C   C76       1.0  0.51390  0.63210  0.30496  1.0000 0.0520878268
C   C77       1.0  0.98610  0.63210  0.80496  1.0000 0.0551390347
C   C78       1.0  0.51390  0.13210  0.69504  1.0000 0.0520878268
C   C79       1.0  0.01390  0.86790  0.80496  1.0000 0.0520878268
C   C80       1.0  0.48610  0.36790  0.69504  1.0000 0.0520878268
I   I1        1.0  0.26207  0.45058  0.02377  1.0000 -0.2439157087
I   I2        1.0  0.23793  0.95058  0.47623  1.0000 -0.2515725217
I   I3        1.0  0.73793  0.04942  0.02377  1.0000 -0.2439157087
I   I4        1.0  0.76207  0.54942  0.47623  1.0000 -0.2439157087
I   I5        1.0  0.73793  0.54942  0.97623  1.0000 -0.2439157087
I   I6        1.0  0.76207  0.04942  0.52377  1.0000 -0.2439157087
I   I7        1.0  0.26207  0.95058  0.97623  1.0000 -0.2439157087
I   I8        1.0  0.23793  0.45058  0.52377  1.0000 -0.2439157087
I   I9        1.0  0.25545  0.17888  0.04787  1.0000 -0.2515725217
I   I10       1.0  0.24455  0.67888  0.45213  1.0000 -0.2515725217
I   I11       1.0  0.74455  0.32112  0.04787  1.0000 -0.2515725217
I   I12       1.0  0.75545  0.82112  0.45213  1.0000 -0.2515725217
I   I13       1.0  0.74455  0.82112  0.95213  1.0000 -0.2551535259
I   I14       1.0  0.75545  0.32112  0.54787  1.0000 -0.2515725217
I   I15       1.0  0.25545  0.67888  0.95213  1.0000 -0.2515725217
I   I16       1.0  0.24455  0.17888  0.54787  1.0000 -0.2515725217
N   N1        1.0  0.12090  0.96770  0.09112  1.0000 -0.1307904294
N   N2        1.0  0.37910  0.46770  0.40888  1.0000 -0.1307904294
N   N3        1.0  0.87910  0.53230  0.09112  1.0000 -0.1307904294
N   N4        1.0  0.62090  0.03230  0.40888  1.0000 -0.1307904294
N   N5        1.0  0.87910  0.03230  0.90888  1.0000 -0.1307904294
N   N6        1.0  0.62090  0.53230  0.59112  1.0000 -0.1307904294
N   N7        1.0  0.12090  0.46770  0.90888  1.0000 -0.1307904294
N   N8        1.0  0.37910  0.96770  0.59112  1.0000 -0.1307904294
N   N9        1.0  0.17120  0.90880  0.17226  1.0000 -0.2298379543
N   N10       1.0  0.32880  0.40880  0.32774  1.0000 -0.2298379543
N   N11       1.0  0.82880  0.59120  0.17226  1.0000 -0.2298379543
N   N12       1.0  0.67120  0.09120  0.32774  1.0000 -0.2298379543
N   N13       1.0  0.82880  0.09120  0.82774  1.0000 -0.2298379543
N   N14       1.0  0.67120  0.59120  0.67226  1.0000 -0.2298379543
N   N15       1.0  0.17120  0.40880  0.82774  1.0000 -0.2298379543
N   N16       1.0  0.32880  0.90880  0.67226  1.0000 -0.2298379543
N   N17       1.0  0.12610  0.34810  0.12576  1.0000 -0.1486861187
N   N18       1.0  0.37390  0.84810  0.37424  1.0000 -0.1486861187
N   N19       1.0  0.87390  0.15190  0.12576  1.0000 -0.1486861187
N   N20       1.0  0.62610  0.65190  0.37424  1.0000 -0.1486861187
N   N21       1.0  0.87390  0.65190  0.87424  1.0000 -0.1486861187
N   N22       1.0  0.62610  0.15190  0.62576  1.0000 -0.1486861187
N   N23       1.0  0.12610  0.84810  0.87424  1.0000 -0.1486861187
N   N24       1.0  0.37390  0.34810  0.62576  1.0000 -0.1486861187
N   N25       1.0  0.17430  0.36810  0.21159  1.0000 -0.2226812116
N   N26       1.0  0.32570  0.86810  0.28841  1.0000 -0.2226812116
N   N27       1.0  0.82570  0.13190  0.21159  1.0000 -0.2226812116
N   N28       1.0  0.67430  0.63190  0.28841  1.0000 -0.2226812116
N   N29       1.0  0.82570  0.63190  0.78841  1.0000 -0.2226812116
N   N30       1.0  0.67430  0.13190  0.71159  1.0000 -0.2226812116
N   N31       1.0  0.17430  0.86810  0.78841  1.0000 -0.2226812116
N   N32       1.0  0.32570  0.36810  0.71159  1.0000 -0.2226812116
O   O1        1.0  0.47890  0.89930  0.20715  1.0000 -0.5642318467
O   O2        1.0  0.02110  0.39930  0.29285  1.0000 -0.5642318467
O   O3        1.0  0.52110  0.60070  0.20715  1.0000 -0.5642318467
O   O4        1.0  0.97890  0.10070  0.29285  1.0000 -0.5642318467
O   O5        1.0  0.52110  0.10070  0.79285  1.0000 -0.5642318467
O   O6        1.0  0.97890  0.60070  0.70715  1.0000 -0.5642318467
O   O7        1.0  0.47890  0.39930  0.79285  1.0000 -0.5642318467
O   O8        1.0  0.02110  0.89930  0.70715  1.0000 -0.5642318467
O   O9        1.0  0.25510  0.73090  0.21870  1.0000 -0.660377417
O   O10       1.0  0.24490  0.23090  0.28130  1.0000 -0.660377417
O   O11       1.0  0.74490  0.76910  0.21870  1.0000 -0.660377417
O   O12       1.0  0.75510  0.26910  0.28130  1.0000 -0.660377417
O   O13       1.0  0.74490  0.26910  0.78130  1.0000 -0.660377417
O   O14       1.0  0.75510  0.76910  0.71870  1.0000 -0.660377417
O   O15       1.0  0.25510  0.23090  0.78130  1.0000 -0.660377417
O   O16       1.0  0.24490  0.73090  0.71870  1.0000 -0.660377417
O   O17       1.0  0.61220  0.95460  0.15115  1.0000 -0.5094454435
O   O18       1.0  0.88780  0.45460  0.34885  1.0000 -0.5094454435
O   O19       1.0  0.38780  0.54540  0.15115  1.0000 -0.5049285779
O   O20       1.0  0.11220  0.04540  0.34885  1.0000 -0.5049285779
O   O21       1.0  0.38780  0.04540  0.84885  1.0000 -0.5094454435
O   O22       1.0  0.11220  0.54540  0.65115  1.0000 -0.5049285779
O   O23       1.0  0.61220  0.45460  0.84885  1.0000 -0.5094454435
O   O24       1.0  0.88780  0.95460  0.65115  1.0000 -0.5094454435
O   O25       1.0  0.61890  0.35550  0.18490  1.0000 -0.5094454435
O   O26       1.0  0.88110  0.85550  0.31510  1.0000 -0.5094454435
O   O27       1.0  0.38110  0.14450  0.18490  1.0000 -0.5094454435
O   O28       1.0  0.11890  0.64450  0.31510  1.0000 -0.5094454435
O   O29       1.0  0.38110  0.64450  0.81510  1.0000 -0.5094454435
O   O30       1.0  0.11890  0.14450  0.68490  1.0000 -0.5094454435
O   O31       1.0  0.61890  0.85550  0.81510  1.0000 -0.5094454435
O   O32       1.0  0.88110  0.35550  0.68490  1.0000 -0.5094454435
O   O33       1.0  0.48340  0.36590  0.24600  1.0000 -0.5094454435
O   O34       1.0  0.01660  0.86590  0.25400  1.0000 -0.5094454435
O   O35       1.0  0.51660  0.13410  0.24600  1.0000 -0.5094454435
O   O36       1.0  0.98340  0.63410  0.25400  1.0000 -0.5094454435
O   O37       1.0  0.51660  0.63410  0.75400  1.0000 -0.5094454435
O   O38       1.0  0.98340  0.13410  0.74600  1.0000 -0.5094454435
O   O39       1.0  0.48340  0.86590  0.75400  1.0000 -0.5094454435
O   O40       1.0  0.01660  0.36590  0.74600  1.0000 -0.5094454435
