# DDEC6 charges by PACMAN v1.1 (https://github.com/mtap-research/PACMAN-charge/)
data_2015[Gd][nan]3[FSR]3
_chemical_formula_sum              "Gd8 H44 C48 N12 O70"
_cell_length_a       8.5607
_cell_length_b       14.1023
_cell_length_c       20.294
_cell_angle_alpha    88.5392
_cell_angle_beta     86.4998
_cell_angle_gamma    81.2519

_symmetry_space_group_name_H-M    "P 1"
_symmetry_Int_Tables_number       1

loop_
  _symmetry_equiv_pos_as_xyz
  'x, y, z'

loop_
  _atom_site_type_symbol
  _atom_site_label
  _atom_site_symmetry_multiplicity
  _atom_site_fract_x
  _atom_site_fract_y
  _atom_site_fract_z
  _atom_site_occupancy
  _atom_site_charge
Gd  Gd1       1.0  0.27504  0.76286  0.98096  1.0000 1.8699746016
Gd  Gd2       1.0  0.72496  0.23714  0.01904  1.0000 1.8699746016
Gd  Gd3       1.0  0.23167  0.48581  0.24766  1.0000 2.1932598832
Gd  Gd4       1.0  0.76833  0.51419  0.75234  1.0000 2.1932598832
Gd  Gd5       1.0  0.11899  0.75955  0.51428  1.0000 1.8867193344
Gd  Gd6       1.0  0.88101  0.24045  0.48572  1.0000 1.8867193344
Gd  Gd7       1.0  0.21156  0.03019  0.24149  1.0000 2.1514400724
Gd  Gd8       1.0  0.78844  0.96981  0.75851  1.0000 2.1514400724
H   H1        1.0  0.40700  0.64870  0.26920  1.0000 0.4289294961
H   H2        1.0  0.59300  0.35130  0.73080  1.0000 0.4289294961
H   H3        1.0  0.23700  0.90690  0.60630  1.0000 0.4105124842
H   H4        1.0  0.76300  0.09310  0.39370  1.0000 0.4105124842
H   H5        1.0  0.05340  0.92760  0.61010  1.0000 0.4019938294
H   H6        1.0  0.94660  0.07240  0.38990  1.0000 0.4019938294
H   H7        1.0  0.92980  0.62950  0.29610  1.0000 0.4373073164
H   H8        1.0  0.07020  0.37050  0.70390  1.0000 0.4373073164
H   H9        1.0  0.02210  0.67710  0.23950  1.0000 0.4289294961
H   H10       1.0  0.97790  0.32290  0.76050  1.0000 0.4289294961
H   H11       1.0  0.99340  0.36010  0.21400  1.0000 0.4187924001
H   H12       1.0  0.00660  0.63990  0.78600  1.0000 0.4187924001
H   H13       1.0  0.11670  0.34370  0.15470  1.0000 0.4105124842
H   H14       1.0  0.88330  0.65630  0.84530  1.0000 0.4105124842
H   H15       1.0  0.48710  0.61350  0.20210  1.0000 0.4289294961
H   H16       1.0  0.51290  0.38650  0.79790  1.0000 0.4289294961
H   H17       1.0  0.45710  0.30940  0.28260  1.0000 0.4373073164
H   H18       1.0  0.54290  0.69060  0.71740  1.0000 0.4373073164
H   H19       1.0  0.37600  0.34300  0.35010  1.0000 0.4105124842
H   H20       1.0  0.62400  0.65700  0.64990  1.0000 0.4105124842
H   H21       1.0  0.43510  0.12690  0.14130  1.0000 0.4105124842
H   H22       1.0  0.56490  0.87310  0.85870  1.0000 0.4105124842
H   H23       1.0  0.28580  0.20210  0.14640  1.0000 0.4019938294
H   H24       1.0  0.71420  0.79790  0.85360  1.0000 0.4019938294
H   H25       1.0  0.95630  0.15230  0.15950  1.0000 0.4105124842
H   H26       1.0  0.04370  0.84770  0.84050  1.0000 0.4105124842
H   H27       1.0  0.96090  0.20430  0.22550  1.0000 0.4187924001
H   H28       1.0  0.03910  0.79570  0.77450  1.0000 0.4187924001
H   H29       1.0  0.24720  0.23260  0.30720  1.0000 0.4105124842
H   H30       1.0  0.75280  0.76740  0.69280  1.0000 0.4105124842
H   H31       1.0  0.18200  0.16350  0.35850  1.0000 0.4105124842
H   H32       1.0  0.81800  0.83650  0.64150  1.0000 0.4105124842
H   H33       1.0  0.38750  0.93040  0.13040  1.0000 0.3915303531
H   H34       1.0  0.61250  0.06960  0.86960  1.0000 0.3915303531
H   H35       1.0  0.52410  0.97970  0.15350  1.0000 0.3915303531
H   H36       1.0  0.47590  0.02030  0.84650  1.0000 0.3915303531
H   H37       1.0  0.31770  0.83550  0.26380  1.0000 0.3468571189
H   H38       1.0  0.68230  0.16450  0.73620  1.0000 0.3468571189
H   H39       1.0  0.19360  0.83670  0.22270  1.0000 0.3468571189
H   H40       1.0  0.80640  0.16330  0.77730  1.0000 0.3468571189
H   H41       1.0  0.86260  0.00570  0.23472  1.0000 0.4105124842
H   H42       1.0  0.13740  0.99430  0.76528  1.0000 0.4105124842
H   H43       1.0  0.88990  0.05190  0.30100  1.0000 0.4019938294
H   H44       1.0  0.11010  0.94810  0.69900  1.0000 0.4019938294
C   C1        1.0  0.25250  0.58830  0.09227  1.0000 0.6001470122
C   C2        1.0  0.74750  0.41170  0.90773  1.0000 0.6001470122
C   C3        1.0  0.38730  0.53620  0.04726  1.0000 0.0920162507
C   C4        1.0  0.61270  0.46380  0.95274  1.0000 0.0920162507
C   C5        1.0  0.49050  0.45080  0.05874  1.0000 0.0920162507
C   C6        1.0  0.50950  0.54920  0.94126  1.0000 0.0920162507
C   C7        1.0  0.50430  0.38760  0.12180  1.0000 0.6185403946
C   C8        1.0  0.49570  0.61240  0.87820  1.0000 0.6185403946
C   C9        1.0  0.12710  0.93270  0.09011  1.0000 0.5908390764
C   C10       1.0  0.87290  0.06730  0.90989  1.0000 0.5908390764
C   C11       1.0  0.97760  0.91050  0.06190  1.0000 0.0606728912
C   C12       1.0  0.02240  0.08950  0.93810  1.0000 0.0606728912
C   C13       1.0  0.82160  0.95660  0.07765  1.0000 0.0798812821
C   C14       1.0  0.17840  0.04340  0.92235  1.0000 0.0798812821
C   C15       1.0  0.72380  0.84840  0.01594  1.0000 0.1166327927
C   C16       1.0  0.27620  0.15160  0.98406  1.0000 0.1166327927
C   C17       1.0  0.87540  0.80380  0.99791  1.0000 0.0606728912
C   C18       1.0  0.12460  0.19620  0.00209  1.0000 0.0606728912
C   C19       1.0  0.91900  0.72110  0.95020  1.0000 0.5679621581
C   C20       1.0  0.08100  0.27890  0.04980  1.0000 0.5679621581
C   C21       1.0  0.78230  0.04550  0.11890  1.0000 0.5808473859
C   C22       1.0  0.21770  0.95450  0.88110  1.0000 0.5808473859
C   C23       1.0  0.57560  0.81250  0.99720  1.0000 0.5587628964
C   C24       1.0  0.42440  0.18750  0.00280  1.0000 0.5587628964
C   C25       1.0  0.20630  0.58220  0.40344  1.0000 0.6001470122
C   C26       1.0  0.79370  0.41780  0.59656  1.0000 0.6001470122
C   C27       1.0  0.09150  0.53530  0.45065  1.0000 0.1085161302
C   C28       1.0  0.90850  0.46470  0.54935  1.0000 0.1085161302
C   C29       1.0  0.98250  0.54520  0.55902  1.0000 0.0920162507
C   C30       1.0  0.01750  0.45480  0.44098  1.0000 0.0920162507
C   C31       1.0  0.98990  0.59990  0.62193  1.0000 0.6185403946
C   C32       1.0  0.01010  0.40010  0.37807  1.0000 0.6185403946
C   C33       1.0  0.49270  0.02150  0.35210  1.0000 0.5808473859
C   C34       1.0  0.50730  0.97850  0.64790  1.0000 0.5808473859
C   C35       1.0  0.48130  0.94520  0.40640  1.0000 0.0798812821
C   C36       1.0  0.51870  0.05480  0.59360  1.0000 0.0798812821
C   C37       1.0  0.34500  0.90540  0.42695  1.0000 0.0606728912
C   C38       1.0  0.65500  0.09460  0.57305  1.0000 0.0606728912
C   C39       1.0  0.49570  0.79910  0.49636  1.0000 0.0679145898
C   C40       1.0  0.50430  0.20090  0.50364  1.0000 0.0679145898
C   C41       1.0  0.63100  0.84060  0.47433  1.0000 0.1271096501
C   C42       1.0  0.36900  0.15940  0.52567  1.0000 0.1271096501
C   C43       1.0  0.79520  0.80440  0.49700  1.0000 0.5481167916
C   C44       1.0  0.20480  0.19560  0.50300  1.0000 0.5481167916
C   C45       1.0  0.49650  0.71730  0.54468  1.0000 0.5679621581
C   C46       1.0  0.50350  0.28270  0.45532  1.0000 0.5679621581
C   C47       1.0  0.17760  0.93310  0.40563  1.0000 0.6145931963
C   C48       1.0  0.82240  0.06690  0.59437  1.0000 0.6145931963
N   N1        1.0  0.07140  0.57770  0.50935  1.0000 -0.3022581008
N   N2        1.0  0.92860  0.42230  0.49065  1.0000 -0.3022581008
N   N3        1.0  0.35650  0.83350  0.47182  1.0000 -0.3022581008
N   N4        1.0  0.64350  0.16650  0.52818  1.0000 -0.3022581008
N   N5        1.0  0.00060  0.83580  0.02209  1.0000 -0.3082666066
N   N6        1.0  0.99940  0.16420  0.97791  1.0000 -0.3082666066
N   N7        1.0  0.69640  0.92360  0.05561  1.0000 -0.2388149094
N   N8        1.0  0.30360  0.07640  0.94439  1.0000 -0.2388149094
N   N9        1.0  0.62160  0.91370  0.43163  1.0000 -0.2388149094
N   N10       1.0  0.37840  0.08630  0.56837  1.0000 -0.2388149094
N   N11       1.0  0.40060  0.58260  0.98907  1.0000 -0.3082666066
N   N12       1.0  0.59940  0.41740  0.01093  1.0000 -0.3082666066
O   O1        1.0  0.21560  0.67570  0.07924  1.0000 -0.6066912231
O   O2        1.0  0.78440  0.32430  0.92076  1.0000 -0.6066912231
O   O3        1.0  0.02330  0.61530  0.26342  1.0000 -0.8677823958
O   O4        1.0  0.97670  0.38470  0.73658  1.0000 -0.8677823958
O   O5        1.0  0.18570  0.54260  0.13631  1.0000 -0.6168931243
O   O6        1.0  0.81430  0.45740  0.86369  1.0000 -0.6168931243
O   O7        1.0  0.09350  0.37940  0.19628  1.0000 -0.8551387307
O   O8        1.0  0.90650  0.62060  0.80372  1.0000 -0.8551387307
O   O9        1.0  0.39480  0.60620  0.23224  1.0000 -0.8677823958
O   O10       1.0  0.60520  0.39380  0.76776  1.0000 -0.8677823958
O   O11       1.0  0.43830  0.41980  0.17464  1.0000 -0.6469069537
O   O12       1.0  0.56170  0.58020  0.82536  1.0000 -0.6469069537
O   O13       1.0  0.36060  0.34730  0.30224  1.0000 -0.8509640512
O   O14       1.0  0.63940  0.65270  0.69776  1.0000 -0.8509640512
O   O15       1.0  0.58680  0.30670  0.11474  1.0000 -0.588097867
O   O16       1.0  0.41320  0.69330  0.88526  1.0000 -0.588097867
O   O17       1.0  0.34510  0.14960  0.17418  1.0000 -0.8228521761
O   O18       1.0  0.65490  0.85040  0.82582  1.0000 -0.8228521761
O   O19       1.0  0.06500  0.68820  0.94271  1.0000 -0.6168931243
O   O20       1.0  0.93500  0.31180  0.05729  1.0000 -0.6168931243
O   O21       1.0  0.02950  0.16240  0.19408  1.0000 -0.8399904337
O   O22       1.0  0.97050  0.83760  0.80592  1.0000 -0.8399904337
O   O23       1.0  0.80890  0.69510  0.92119  1.0000 -0.5160243925
O   O24       1.0  0.19110  0.30490  0.07881  1.0000 -0.5160243925
O   O25       1.0  0.19540  0.17260  0.30946  1.0000 -0.8509640512
O   O26       1.0  0.80460  0.82740  0.69054  1.0000 -0.8509640512
O   O27       1.0  0.25490  0.89120  0.06385  1.0000 -0.5807519274
O   O28       1.0  0.74510  0.10880  0.93615  1.0000 -0.5807519274
O   O29       1.0  0.43870  0.94500  0.17100  1.0000 -0.8399904337
O   O30       1.0  0.56130  0.05500  0.82900  1.0000 -0.8399904337
O   O31       1.0  0.10980  0.98930  0.13775  1.0000 -0.6469069537
O   O32       1.0  0.89020  0.01070  0.86225  1.0000 -0.6469069537
O   O33       1.0  0.14380  0.88250  0.59091  1.0000 -0.8340758052
O   O34       1.0  0.85620  0.11750  0.40909  1.0000 -0.8340758052
O   O35       1.0  0.53060  0.74430  0.03041  1.0000 -0.5807519274
O   O36       1.0  0.46940  0.25570  0.96959  1.0000 -0.5807519274
O   O37       1.0  0.49750  0.85570  0.95153  1.0000 -0.588097867
O   O38       1.0  0.50250  0.14430  0.04847  1.0000 -0.588097867
O   O39       1.0  0.83010  0.12100  0.09551  1.0000 -0.6276750283
O   O40       1.0  0.16990  0.87900  0.90449  1.0000 -0.6276750283
O   O41       1.0  0.70210  0.03900  0.17163  1.0000 -0.493909311
O   O42       1.0  0.29790  0.96100  0.82837  1.0000 -0.493909311
O   O43       1.0  0.27850  0.53620  0.35698  1.0000 -0.6276750283
O   O44       1.0  0.72150  0.46380  0.64302  1.0000 -0.6276750283
O   O45       1.0  0.22460  0.66600  0.41849  1.0000 -0.6066912231
O   O46       1.0  0.77540  0.33400  0.58151  1.0000 -0.6066912231
O   O47       1.0  0.03320  0.68110  0.61352  1.0000 -0.5807519274
O   O48       1.0  0.96680  0.31890  0.38648  1.0000 -0.5807519274
O   O49       1.0  0.96210  0.56030  0.67619  1.0000 -0.6386030432
O   O50       1.0  0.03790  0.43970  0.32381  1.0000 -0.6386030432
O   O51       1.0  0.44550  0.00390  0.29744  1.0000 -0.6386030432
O   O52       1.0  0.55450  0.99610  0.70256  1.0000 -0.6386030432
O   O53       1.0  0.55760  0.09200  0.36598  1.0000 -0.5317899999
O   O54       1.0  0.44240  0.90800  0.63402  1.0000 -0.5317899999
O   O55       1.0  0.14930  0.00050  0.36364  1.0000 -0.6386030432
O   O56       1.0  0.85070  0.99950  0.63636  1.0000 -0.6386030432
O   O57       1.0  0.22320  0.86050  0.25715  1.0000 -0.7455929634
O   O58       1.0  0.77680  0.13950  0.74285  1.0000 -0.7447453853
O   O59       1.0  0.07670  0.88650  0.43284  1.0000 -0.5693495985
O   O60       1.0  0.92330  0.11350  0.56716  1.0000 -0.5693495985
O   O61       1.0  0.93920  0.00530  0.26840  1.0000 -0.8340758052
O   O62       1.0  0.06080  0.99470  0.73160  1.0000 -0.8340758052
O   O63       1.0  0.36180  0.69060  0.55860  1.0000 -0.6276750283
O   O64       1.0  0.63820  0.30940  0.44140  1.0000 -0.6276750283
O   O65       1.0  0.62440  0.68120  0.56684  1.0000 -0.5160243925
O   O66       1.0  0.37560  0.31880  0.43316  1.0000 -0.5160243925
O   O67       1.0  0.84570  0.84050  0.54451  1.0000 -0.557061207
O   O68       1.0  0.15430  0.15950  0.45549  1.0000 -0.557061207
O   O69       1.0  0.87610  0.74110  0.45989  1.0000 -0.6026552137
O   O70       1.0  0.12390  0.25890  0.54011  1.0000 -0.6026552137
