# DDEC6 charges by PACMAN v1.1 (https://github.com/mtap-research/PACMAN-charge/)
data_2015[Zn][pts]3[FSR]1
_chemical_formula_sum              "Zn8 H40 C56 N8 O24"
_cell_length_a       6.2418
_cell_length_b       15.9827
_cell_length_c       16.3994
_cell_angle_alpha    90
_cell_angle_beta     90
_cell_angle_gamma    90

_symmetry_space_group_name_H-M    "P 1"
_symmetry_Int_Tables_number       1

loop_
  _symmetry_equiv_pos_as_xyz
  'x, y, z'

loop_
  _atom_site_type_symbol
  _atom_site_label
  _atom_site_symmetry_multiplicity
  _atom_site_fract_x
  _atom_site_fract_y
  _atom_site_fract_z
  _atom_site_occupancy
  _atom_site_charge
Zn  Zn1       1.0  0.95446  0.89522  0.64911  1.0000 0.8318943942
Zn  Zn2       1.0  0.95446  0.10478  0.35089  1.0000 0.8318943942
Zn  Zn3       1.0  0.95446  0.39522  0.85089  1.0000 0.8318943942
Zn  Zn4       1.0  0.95446  0.60478  0.14911  1.0000 0.8318943942
Zn  Zn5       1.0  0.45540  0.84513  0.59721  1.0000 0.8318943942
Zn  Zn6       1.0  0.45540  0.15487  0.40279  1.0000 0.8318943942
Zn  Zn7       1.0  0.45540  0.34513  0.90279  1.0000 0.8318943942
Zn  Zn8       1.0  0.45540  0.65487  0.09721  1.0000 0.8318943942
H   H1        1.0  0.28890  0.04600  0.57560  1.0000 0.1122820435
H   H2        1.0  0.28890  0.95400  0.42440  1.0000 0.1122820435
H   H3        1.0  0.28890  0.54600  0.92440  1.0000 0.1122820435
H   H4        1.0  0.28890  0.45400  0.07560  1.0000 0.1122820435
H   H5        1.0  0.45090  0.00960  0.63960  1.0000 0.1122820435
H   H6        1.0  0.45090  0.99040  0.36040  1.0000 0.1122820435
H   H7        1.0  0.45090  0.50960  0.86040  1.0000 0.1122820435
H   H8        1.0  0.45090  0.49040  0.13960  1.0000 0.1122820435
H   H9        1.0  0.38060  0.13800  0.73000  1.0000 0.1334263237
H   H10       1.0  0.38060  0.86200  0.27000  1.0000 0.1334263237
H   H11       1.0  0.38060  0.63800  0.77000  1.0000 0.1334263237
H   H12       1.0  0.38060  0.36200  0.23000  1.0000 0.1334263237
H   H13       1.0  0.81370  0.14100  0.84550  1.0000 0.1484309455
H   H14       1.0  0.81370  0.85900  0.15450  1.0000 0.1484309455
H   H15       1.0  0.81370  0.64100  0.65450  1.0000 0.1484309455
H   H16       1.0  0.81370  0.35900  0.34550  1.0000 0.1484309455
H   H17       1.0  0.71670  0.02410  0.77210  1.0000 0.1122820435
H   H18       1.0  0.71670  0.97590  0.22790  1.0000 0.1122820435
H   H19       1.0  0.71670  0.52410  0.72790  1.0000 0.1122820435
H   H20       1.0  0.71670  0.47590  0.27210  1.0000 0.1122820435
H   H21       1.0  0.95100  0.86380  0.48470  1.0000 0.1122820435
H   H22       1.0  0.95100  0.13620  0.51530  1.0000 0.1122820435
H   H23       1.0  0.95100  0.36380  0.01530  1.0000 0.1122820435
H   H24       1.0  0.95100  0.63620  0.98470  1.0000 0.1122820435
H   H25       1.0  0.78840  0.93190  0.45450  1.0000 0.1122820435
H   H26       1.0  0.78840  0.06810  0.54550  1.0000 0.1122820435
H   H27       1.0  0.78840  0.43190  0.04550  1.0000 0.1122820435
H   H28       1.0  0.78840  0.56810  0.95450  1.0000 0.1122820435
H   H29       1.0  0.87360  0.78340  0.35190  1.0000 0.1334263237
H   H30       1.0  0.87360  0.21660  0.64810  1.0000 0.1334263237
H   H31       1.0  0.87360  0.28340  0.14810  1.0000 0.1334263237
H   H32       1.0  0.87360  0.71660  0.85190  1.0000 0.1334263237
H   H33       1.0  0.31350  0.65950  0.34730  1.0000 0.1484309455
H   H34       1.0  0.31350  0.34050  0.65270  1.0000 0.1484309455
H   H35       1.0  0.31350  0.15950  0.15270  1.0000 0.1484309455
H   H36       1.0  0.31350  0.84050  0.84730  1.0000 0.1484309455
H   H37       1.0  0.21670  0.72930  0.46470  1.0000 0.1122820435
H   H38       1.0  0.21670  0.27070  0.53530  1.0000 0.1122820435
H   H39       1.0  0.21670  0.22930  0.03530  1.0000 0.1122820435
H   H40       1.0  0.21670  0.77070  0.96470  1.0000 0.1122820435
C   C1        1.0  0.30120  0.01100  0.62370  1.0000 -0.0870774228
C   C2        1.0  0.30120  0.98900  0.37630  1.0000 -0.0870774228
C   C3        1.0  0.30120  0.51100  0.87630  1.0000 -0.0870774228
C   C4        1.0  0.30120  0.48900  0.12370  1.0000 -0.0870774228
C   C5        1.0  0.17020  0.04870  0.69220  1.0000 0.2272143552
C   C6        1.0  0.17020  0.95130  0.30780  1.0000 0.2272143552
C   C7        1.0  0.17020  0.54870  0.80780  1.0000 0.2272143552
C   C8        1.0  0.17020  0.45130  0.19220  1.0000 0.2272143552
C   C9        1.0  0.24460  0.11610  0.73890  1.0000 -0.2109993247
C   C10       1.0  0.24460  0.88390  0.26110  1.0000 -0.2109993247
C   C11       1.0  0.24460  0.61610  0.76110  1.0000 -0.2109993247
C   C12       1.0  0.24460  0.38390  0.23890  1.0000 -0.2109993247
C   C13       1.0  0.11410  0.14930  0.79800  1.0000 0.0407484846
C   C14       1.0  0.11410  0.85070  0.20200  1.0000 0.0407484846
C   C15       1.0  0.11410  0.64930  0.70200  1.0000 0.0407484846
C   C16       1.0  0.11410  0.35070  0.29800  1.0000 0.0407484846
C   C17       1.0  0.90860  0.11690  0.80860  1.0000 -0.1547293997
C   C18       1.0  0.90860  0.88310  0.19140  1.0000 -0.1573170161
C   C19       1.0  0.90860  0.61690  0.69140  1.0000 -0.1547293997
C   C20       1.0  0.90860  0.38310  0.30860  1.0000 -0.1573170161
C   C21       1.0  0.85020  0.04820  0.76300  1.0000 0.0698071031
C   C22       1.0  0.85020  0.95180  0.23700  1.0000 0.0698071031
C   C23       1.0  0.85020  0.54820  0.73700  1.0000 0.0698071031
C   C24       1.0  0.85020  0.45180  0.26300  1.0000 0.0698071031
C   C25       1.0  0.19160  0.22140  0.85030  1.0000 0.5614668914
C   C26       1.0  0.19160  0.77860  0.14970  1.0000 0.5614668914
C   C27       1.0  0.19160  0.72140  0.64970  1.0000 0.5614668914
C   C28       1.0  0.19160  0.27860  0.35030  1.0000 0.5614668914
C   C29       1.0  0.80130  0.88010  0.48500  1.0000 -0.0870774228
C   C30       1.0  0.80130  0.11990  0.51500  1.0000 -0.0870774228
C   C31       1.0  0.80130  0.38010  0.01500  1.0000 -0.0870774228
C   C32       1.0  0.80130  0.61990  0.98500  1.0000 -0.0870774228
C   C33       1.0  0.67030  0.81320  0.44390  1.0000 0.220899217
C   C34       1.0  0.67030  0.18680  0.55610  1.0000 0.220899217
C   C35       1.0  0.67030  0.31320  0.05610  1.0000 0.220899217
C   C36       1.0  0.67030  0.68680  0.94390  1.0000 0.220899217
C   C37       1.0  0.74020  0.77150  0.37420  1.0000 -0.2109993247
C   C38       1.0  0.74020  0.22850  0.62580  1.0000 -0.2109993247
C   C39       1.0  0.74020  0.27150  0.12580  1.0000 -0.2109993247
C   C40       1.0  0.74020  0.72850  0.87420  1.0000 -0.2109993247
C   C41       1.0  0.60930  0.71240  0.33890  1.0000 0.0407484846
C   C42       1.0  0.60930  0.28760  0.66110  1.0000 0.0407484846
C   C43       1.0  0.60930  0.21240  0.16110  1.0000 0.0407484846
C   C44       1.0  0.60930  0.78760  0.83890  1.0000 0.0407484846
C   C45       1.0  0.40710  0.69730  0.37180  1.0000 -0.1573170161
C   C46       1.0  0.40710  0.30270  0.62820  1.0000 -0.1573170161
C   C47       1.0  0.40710  0.19730  0.12820  1.0000 -0.1573170161
C   C48       1.0  0.40710  0.80270  0.87180  1.0000 -0.1573170161
C   C49       1.0  0.35000  0.73990  0.44160  1.0000 0.0698071031
C   C50       1.0  0.35000  0.26010  0.55840  1.0000 0.0698071031
C   C51       1.0  0.35000  0.23990  0.05840  1.0000 0.0698071031
C   C52       1.0  0.35000  0.76010  0.94160  1.0000 0.0698071031
C   C53       1.0  0.68740  0.66260  0.26610  1.0000 0.5614668914
C   C54       1.0  0.68740  0.33740  0.73390  1.0000 0.5614668914
C   C55       1.0  0.68740  0.16260  0.23390  1.0000 0.5614668914
C   C56       1.0  0.68740  0.83740  0.76610  1.0000 0.5614668914
N   N1        1.0  0.97870  0.01468  0.70583  1.0000 -0.2756399473
N   N2        1.0  0.97870  0.98532  0.29417  1.0000 -0.2756399473
N   N3        1.0  0.97870  0.51468  0.79417  1.0000 -0.2756399473
N   N4        1.0  0.97870  0.48532  0.20583  1.0000 -0.2756399473
N   N5        1.0  0.47880  0.79597  0.47756  1.0000 -0.2756399473
N   N6        1.0  0.47880  0.20403  0.52244  1.0000 -0.2756399473
N   N7        1.0  0.47880  0.29597  0.02244  1.0000 -0.2756399473
N   N8        1.0  0.47880  0.70403  0.97756  1.0000 -0.2756399473
O   O1        1.0  0.23350  0.92960  0.60448  1.0000 -0.5326489246
O   O2        1.0  0.23350  0.07040  0.39552  1.0000 -0.5326489246
O   O3        1.0  0.23350  0.42960  0.89552  1.0000 -0.5326489246
O   O4        1.0  0.23350  0.57040  0.10448  1.0000 -0.5326489246
O   O5        1.0  0.39050  0.23670  0.84740  1.0000 -0.5326489246
O   O6        1.0  0.39050  0.76330  0.15260  1.0000 -0.5326489246
O   O7        1.0  0.39050  0.73670  0.65260  1.0000 -0.5326489246
O   O8        1.0  0.39050  0.26330  0.34740  1.0000 -0.5326489246
O   O9        1.0  0.06090  0.26130  0.89156  1.0000 -0.5509924031
O   O10       1.0  0.06090  0.73870  0.10844  1.0000 -0.5509924031
O   O11       1.0  0.06090  0.76130  0.60844  1.0000 -0.5509924031
O   O12       1.0  0.06090  0.23870  0.39156  1.0000 -0.5509924031
O   O13       1.0  0.73460  0.89376  0.56608  1.0000 -0.5326489246
O   O14       1.0  0.73460  0.10624  0.43392  1.0000 -0.5326489246
O   O15       1.0  0.73460  0.39376  0.93392  1.0000 -0.5326489246
O   O16       1.0  0.73460  0.60624  0.06608  1.0000 -0.5326489246
O   O17       1.0  0.88590  0.66730  0.25050  1.0000 -0.5326489246
O   O18       1.0  0.88590  0.33270  0.74950  1.0000 -0.5326489246
O   O19       1.0  0.88590  0.16730  0.24950  1.0000 -0.5326489246
O   O20       1.0  0.88590  0.83270  0.75050  1.0000 -0.5326489246
O   O21       1.0  0.55780  0.61890  0.22806  1.0000 -0.5509924031
O   O22       1.0  0.55780  0.38110  0.77194  1.0000 -0.5509924031
O   O23       1.0  0.55780  0.11890  0.27194  1.0000 -0.5509924031
O   O24       1.0  0.55780  0.88110  0.72806  1.0000 -0.5509924031
