# DDEC6 charges by PACMAN v1.1 (https://github.com/mtap-research/PACMAN-charge/)
data_2015[Ag][nan]3[FSR]1
_chemical_formula_sum              "Ag16 H336 C240 N96"
_cell_length_a       21.725
_cell_length_b       21.725
_cell_length_c       21.725
_cell_angle_alpha    114.885
_cell_angle_beta     114.885
_cell_angle_gamma    99.1136

_symmetry_space_group_name_H-M    "P 1"
_symmetry_Int_Tables_number       1

loop_
  _symmetry_equiv_pos_as_xyz
  'x, y, z'

loop_
  _atom_site_type_symbol
  _atom_site_label
  _atom_site_symmetry_multiplicity
  _atom_site_fract_x
  _atom_site_fract_y
  _atom_site_fract_z
  _atom_site_occupancy
  _atom_site_charge
Ag  Ag1       1.0  0.85153  0.15549  0.81008  1.0000 0.2223552476
Ag  Ag2       1.0  0.90549  0.59541  0.80396  1.0000 0.2223552476
Ag  Ag3       1.0  0.39847  0.70855  0.80396  1.0000 0.2223552476
Ag  Ag4       1.0  0.34541  0.04145  0.18992  1.0000 0.2223552476
Ag  Ag5       1.0  0.34451  0.64847  0.18992  1.0000 0.2223552476
Ag  Ag6       1.0  0.45855  0.15459  0.81008  1.0000 0.2223552476
Ag  Ag7       1.0  0.79145  0.10153  0.19604  1.0000 0.2223552476
Ag  Ag8       1.0  0.90459  0.59451  0.19604  1.0000 0.2223552476
Ag  Ag9       1.0  0.89847  0.09451  0.68992  1.0000 0.2223552476
Ag  Ag10      1.0  0.84451  0.65459  0.69604  1.0000 0.2223552476
Ag  Ag11      1.0  0.35153  0.54145  0.69604  1.0000 0.2223552476
Ag  Ag12      1.0  0.40459  0.20855  0.31008  1.0000 0.2223552476
Ag  Ag13      1.0  0.40549  0.60153  0.31008  1.0000 0.2223552476
Ag  Ag14      1.0  0.29145  0.09541  0.68992  1.0000 0.2223552476
Ag  Ag15      1.0  0.95855  0.14847  0.30396  1.0000 0.2223552476
Ag  Ag16      1.0  0.84541  0.65549  0.30396  1.0000 0.2223552476
H   H1        1.0  0.61850  0.88160  0.58270  1.0000 0.1327339202
H   H2        1.0  0.63160  0.54890  0.76310  1.0000 0.1327339202
H   H3        1.0  0.63150  0.71420  0.76310  1.0000 0.1327339202
H   H4        1.0  0.29890  0.03580  0.41730  1.0000 0.1327339202
H   H5        1.0  0.61840  0.88150  0.41730  1.0000 0.1327339202
H   H6        1.0  0.46420  0.20110  0.58270  1.0000 0.1327339202
H   H7        1.0  0.78580  0.86850  0.23690  1.0000 0.1327339202
H   H8        1.0  0.95110  0.86840  0.23690  1.0000 0.1327339202
H   H9        1.0  0.13150  0.36840  0.91730  1.0000 0.1327339202
H   H10       1.0  0.11840  0.70110  0.73690  1.0000 0.1327339202
H   H11       1.0  0.11850  0.53580  0.73690  1.0000 0.1327339202
H   H12       1.0  0.45110  0.21420  0.08270  1.0000 0.1327339202
H   H13       1.0  0.13160  0.36850  0.08270  1.0000 0.1327339202
H   H14       1.0  0.28580  0.04890  0.91730  1.0000 0.1327339202
H   H15       1.0  0.96420  0.38150  0.26310  1.0000 0.1327339202
H   H16       1.0  0.79890  0.38160  0.26310  1.0000 0.1327339202
H   H17       1.0  0.63690  0.83500  0.62150  1.0000 0.1426888437
H   H18       1.0  0.58500  0.46350  0.69810  1.0000 0.1426888437
H   H19       1.0  0.61310  0.73460  0.69810  1.0000 0.1426888437
H   H20       1.0  0.21350  0.01540  0.37850  1.0000 0.1426888437
H   H21       1.0  0.66500  0.86310  0.37850  1.0000 0.1426888437
H   H22       1.0  0.48460  0.28650  0.62150  1.0000 0.1426888437
H   H23       1.0  0.76540  0.88690  0.30190  1.0000 0.1426888437
H   H24       1.0  0.03650  0.91500  0.30190  1.0000 0.1426888437
H   H25       1.0  0.11310  0.41500  0.87850  1.0000 0.1426888437
H   H26       1.0  0.16500  0.78650  0.80190  1.0000 0.1426888437
H   H27       1.0  0.13690  0.51540  0.80190  1.0000 0.1426888437
H   H28       1.0  0.53650  0.23460  0.12150  1.0000 0.1426888437
H   H29       1.0  0.08500  0.38690  0.12150  1.0000 0.1426888437
H   H30       1.0  0.26540  0.96350  0.87850  1.0000 0.1426888437
H   H31       1.0  0.98460  0.36310  0.19810  1.0000 0.1426888437
H   H32       1.0  0.71350  0.33500  0.19810  1.0000 0.1426888437
H   H33       1.0  0.65270  0.82530  0.55460  1.0000 0.148334112
H   H34       1.0  0.57530  0.52070  0.67260  1.0000 0.148334112
H   H35       1.0  0.59730  0.65190  0.67260  1.0000 0.148334112
H   H36       1.0  0.27070  0.09810  0.44540  1.0000 0.148334112
H   H37       1.0  0.67470  0.84730  0.44540  1.0000 0.148334112
H   H38       1.0  0.40190  0.22930  0.55460  1.0000 0.148334112
H   H39       1.0  0.84810  0.90270  0.32740  1.0000 0.148334112
H   H40       1.0  0.97930  0.92470  0.32740  1.0000 0.148334112
H   H41       1.0  0.09730  0.42470  0.94540  1.0000 0.148334112
H   H42       1.0  0.17470  0.72930  0.82740  1.0000 0.148334112
H   H43       1.0  0.15270  0.59810  0.82740  1.0000 0.148334112
H   H44       1.0  0.47930  0.15190  0.05460  1.0000 0.148334112
H   H45       1.0  0.07530  0.40270  0.05460  1.0000 0.148334112
H   H46       1.0  0.34810  0.02070  0.94540  1.0000 0.148334112
H   H47       1.0  0.90190  0.34730  0.17260  1.0000 0.148334112
H   H48       1.0  0.77070  0.32530  0.17260  1.0000 0.148334112
H   H49       1.0  0.95440  0.06170  0.83410  1.0000 0.1243842869
H   H50       1.0  0.81170  0.47760  0.60730  1.0000 0.1243842869
H   H51       1.0  0.29560  0.62970  0.60730  1.0000 0.1243842869
H   H52       1.0  0.22760  0.12030  0.16590  1.0000 0.1243842869
H   H53       1.0  0.43830  0.54560  0.16590  1.0000 0.1243842869
H   H54       1.0  0.37970  0.27240  0.83410  1.0000 0.1243842869
H   H55       1.0  0.87030  0.20440  0.39270  1.0000 0.1243842869
H   H56       1.0  0.02240  0.68830  0.39270  1.0000 0.1243842869
H   H57       1.0  0.79560  0.18830  0.66590  1.0000 0.1243842869
H   H58       1.0  0.93830  0.77240  0.89270  1.0000 0.1243842869
H   H59       1.0  0.45440  0.62030  0.89270  1.0000 0.1243842869
H   H60       1.0  0.52240  0.12970  0.33410  1.0000 0.1243842869
H   H61       1.0  0.31170  0.70440  0.33410  1.0000 0.1243842869
H   H62       1.0  0.37030  0.97760  0.66590  1.0000 0.1243842869
H   H63       1.0  0.87970  0.04560  0.10730  1.0000 0.1243842869
H   H64       1.0  0.72760  0.56170  0.10730  1.0000 0.1243842869
H   H65       1.0  0.94210  0.98350  0.82240  1.0000 0.148334112
H   H66       1.0  0.73350  0.41110  0.54140  1.0000 0.148334112
H   H67       1.0  0.30790  0.63030  0.54140  1.0000 0.148334112
H   H68       1.0  0.16110  0.11970  0.17760  1.0000 0.148334112
H   H69       1.0  0.51650  0.55790  0.17760  1.0000 0.148334112
H   H70       1.0  0.38030  0.33890  0.82240  1.0000 0.148334112
H   H71       1.0  0.86970  0.19210  0.45860  1.0000 0.148334112
H   H72       1.0  0.08890  0.76650  0.45860  1.0000 0.148334112
H   H73       1.0  0.80790  0.26650  0.67760  1.0000 0.148334112
H   H74       1.0  0.01650  0.83890  0.95860  1.0000 0.148334112
H   H75       1.0  0.44210  0.61970  0.95860  1.0000 0.148334112
H   H76       1.0  0.58890  0.13030  0.32240  1.0000 0.148334112
H   H77       1.0  0.23350  0.69210  0.32240  1.0000 0.148334112
H   H78       1.0  0.36970  0.91110  0.67760  1.0000 0.148334112
H   H79       1.0  0.88030  0.05790  0.04140  1.0000 0.148334112
H   H80       1.0  0.66110  0.48350  0.04140  1.0000 0.148334112
H   H81       1.0  0.92670  0.04080  0.88150  1.0000 0.148334112
H   H82       1.0  0.79080  0.40930  0.61410  1.0000 0.148334112
H   H83       1.0  0.32330  0.70480  0.61410  1.0000 0.148334112
H   H84       1.0  0.15930  0.04520  0.11850  1.0000 0.148334112
H   H85       1.0  0.45920  0.57330  0.11850  1.0000 0.148334112
H   H86       1.0  0.45480  0.34070  0.88150  1.0000 0.148334112
H   H87       1.0  0.79520  0.17670  0.38590  1.0000 0.148334112
H   H88       1.0  0.09070  0.70920  0.38590  1.0000 0.148334112
H   H89       1.0  0.82330  0.20920  0.61850  1.0000 0.148334112
H   H90       1.0  0.95920  0.84070  0.88590  1.0000 0.148334112
H   H91       1.0  0.42670  0.54520  0.88590  1.0000 0.148334112
H   H92       1.0  0.59070  0.20480  0.38150  1.0000 0.148334112
H   H93       1.0  0.29080  0.67670  0.38150  1.0000 0.148334112
H   H94       1.0  0.29520  0.90930  0.61850  1.0000 0.148334112
H   H95       1.0  0.95480  0.07330  0.11410  1.0000 0.148334112
H   H96       1.0  0.65930  0.54080  0.11410  1.0000 0.148334112
H   H97       1.0  0.86060  0.81360  0.64200  1.0000 0.1426888437
H   H98       1.0  0.56360  0.42160  0.45300  1.0000 0.1426888437
H   H99       1.0  0.38940  0.53140  0.45300  1.0000 0.1426888437
H   H100      1.0  0.17160  0.21860  0.35800  1.0000 0.1426888437
H   H101      1.0  0.68640  0.63940  0.35800  1.0000 0.1426888437
H   H102      1.0  0.28140  0.32840  0.64200  1.0000 0.1426888437
H   H103      1.0  0.96860  0.11060  0.54700  1.0000 0.1426888437
H   H104      1.0  0.07840  0.93640  0.54700  1.0000 0.1426888437
H   H105      1.0  0.88940  0.43640  0.85800  1.0000 0.1426888437
H   H106      1.0  0.18640  0.82840  0.04700  1.0000 0.1426888437
H   H107      1.0  0.36060  0.71860  0.04700  1.0000 0.1426888437
H   H108      1.0  0.57840  0.03140  0.14200  1.0000 0.1426888437
H   H109      1.0  0.06360  0.61060  0.14200  1.0000 0.1426888437
H   H110      1.0  0.46860  0.92160  0.85800  1.0000 0.1426888437
H   H111      1.0  0.78140  0.13940  0.95300  1.0000 0.1426888437
H   H112      1.0  0.67160  0.31360  0.95300  1.0000 0.1426888437
H   H113      1.0  0.77410  0.77480  0.58170  1.0000 0.1426888437
H   H114      1.0  0.52480  0.44310  0.50070  1.0000 0.1426888437
H   H115      1.0  0.47590  0.55760  0.50070  1.0000 0.1426888437
H   H116      1.0  0.19310  0.19240  0.41830  1.0000 0.1426888437
H   H117      1.0  0.72520  0.72590  0.41830  1.0000 0.1426888437
H   H118      1.0  0.30760  0.30690  0.58170  1.0000 0.1426888437
H   H119      1.0  0.94240  0.02410  0.49930  1.0000 0.1426888437
H   H120      1.0  0.05690  0.97520  0.49930  1.0000 0.148334112
H   H121      1.0  0.97590  0.47520  0.91830  1.0000 0.1426888437
H   H122      1.0  0.22520  0.80690  0.99930  1.0000 0.1426888437
H   H123      1.0  0.27410  0.69240  0.99930  1.0000 0.1426888437
H   H124      1.0  0.55690  0.05760  0.08170  1.0000 0.1426888437
H   H125      1.0  0.02480  0.52410  0.08170  1.0000 0.1426888437
H   H126      1.0  0.44240  0.94310  0.91830  1.0000 0.1426888437
H   H127      1.0  0.80760  0.22590  0.00070  1.0000 0.1426888437
H   H128      1.0  0.69310  0.27480  0.00070  1.0000 0.1426888437
H   H129      1.0  0.81780  0.72930  0.60530  1.0000 0.1327339202
H   H130      1.0  0.47930  0.37400  0.41150  1.0000 0.1327339202
H   H131      1.0  0.43220  0.53750  0.41150  1.0000 0.1327339202
H   H132      1.0  0.12400  0.21250  0.39470  1.0000 0.1327339202
H   H133      1.0  0.77070  0.68220  0.39470  1.0000 0.1327339202
H   H134      1.0  0.28750  0.37600  0.60530  1.0000 0.1327339202
H   H135      1.0  0.96250  0.06780  0.58850  1.0000 0.1327339202
H   H136      1.0  0.12600  0.02070  0.58850  1.0000 0.1327339202
H   H137      1.0  0.93220  0.52070  0.89470  1.0000 0.1327339202
H   H138      1.0  0.27070  0.87600  0.08850  1.0000 0.1327339202
H   H139      1.0  0.31780  0.71250  0.08850  1.0000 0.1327339202
H   H140      1.0  0.62600  0.03750  0.10530  1.0000 0.1327339202
H   H141      1.0  0.97930  0.56780  0.10530  1.0000 0.1327339202
H   H142      1.0  0.46250  0.87400  0.89470  1.0000 0.1327339202
H   H143      1.0  0.78750  0.18220  0.91150  1.0000 0.1327339202
H   H144      1.0  0.62400  0.22930  0.91150  1.0000 0.1327339202
H   H145      1.0  0.74140  0.91690  0.83730  1.0000 0.148334112
H   H146      1.0  0.66690  0.32960  0.67550  1.0000 0.148334112
H   H147      1.0  0.50860  0.84590  0.67550  1.0000 0.148334112
H   H148      1.0  0.07960  0.90410  0.16270  1.0000 0.148334112
H   H149      1.0  0.58310  0.75860  0.16270  1.0000 0.148334112
H   H150      1.0  0.59590  0.42040  0.83730  1.0000 0.148334112
H   H151      1.0  0.65410  0.99140  0.32450  1.0000 0.148334112
H   H152      1.0  0.17040  0.83310  0.32450  1.0000 0.148334112
H   H153      1.0  0.00860  0.33310  0.66270  1.0000 0.148334112
H   H154      1.0  0.08310  0.92040  0.82450  1.0000 0.148334112
H   H155      1.0  0.24140  0.40410  0.82450  1.0000 0.148334112
H   H156      1.0  0.67040  0.34590  0.33730  1.0000 0.148334112
H   H157      1.0  0.16690  0.49140  0.33730  1.0000 0.148334112
H   H158      1.0  0.15410  0.82960  0.66270  1.0000 0.148334112
H   H159      1.0  0.09590  0.25860  0.17550  1.0000 0.148334112
H   H160      1.0  0.57960  0.41690  0.17550  1.0000 0.148334112
H   H161      1.0  0.82730  0.94990  0.89900  1.0000 0.148334112
H   H162      1.0  0.69990  0.30090  0.62260  1.0000 0.148334112
H   H163      1.0  0.42270  0.82170  0.62260  1.0000 0.148334112
H   H164      1.0  0.05090  0.92830  0.10100  1.0000 0.148334112
H   H165      1.0  0.55010  0.67270  0.10100  1.0000 0.148334112
H   H166      1.0  0.57170  0.44910  0.89900  1.0000 0.148334112
H   H167      1.0  0.67830  0.07730  0.37740  1.0000 0.148334112
H   H168      1.0  0.19910  0.80010  0.37740  1.0000 0.148334112
H   H169      1.0  0.92270  0.30010  0.60100  1.0000 0.148334112
H   H170      1.0  0.05010  0.94910  0.87740  1.0000 0.148334112
H   H171      1.0  0.32730  0.42830  0.87740  1.0000 0.148334112
H   H172      1.0  0.69910  0.32170  0.39900  1.0000 0.148334112
H   H173      1.0  0.19990  0.57730  0.39900  1.0000 0.148334112
H   H174      1.0  0.17830  0.80090  0.60100  1.0000 0.148334112
H   H175      1.0  0.07170  0.17270  0.12260  1.0000 0.148334112
H   H176      1.0  0.55090  0.44990  0.12260  1.0000 0.148334112
H   H177      1.0  0.77440  0.88090  0.88550  1.0000 0.1426888437
H   H178      1.0  0.63090  0.24540  0.60650  1.0000 0.1426888437
H   H179      1.0  0.47560  0.86110  0.60650  1.0000 0.1426888437
H   H180      1.0  0.99540  0.88890  0.11450  1.0000 0.1426888437
H   H181      1.0  0.61910  0.72560  0.11450  1.0000 0.1426888437
H   H182      1.0  0.61110  0.50460  0.88550  1.0000 0.1426888437
H   H183      1.0  0.63890  0.02440  0.39350  1.0000 0.1426888437
H   H184      1.0  0.25460  0.86910  0.39350  1.0000 0.1426888437
H   H185      1.0  0.97560  0.36910  0.61450  1.0000 0.1426888437
H   H186      1.0  0.11910  0.00460  0.89350  1.0000 0.1426888437
H   H187      1.0  0.27440  0.38890  0.89350  1.0000 0.1426888437
H   H188      1.0  0.75460  0.36110  0.38550  1.0000 0.1426888437
H   H189      1.0  0.13090  0.52440  0.38550  1.0000 0.1426888437
H   H190      1.0  0.13890  0.74540  0.61450  1.0000 0.1426888437
H   H191      1.0  0.11110  0.22560  0.10650  1.0000 0.1426888437
H   H192      1.0  0.49540  0.38090  0.10650  1.0000 0.1426888437
H   H193      1.0  0.62210  0.29480  0.74750  1.0000 0.148334112
H   H194      1.0  0.04480  0.79730  0.17270  1.0000 0.148334112
H   H195      1.0  0.62790  0.87540  0.17270  1.0000 0.148334112
H   H196      1.0  0.54730  0.87460  0.25250  1.0000 0.148334112
H   H197      1.0  0.20520  0.87790  0.25250  1.0000 0.148334112
H   H198      1.0  0.62540  0.95270  0.74750  1.0000 0.148334112
H   H199      1.0  0.62460  0.87210  0.82730  1.0000 0.148334112
H   H200      1.0  0.70270  0.45520  0.82730  1.0000 0.148334112
H   H201      1.0  0.12790  0.95520  0.75250  1.0000 0.148334112
H   H202      1.0  0.70520  0.45270  0.32730  1.0000 0.148334112
H   H203      1.0  0.12210  0.37460  0.32730  1.0000 0.148334112
H   H204      1.0  0.20270  0.37540  0.24750  1.0000 0.148334112
H   H205      1.0  0.54480  0.37210  0.24750  1.0000 0.148334112
H   H206      1.0  0.12460  0.29730  0.75250  1.0000 0.148334112
H   H207      1.0  0.12540  0.37790  0.67270  1.0000 0.148334112
H   H208      1.0  0.04730  0.79480  0.67270  1.0000 0.148334112
H   H209      1.0  0.62510  0.29950  0.82280  1.0000 0.148334112
H   H210      1.0  0.04950  0.72670  0.17440  1.0000 0.148334112
H   H211      1.0  0.62490  0.94770  0.17440  1.0000 0.148334112
H   H212      1.0  0.47670  0.80230  0.17720  1.0000 0.148334112
H   H213      1.0  0.20050  0.87490  0.17720  1.0000 0.148334112
H   H214      1.0  0.69770  0.02330  0.82280  1.0000 0.148334112
H   H215      1.0  0.55230  0.87510  0.82560  1.0000 0.148334112
H   H216      1.0  0.77330  0.45050  0.82560  1.0000 0.148334112
H   H217      1.0  0.12490  0.95050  0.67720  1.0000 0.148334112
H   H218      1.0  0.70050  0.52330  0.32560  1.0000 0.148334112
H   H219      1.0  0.12510  0.30230  0.32560  1.0000 0.148334112
H   H220      1.0  0.27330  0.44770  0.32280  1.0000 0.148334112
H   H221      1.0  0.54950  0.37510  0.32280  1.0000 0.148334112
H   H222      1.0  0.05230  0.22670  0.67720  1.0000 0.148334112
H   H223      1.0  0.19770  0.37490  0.67440  1.0000 0.148334112
H   H224      1.0  0.97670  0.79950  0.67440  1.0000 0.148334112
H   H225      1.0  0.59760  0.22200  0.74600  1.0000 0.1327339202
H   H226      1.0  0.97200  0.72600  0.12440  1.0000 0.1327339202
H   H227      1.0  0.65240  0.89840  0.12440  1.0000 0.1327339202
H   H228      1.0  0.47600  0.85160  0.25400  1.0000 0.1327339202
H   H229      1.0  0.27800  0.90240  0.25400  1.0000 0.1327339202
H   H230      1.0  0.64840  0.02400  0.74600  1.0000 0.1327339202
H   H231      1.0  0.60160  0.84760  0.87560  1.0000 0.1327339202
H   H232      1.0  0.77400  0.52800  0.87560  1.0000 0.1327339202
H   H233      1.0  0.15240  0.02800  0.75400  1.0000 0.1327339202
H   H234      1.0  0.77800  0.52400  0.37560  1.0000 0.1327339202
H   H235      1.0  0.09760  0.35160  0.37560  1.0000 0.1327339202
H   H236      1.0  0.27400  0.39840  0.24600  1.0000 0.1327339202
H   H237      1.0  0.47200  0.34760  0.24600  1.0000 0.1327339202
H   H238      1.0  0.10160  0.22600  0.75400  1.0000 0.1327339202
H   H239      1.0  0.14840  0.40240  0.62440  1.0000 0.1327339202
H   H240      1.0  0.97600  0.72200  0.62440  1.0000 0.1327339202
H   H241      1.0  0.92510  0.32890  0.97760  1.0000 0.1426888437
H   H242      1.0  0.07890  0.60130  0.90380  1.0000 0.1426888437
H   H243      1.0  0.32490  0.80250  0.90380  1.0000 0.1426888437
H   H244      1.0  0.35130  0.94750  0.02240  1.0000 0.1426888437
H   H245      1.0  0.17110  0.57490  0.02240  1.0000 0.1426888437
H   H246      1.0  0.55250  0.14870  0.97760  1.0000 0.1426888437
H   H247      1.0  0.69750  0.17510  0.09620  1.0000 0.1426888437
H   H248      1.0  0.89870  0.42110  0.09620  1.0000 0.1426888437
H   H249      1.0  0.82490  0.92110  0.52240  1.0000 0.1426888437
H   H250      1.0  0.67110  0.64870  0.59620  1.0000 0.1426888437
H   H251      1.0  0.42510  0.44750  0.59620  1.0000 0.1426888437
H   H252      1.0  0.39870  0.30250  0.47760  1.0000 0.1426888437
H   H253      1.0  0.57890  0.67510  0.47760  1.0000 0.1426888437
H   H254      1.0  0.19750  0.10130  0.52240  1.0000 0.1426888437
H   H255      1.0  0.05250  0.07490  0.40380  1.0000 0.1426888437
H   H256      1.0  0.85130  0.82890  0.40380  1.0000 0.1426888437
H   H257      1.0  0.92810  0.39760  0.96950  1.0000 0.1426888437
H   H258      1.0  0.14760  0.67810  0.96950  1.0000 0.1426888437
H   H259      1.0  0.32190  0.79140  0.96950  1.0000 0.1426888437
H   H260      1.0  0.42810  0.95860  0.03050  1.0000 0.1426888437
H   H261      1.0  0.10240  0.57190  0.03050  1.0000 0.1426888437
H   H262      1.0  0.54140  0.07190  0.96950  1.0000 0.1426888437
H   H263      1.0  0.70860  0.17810  0.03050  1.0000 0.1426888437
H   H264      1.0  0.82190  0.35240  0.03050  1.0000 0.1426888437
H   H265      1.0  0.82190  0.85240  0.53050  1.0000 0.1426888437
H   H266      1.0  0.60240  0.57190  0.53050  1.0000 0.1426888437
H   H267      1.0  0.42810  0.45860  0.53050  1.0000 0.1426888437
H   H268      1.0  0.32190  0.29140  0.46950  1.0000 0.1426888437
H   H269      1.0  0.64760  0.67810  0.46950  1.0000 0.1426888437
H   H270      1.0  0.20860  0.17810  0.53050  1.0000 0.1426888437
H   H271      1.0  0.04140  0.07190  0.46950  1.0000 0.1426888437
H   H272      1.0  0.92810  0.89760  0.46950  1.0000 0.1426888437
H   H273      1.0  0.93680  0.33090  0.91190  1.0000 0.1327339202
H   H274      1.0  0.08090  0.66900  0.89410  1.0000 0.1327339202
H   H275      1.0  0.31320  0.72510  0.89410  1.0000 0.1327339202
H   H276      1.0  0.41900  0.02490  0.08810  1.0000 0.1327339202
H   H277      1.0  0.16910  0.56320  0.08810  1.0000 0.1327339202
H   H278      1.0  0.47510  0.08100  0.91190  1.0000 0.1327339202
H   H279      1.0  0.77490  0.18680  0.10590  1.0000 0.1327339202
H   H280      1.0  0.83100  0.41910  0.10590  1.0000 0.1327339202
H   H281      1.0  0.81320  0.91910  0.58810  1.0000 0.1327339202
H   H282      1.0  0.66910  0.58100  0.60590  1.0000 0.1327339202
H   H283      1.0  0.43680  0.52490  0.60590  1.0000 0.1327339202
H   H284      1.0  0.33100  0.22510  0.41190  1.0000 0.1327339202
H   H285      1.0  0.58090  0.68680  0.41190  1.0000 0.1327339202
H   H286      1.0  0.27490  0.16900  0.58810  1.0000 0.1327339202
H   H287      1.0  0.97510  0.06320  0.39410  1.0000 0.1327339202
H   H288      1.0  0.91900  0.83090  0.39410  1.0000 0.1327339202
H   H289      1.0  0.71860  0.99930  0.64510  1.0000 0.2439321485
H   H290      1.0  0.74930  0.60420  0.78070  1.0000 0.2439321485
H   H291      1.0  0.53140  0.67650  0.78070  1.0000 0.2439321485
H   H292      1.0  0.35420  0.07350  0.35490  1.0000 0.2439321485
H   H293      1.0  0.50070  0.78140  0.35490  1.0000 0.2439321485
H   H294      1.0  0.42650  0.14580  0.64510  1.0000 0.2439321485
H   H295      1.0  0.82350  0.96860  0.21930  1.0000 0.2439321485
H   H296      1.0  0.89580  0.75070  0.21930  1.0000 0.2439321485
H   H297      1.0  0.03140  0.25070  0.85490  1.0000 0.2439321485
H   H298      1.0  0.00070  0.64580  0.71930  1.0000 0.2439321485
H   H299      1.0  0.21860  0.57350  0.71930  1.0000 0.2439321485
H   H300      1.0  0.39580  0.17650  0.14510  1.0000 0.2439321485
H   H301      1.0  0.24930  0.46860  0.14510  1.0000 0.2439321485
H   H302      1.0  0.32350  0.10420  0.85490  1.0000 0.2439321485
H   H303      1.0  0.92650  0.28140  0.28070  1.0000 0.2439321485
H   H304      1.0  0.85420  0.49930  0.28070  1.0000 0.2439321485
H   H305      1.0  0.79520  0.77480  0.81400  1.0000 0.2439321485
H   H306      1.0  0.52480  0.21080  0.47960  1.0000 0.2439321485
H   H307      1.0  0.45480  0.76880  0.47960  1.0000 0.2439321485
H   H308      1.0  0.96080  0.98120  0.18600  1.0000 0.2439321485
H   H309      1.0  0.72520  0.70480  0.18600  1.0000 0.2439321485
H   H310      1.0  0.51880  0.53920  0.81400  1.0000 0.2439321485
H   H311      1.0  0.73120  0.04520  0.52040  1.0000 0.2439321485
H   H312      1.0  0.28920  0.97520  0.52040  1.0000 0.2439321485
H   H313      1.0  0.95480  0.47520  0.68600  1.0000 0.2439321485
H   H314      1.0  0.22520  0.03920  0.02040  1.0000 0.2439321485
H   H315      1.0  0.29520  0.48120  0.02040  1.0000 0.2439321485
H   H316      1.0  0.78920  0.26880  0.31400  1.0000 0.2439321485
H   H317      1.0  0.02480  0.54520  0.31400  1.0000 0.2439321485
H   H318      1.0  0.23120  0.71080  0.68600  1.0000 0.2439321485
H   H319      1.0  0.01880  0.20480  0.97960  1.0000 0.2439321485
H   H320      1.0  0.46080  0.27480  0.97960  1.0000 0.2439321485
H   H321      1.0  0.69140  0.17800  0.73760  1.0000 0.2506482723
H   H322      1.0  0.92800  0.69040  0.98660  1.0000 0.2506482723
H   H323      1.0  0.55860  0.79620  0.98660  1.0000 0.2506482723
H   H324      1.0  0.44040  0.95380  0.26240  1.0000 0.2506482723
H   H325      1.0  0.32200  0.80860  0.26240  1.0000 0.2506482723
H   H326      1.0  0.54620  0.05960  0.73760  1.0000 0.2506482723
H   H327      1.0  0.70380  0.94140  0.01340  1.0000 0.2506482723
H   H328      1.0  0.80960  0.57200  0.01340  1.0000 0.2506482723
H   H329      1.0  0.05860  0.07200  0.76240  1.0000 0.2506482723
H   H330      1.0  0.82200  0.55960  0.51340  1.0000 0.2506482723
H   H331      1.0  0.19140  0.45380  0.51340  1.0000 0.2506482723
H   H332      1.0  0.30960  0.29620  0.23760  1.0000 0.2506482723
H   H333      1.0  0.42800  0.44140  0.23760  1.0000 0.2506482723
H   H334      1.0  0.20380  0.19040  0.76240  1.0000 0.2506482723
H   H335      1.0  0.04620  0.30860  0.48660  1.0000 0.2506482723
H   H336      1.0  0.94040  0.67800  0.48660  1.0000 0.2506482723
C   C1        1.0  0.65239  0.86018  0.60001  1.0000 -0.4930475931
C   C2        1.0  0.61018  0.51017  0.70779  1.0000 -0.4930475931
C   C3        1.0  0.59761  0.69762  0.70779  1.0000 -0.4930475931
C   C4        1.0  0.26017  0.05238  0.39999  1.0000 -0.4930475931
C   C5        1.0  0.63982  0.84761  0.39999  1.0000 -0.4930475931
C   C6        1.0  0.44762  0.23983  0.60001  1.0000 -0.4930475931
C   C7        1.0  0.80238  0.90239  0.29221  1.0000 -0.4930475931
C   C8        1.0  0.98983  0.88982  0.29221  1.0000 -0.4930475931
C   C9        1.0  0.09761  0.38982  0.89999  1.0000 -0.4930475931
C   C10       1.0  0.13982  0.73983  0.79221  1.0000 -0.4930475931
C   C11       1.0  0.15239  0.55238  0.79221  1.0000 -0.4930475931
C   C12       1.0  0.48983  0.19762  0.10001  1.0000 -0.4930475931
C   C13       1.0  0.11018  0.40239  0.10001  1.0000 -0.4930475931
C   C14       1.0  0.30238  0.01017  0.89999  1.0000 -0.4930475931
C   C15       1.0  0.94762  0.34761  0.20779  1.0000 -0.4930475931
C   C16       1.0  0.76017  0.36018  0.20779  1.0000 -0.4930475931
C   C17       1.0  0.72820  0.91975  0.66335  1.0000 0.1641786518
C   C18       1.0  0.66975  0.50640  0.69155  1.0000 0.1662618039
C   C19       1.0  0.52180  0.68515  0.69155  1.0000 0.1662618039
C   C20       1.0  0.25640  0.06485  0.33665  1.0000 0.1662618039
C   C21       1.0  0.58025  0.77180  0.33665  1.0000 0.1662618039
C   C22       1.0  0.43515  0.24360  0.66335  1.0000 0.1662618039
C   C23       1.0  0.81485  0.97820  0.30845  1.0000 0.1641786518
C   C24       1.0  0.99360  0.83025  0.30845  1.0000 0.1641786518
C   C25       1.0  0.02180  0.33025  0.83665  1.0000 0.1662618039
C   C26       1.0  0.08025  0.74360  0.80845  1.0000 0.1662618039
C   C27       1.0  0.22820  0.56485  0.80845  1.0000 0.1662618039
C   C28       1.0  0.49360  0.18515  0.16335  1.0000 0.1662618039
C   C29       1.0  0.16975  0.47820  0.16335  1.0000 0.1662618039
C   C30       1.0  0.31485  0.00640  0.83665  1.0000 0.1662618039
C   C31       1.0  0.93515  0.27180  0.19155  1.0000 0.1662618039
C   C32       1.0  0.75640  0.41975  0.19155  1.0000 0.1662618039
C   C33       1.0  0.79014  0.92086  0.72106  1.0000 -0.1400789115
C   C34       1.0  0.67086  0.44980  0.63072  1.0000 -0.1400789115
C   C35       1.0  0.45986  0.68092  0.63072  1.0000 -0.1400789115
C   C36       1.0  0.19980  0.06908  0.27894  1.0000 -0.1400789115
C   C37       1.0  0.57914  0.70986  0.27894  1.0000 -0.1400789115
C   C38       1.0  0.43092  0.30020  0.72106  1.0000 -0.1400789115
C   C39       1.0  0.81908  0.04014  0.36928  1.0000 -0.1400789115
C   C40       1.0  0.05020  0.82914  0.36928  1.0000 -0.1400789115
C   C41       1.0  0.95986  0.32914  0.77894  1.0000 -0.1400789115
C   C42       1.0  0.07914  0.80020  0.86928  1.0000 -0.1400789115
C   C43       1.0  0.29014  0.56908  0.86928  1.0000 -0.1400789115
C   C44       1.0  0.55020  0.18092  0.22106  1.0000 -0.1400789115
C   C45       1.0  0.17086  0.54014  0.22106  1.0000 -0.1400789115
C   C46       1.0  0.31908  0.94980  0.77894  1.0000 -0.1400789115
C   C47       1.0  0.93092  0.20986  0.13072  1.0000 -0.1400789115
C   C48       1.0  0.69980  0.42086  0.13072  1.0000 -0.1400789115
C   C49       1.0  0.84574  0.99154  0.76366  1.0000 0.1885557402
C   C50       1.0  0.74154  0.47788  0.64580  1.0000 0.1885557402
C   C51       1.0  0.40426  0.66792  0.64580  1.0000 0.1885557402
C   C52       1.0  0.22788  0.08208  0.23634  1.0000 0.1885557402
C   C53       1.0  0.50846  0.65426  0.23634  1.0000 0.1885557402
C   C54       1.0  0.41792  0.27212  0.76366  1.0000 0.1885557402
C   C55       1.0  0.83208  0.09574  0.35420  1.0000 0.1885557402
C   C56       1.0  0.02212  0.75846  0.35420  1.0000 0.1885557402
C   C57       1.0  0.90426  0.25846  0.73634  1.0000 0.1885557402
C   C58       1.0  0.00846  0.77212  0.85420  1.0000 0.1885557402
C   C59       1.0  0.34574  0.58208  0.85420  1.0000 0.1885557402
C   C60       1.0  0.52212  0.16792  0.26366  1.0000 0.1885557402
C   C61       1.0  0.24154  0.59574  0.26366  1.0000 0.1885557402
C   C62       1.0  0.33208  0.97788  0.73634  1.0000 0.1885557402
C   C63       1.0  0.91792  0.15426  0.14580  1.0000 0.1885557402
C   C64       1.0  0.72788  0.49154  0.14580  1.0000 0.1885557402
C   C65       1.0  0.92423  0.02215  0.83148  1.0000 -0.4930475931
C   C66       1.0  0.77215  0.44067  0.59792  1.0000 -0.4930475931
C   C67       1.0  0.32577  0.65725  0.59792  1.0000 -0.4930475931
C   C68       1.0  0.19067  0.09275  0.16852  1.0000 -0.4930475931
C   C69       1.0  0.47785  0.57577  0.16852  1.0000 -0.4930475931
C   C70       1.0  0.40725  0.30933  0.83148  1.0000 -0.4930475931
C   C71       1.0  0.84275  0.17423  0.40208  1.0000 -0.4930475931
C   C72       1.0  0.05933  0.72785  0.40208  1.0000 -0.4930475931
C   C73       1.0  0.82577  0.22785  0.66852  1.0000 -0.4930475931
C   C74       1.0  0.97785  0.80933  0.90208  1.0000 -0.4930475931
C   C75       1.0  0.42423  0.59275  0.90208  1.0000 -0.4930475931
C   C76       1.0  0.55933  0.15725  0.33148  1.0000 -0.4930475931
C   C77       1.0  0.27215  0.67423  0.33148  1.0000 -0.4930475931
C   C78       1.0  0.34275  0.94067  0.66852  1.0000 -0.4930475931
C   C79       1.0  0.90725  0.07577  0.09792  1.0000 -0.4930475931
C   C80       1.0  0.69067  0.52215  0.09792  1.0000 -0.4930475931
C   C81       1.0  0.81549  0.77701  0.62452  1.0000 -0.499976417
C   C82       1.0  0.52701  0.40249  0.46152  1.0000 -0.499976417
C   C83       1.0  0.43451  0.55903  0.46152  1.0000 -0.499976417
C   C84       1.0  0.15249  0.19097  0.37548  1.0000 -0.499976417
C   C85       1.0  0.72299  0.68451  0.37548  1.0000 -0.499976417
C   C86       1.0  0.30903  0.34751  0.62452  1.0000 -0.499976417
C   C87       1.0  0.94097  0.06549  0.53848  1.0000 -0.499976417
C   C88       1.0  0.09751  0.97299  0.53848  1.0000 -0.499976417
C   C89       1.0  0.93451  0.47299  0.87548  1.0000 -0.499976417
C   C90       1.0  0.22299  0.84751  0.03848  1.0000 -0.499976417
C   C91       1.0  0.31549  0.69097  0.03848  1.0000 -0.499976417
C   C92       1.0  0.59751  0.05903  0.12452  1.0000 -0.499976417
C   C93       1.0  0.02701  0.56549  0.12452  1.0000 -0.499976417
C   C94       1.0  0.44097  0.90249  0.87548  1.0000 -0.499976417
C   C95       1.0  0.80903  0.18451  0.96152  1.0000 -0.499976417
C   C96       1.0  0.65249  0.27701  0.96152  1.0000 -0.499976417
C   C97       1.0  0.80609  0.79769  0.69338  1.0000 0.1885557402
C   C98       1.0  0.54769  0.35431  0.49160  1.0000 0.1885557402
C   C99       1.0  0.44391  0.63729  0.49160  1.0000 0.1885557402
C   C100      1.0  0.10431  0.11271  0.30662  1.0000 0.1885557402
C   C101      1.0  0.70231  0.69391  0.30662  1.0000 0.1885557402
C   C102      1.0  0.38729  0.39569  0.69338  1.0000 0.1885557402
C   C103      1.0  0.86271  0.05609  0.50840  1.0000 0.1885557402
C   C104      1.0  0.14569  0.95231  0.50840  1.0000 0.1885557402
C   C105      1.0  0.94391  0.45231  0.80662  1.0000 0.1885557402
C   C106      1.0  0.20231  0.89569  0.00840  1.0000 0.1885557402
C   C107      1.0  0.30609  0.61271  0.00840  1.0000 0.1885557402
C   C108      1.0  0.64569  0.13729  0.19338  1.0000 0.1885557402
C   C109      1.0  0.04769  0.55609  0.19338  1.0000 0.1885557402
C   C110      1.0  0.36271  0.85431  0.80662  1.0000 0.1885557402
C   C111      1.0  0.88729  0.19391  0.99160  1.0000 0.1885557402
C   C112      1.0  0.60431  0.29769  0.99160  1.0000 0.1885557402
C   C113      1.0  0.79523  0.86075  0.73534  1.0000 -0.1400789115
C   C114      1.0  0.61075  0.37541  0.56552  1.0000 -0.1400789115
C   C115      1.0  0.45477  0.69011  0.56552  1.0000 -0.1400789115
C   C116      1.0  0.12541  0.05989  0.26466  1.0000 -0.1400789115
C   C117      1.0  0.63925  0.70477  0.26466  1.0000 -0.1400789115
C   C118      1.0  0.44011  0.37459  0.73534  1.0000 -0.1400789115
C   C119      1.0  0.80989  0.04523  0.43448  1.0000 -0.1400789115
C   C120      1.0  0.12459  0.88925  0.43448  1.0000 -0.1400789115
C   C121      1.0  0.95477  0.38925  0.76466  1.0000 -0.1400789115
C   C122      1.0  0.13925  0.87459  0.93448  1.0000 -0.1400789115
C   C123      1.0  0.29523  0.55989  0.93448  1.0000 -0.1400789115
C   C124      1.0  0.62459  0.19011  0.23534  1.0000 -0.1400789115
C   C125      1.0  0.11075  0.54523  0.23534  1.0000 -0.1400789115
C   C126      1.0  0.30989  0.87541  0.76466  1.0000 -0.1400789115
C   C127      1.0  0.94011  0.20477  0.06552  1.0000 -0.1400789115
C   C128      1.0  0.62541  0.36075  0.06552  1.0000 -0.1400789115
C   C129      1.0  0.79074  0.85450  0.79396  1.0000 0.148334112
C   C130      1.0  0.60450  0.31054  0.56376  1.0000 0.148334112
C   C131      1.0  0.45926  0.75322  0.56376  1.0000 0.148334112
C   C132      1.0  0.06054  0.99678  0.20604  1.0000 0.148334112
C   C133      1.0  0.64550  0.70926  0.20604  1.0000 0.148334112
C   C134      1.0  0.50322  0.43946  0.79396  1.0000 0.148334112
C   C135      1.0  0.74678  0.04074  0.43624  1.0000 0.148334112
C   C136      1.0  0.18946  0.89550  0.43624  1.0000 0.148334112
C   C137      1.0  0.95926  0.39550  0.70604  1.0000 0.148334112
C   C138      1.0  0.14550  0.93946  0.93624  1.0000 0.148334112
C   C139      1.0  0.29074  0.49678  0.93624  1.0000 0.148334112
C   C140      1.0  0.68946  0.25322  0.29396  1.0000 0.148334112
C   C141      1.0  0.10450  0.54074  0.29396  1.0000 0.148334112
C   C142      1.0  0.24678  0.81054  0.70604  1.0000 0.148334112
C   C143      1.0  0.00322  0.20926  0.06376  1.0000 0.148334112
C   C144      1.0  0.56054  0.35450  0.06376  1.0000 0.148334112
C   C145      1.0  0.78279  0.90509  0.85990  1.0000 -0.499976417
C   C146      1.0  0.65509  0.29519  0.62230  1.0000 -0.499976417
C   C147      1.0  0.46721  0.82711  0.62230  1.0000 -0.499976417
C   C148      1.0  0.04519  0.92289  0.14010  1.0000 -0.499976417
C   C149      1.0  0.59491  0.71721  0.14010  1.0000 -0.499976417
C   C150      1.0  0.57711  0.45481  0.85990  1.0000 -0.499976417
C   C151      1.0  0.67289  0.03279  0.37770  1.0000 -0.499976417
C   C152      1.0  0.20481  0.84491  0.37770  1.0000 -0.499976417
C   C153      1.0  0.96721  0.34491  0.64010  1.0000 -0.499976417
C   C154      1.0  0.09491  0.95481  0.87770  1.0000 -0.499976417
C   C155      1.0  0.28279  0.42289  0.87770  1.0000 -0.499976417
C   C156      1.0  0.70481  0.32711  0.35990  1.0000 -0.499976417
C   C157      1.0  0.15509  0.53279  0.35990  1.0000 -0.499976417
C   C158      1.0  0.17289  0.79519  0.64010  1.0000 -0.499976417
C   C159      1.0  0.07711  0.21721  0.12230  1.0000 -0.499976417
C   C160      1.0  0.54519  0.40509  0.12230  1.0000 -0.499976417
C   C161      1.0  0.63164  0.27330  0.77934  1.0000 -0.499976417
C   C162      1.0  0.02330  0.74396  0.14166  1.0000 -0.499976417
C   C163      1.0  0.61836  0.89770  0.14166  1.0000 -0.499976417
C   C164      1.0  0.49396  0.85230  0.22066  1.0000 -0.499976417
C   C165      1.0  0.22670  0.86836  0.22066  1.0000 -0.499976417
C   C166      1.0  0.64770  0.00604  0.77934  1.0000 -0.499976417
C   C167      1.0  0.60230  0.88164  0.85834  1.0000 -0.499976417
C   C168      1.0  0.75604  0.47670  0.85834  1.0000 -0.499976417
C   C169      1.0  0.11836  0.97670  0.72066  1.0000 -0.499976417
C   C170      1.0  0.72670  0.50604  0.35834  1.0000 -0.499976417
C   C171      1.0  0.13164  0.35230  0.35834  1.0000 -0.499976417
C   C172      1.0  0.25604  0.39770  0.27934  1.0000 -0.499976417
C   C173      1.0  0.52330  0.38164  0.27934  1.0000 -0.499976417
C   C174      1.0  0.10230  0.24396  0.72066  1.0000 -0.499976417
C   C175      1.0  0.14770  0.36836  0.64166  1.0000 -0.499976417
C   C176      1.0  0.99396  0.77330  0.64166  1.0000 -0.499976417
C   C177      1.0  0.70956  0.27897  0.81333  1.0000 0.1662618039
C   C178      1.0  0.02897  0.71564  0.06941  1.0000 0.1662618039
C   C179      1.0  0.54044  0.85377  0.06941  1.0000 0.1662618039
C   C180      1.0  0.46564  0.89623  0.18667  1.0000 0.1662618039
C   C181      1.0  0.22103  0.79044  0.18667  1.0000 0.1662618039
C   C182      1.0  0.60377  0.03436  0.81333  1.0000 0.1662618039
C   C183      1.0  0.64623  0.95956  0.93059  1.0000 0.1662618039
C   C184      1.0  0.78436  0.47103  0.93059  1.0000 0.1662618039
C   C185      1.0  0.04044  0.97103  0.68667  1.0000 0.1662618039
C   C186      1.0  0.72103  0.53436  0.43059  1.0000 0.1662618039
C   C187      1.0  0.20956  0.39623  0.43059  1.0000 0.1662618039
C   C188      1.0  0.28436  0.35377  0.31333  1.0000 0.1662618039
C   C189      1.0  0.52897  0.45956  0.31333  1.0000 0.1662618039
C   C190      1.0  0.14623  0.21564  0.68667  1.0000 0.1662618039
C   C191      1.0  0.10377  0.29044  0.56941  1.0000 0.1662618039
C   C192      1.0  0.96564  0.77897  0.56941  1.0000 0.1662618039
C   C193      1.0  0.77719  0.33699  0.87934  1.0000 -0.1400789115
C   C194      1.0  0.08699  0.70765  0.05980  1.0000 -0.1400789115
C   C195      1.0  0.47281  0.85215  0.05980  1.0000 -0.1400789115
C   C196      1.0  0.45765  0.89785  0.12066  1.0000 -0.1400789115
C   C197      1.0  0.16301  0.72281  0.12066  1.0000 -0.1400789115
C   C198      1.0  0.60215  0.04235  0.87934  1.0000 -0.1400789115
C   C199      1.0  0.64785  0.02719  0.94020  1.0000 -0.1400789115
C   C200      1.0  0.79235  0.41301  0.94020  1.0000 -0.1400789115
C   C201      1.0  0.97281  0.91301  0.62066  1.0000 -0.1400789115
C   C202      1.0  0.66301  0.54235  0.44020  1.0000 -0.1400789115
C   C203      1.0  0.27719  0.39785  0.44020  1.0000 -0.1400789115
C   C204      1.0  0.29235  0.35215  0.37934  1.0000 -0.1400789115
C   C205      1.0  0.58699  0.52719  0.37934  1.0000 -0.1400789115
C   C206      1.0  0.14785  0.20765  0.62066  1.0000 -0.1400789115
C   C207      1.0  0.10215  0.22281  0.55980  1.0000 -0.1400789115
C   C208      1.0  0.95765  0.83699  0.55980  1.0000 -0.1400789115
C   C209      1.0  0.83053  0.30788  0.88137  1.0000 0.1885557402
C   C210      1.0  0.05788  0.67651  0.97735  1.0000 0.1885557402
C   C211      1.0  0.41947  0.80084  0.97735  1.0000 0.1885557402
C   C212      1.0  0.42651  0.94916  0.11863  1.0000 0.1885557402
C   C213      1.0  0.19212  0.66947  0.11863  1.0000 0.1885557402
C   C214      1.0  0.55084  0.07349  0.88137  1.0000 0.1885557402
C   C215      1.0  0.69916  0.08053  0.02265  1.0000 0.1885557402
C   C216      1.0  0.82349  0.44212  0.02265  1.0000 0.1885557402
C   C217      1.0  0.91947  0.94212  0.61863  1.0000 0.1885557402
C   C218      1.0  0.69212  0.57349  0.52265  1.0000 0.1885557402
C   C219      1.0  0.33053  0.44916  0.52265  1.0000 0.1885557402
C   C220      1.0  0.32349  0.30084  0.38137  1.0000 0.1885557402
C   C221      1.0  0.55788  0.58053  0.38137  1.0000 0.1885557402
C   C222      1.0  0.19916  0.17651  0.61863  1.0000 0.1885557402
C   C223      1.0  0.05084  0.16947  0.47735  1.0000 0.1885557402
C   C224      1.0  0.92651  0.80788  0.47735  1.0000 0.1885557402
C   C225      1.0  0.91243  0.34460  0.94035  1.0000 -0.499976417
C   C226      1.0  0.09460  0.65425  0.93217  1.0000 -0.499976417
C   C227      1.0  0.33757  0.77792  0.93217  1.0000 -0.499976417
C   C228      1.0  0.40425  0.97208  0.05965  1.0000 -0.499976417
C   C229      1.0  0.15540  0.58757  0.05965  1.0000 -0.499976417
C   C230      1.0  0.52792  0.09575  0.94035  1.0000 -0.499976417
C   C231      1.0  0.72208  0.16243  0.06783  1.0000 -0.499976417
C   C232      1.0  0.84575  0.40540  0.06783  1.0000 -0.499976417
C   C233      1.0  0.83757  0.90540  0.55965  1.0000 -0.499976417
C   C234      1.0  0.65540  0.59575  0.56783  1.0000 -0.499976417
C   C235      1.0  0.41243  0.47208  0.56783  1.0000 -0.499976417
C   C236      1.0  0.34575  0.27792  0.44035  1.0000 -0.499976417
C   C237      1.0  0.59460  0.66243  0.44035  1.0000 -0.499976417
C   C238      1.0  0.22208  0.15425  0.55965  1.0000 -0.499976417
C   C239      1.0  0.02792  0.08757  0.43217  1.0000 -0.499976417
C   C240      1.0  0.90425  0.84460  0.43217  1.0000 -0.499976417
N   N1        1.0  0.81980  0.03185  0.73487  1.0000 -0.2418784992
N   N2        1.0  0.78185  0.54698  0.71205  1.0000 -0.2418784992
N   N3        1.0  0.43020  0.66507  0.71205  1.0000 -0.2418784992
N   N4        1.0  0.29698  0.08493  0.26513  1.0000 -0.2418784992
N   N5        1.0  0.46815  0.68020  0.26513  1.0000 -0.2418784992
N   N6        1.0  0.41507  0.20302  0.73487  1.0000 -0.2418784992
N   N7        1.0  0.83493  0.06980  0.28795  1.0000 -0.2418784992
N   N8        1.0  0.95302  0.71815  0.28795  1.0000 -0.2418784992
N   N9        1.0  0.93020  0.21815  0.76513  1.0000 -0.2418784992
N   N10       1.0  0.96815  0.70302  0.78795  1.0000 -0.2418784992
N   N11       1.0  0.31980  0.58493  0.78795  1.0000 -0.2418784992
N   N12       1.0  0.45302  0.16507  0.23487  1.0000 -0.2418784992
N   N13       1.0  0.28185  0.56980  0.23487  1.0000 -0.2418784992
N   N14       1.0  0.33493  0.04698  0.76513  1.0000 -0.2418784992
N   N15       1.0  0.91507  0.18020  0.21205  1.0000 -0.2418784992
N   N16       1.0  0.79698  0.53185  0.21205  1.0000 -0.2418784992
N   N17       1.0  0.74805  0.98653  0.67382  1.0000 -0.1499521918
N   N18       1.0  0.73653  0.56271  0.73848  1.0000 -0.1499521918
N   N19       1.0  0.50195  0.67577  0.73848  1.0000 -0.1499521918
N   N20       1.0  0.31271  0.07423  0.32618  1.0000 -0.1499521918
N   N21       1.0  0.51347  0.75195  0.32618  1.0000 -0.1499521918
N   N22       1.0  0.42577  0.18729  0.67382  1.0000 -0.1499521918
N   N23       1.0  0.82423  0.99805  0.26152  1.0000 -0.1499521918
N   N24       1.0  0.93729  0.76347  0.26152  1.0000 -0.1499521918
N   N25       1.0  0.00195  0.26347  0.82618  1.0000 -0.1499521918
N   N26       1.0  0.01347  0.68729  0.76152  1.0000 -0.1499521918
N   N27       1.0  0.24805  0.57423  0.76152  1.0000 -0.1499521918
N   N28       1.0  0.43729  0.17577  0.17382  1.0000 -0.1499521918
N   N29       1.0  0.23653  0.49805  0.17382  1.0000 -0.1499521918
N   N30       1.0  0.32423  0.06271  0.82618  1.0000 -0.1499521918
N   N31       1.0  0.92577  0.25195  0.23848  1.0000 -0.1499521918
N   N32       1.0  0.81271  0.48653  0.23848  1.0000 -0.1499521918
N   N33       1.0  0.79721  0.79093  0.78466  1.0000 -0.1400789115
N   N34       1.0  0.54093  0.25627  0.49372  1.0000 -0.1400789115
N   N35       1.0  0.45279  0.73745  0.49372  1.0000 -0.1400789115
N   N36       1.0  0.00627  0.01255  0.21534  1.0000 -0.1400789115
N   N37       1.0  0.70907  0.70279  0.21534  1.0000 -0.1400789115
N   N38       1.0  0.48745  0.49373  0.78466  1.0000 -0.1400789115
N   N39       1.0  0.76255  0.04721  0.50628  1.0000 -0.1400789115
N   N40       1.0  0.24373  0.95907  0.50628  1.0000 -0.1400789115
N   N41       1.0  0.95279  0.45907  0.71534  1.0000 -0.1400789115
N   N42       1.0  0.20907  0.99373  0.00628  1.0000 -0.1400789115
N   N43       1.0  0.29721  0.51255  0.00628  1.0000 -0.1400789115
N   N44       1.0  0.74373  0.23745  0.28466  1.0000 -0.1400789115
N   N45       1.0  0.04093  0.54721  0.28466  1.0000 -0.1400789115
N   N46       1.0  0.26255  0.75627  0.71534  1.0000 -0.1400789115
N   N47       1.0  0.98745  0.20279  0.99372  1.0000 -0.1400789115
N   N48       1.0  0.50627  0.29093  0.99372  1.0000 -0.1400789115
N   N49       1.0  0.80720  0.75564  0.72400  1.0000 -0.2418784992
N   N50       1.0  0.50564  0.28164  0.44844  1.0000 -0.2418784992
N   N51       1.0  0.44280  0.66680  0.44844  1.0000 -0.2418784992
N   N52       1.0  0.03164  0.08320  0.27600  1.0000 -0.2418784992
N   N53       1.0  0.74436  0.69280  0.27600  1.0000 -0.2418784992
N   N54       1.0  0.41680  0.46836  0.72400  1.0000 -0.2418784992
N   N55       1.0  0.83320  0.05720  0.55156  1.0000 -0.2418784992
N   N56       1.0  0.21836  0.99436  0.55156  1.0000 -0.2418784992
N   N57       1.0  0.94280  0.49436  0.77600  1.0000 -0.2418784992
N   N58       1.0  0.24436  0.96836  0.05156  1.0000 -0.2418784992
N   N59       1.0  0.30720  0.58320  0.05156  1.0000 -0.2418784992
N   N60       1.0  0.71836  0.16680  0.22400  1.0000 -0.2418784992
N   N61       1.0  0.00564  0.55720  0.22400  1.0000 -0.2418784992
N   N62       1.0  0.33320  0.78164  0.77600  1.0000 -0.2418784992
N   N63       1.0  0.91680  0.19280  0.94844  1.0000 -0.2418784992
N   N64       1.0  0.53164  0.25564  0.94844  1.0000 -0.2418784992
N   N65       1.0  0.79859  0.23708  0.82041  1.0000 -0.2271689278
N   N66       1.0  0.98708  0.66667  0.93849  1.0000 -0.2271689278
N   N67       1.0  0.45141  0.77182  0.93849  1.0000 -0.2271689278
N   N68       1.0  0.41667  0.97818  0.17959  1.0000 -0.2271689278
N   N69       1.0  0.26292  0.70141  0.17959  1.0000 -0.2271689278
N   N70       1.0  0.52182  0.08333  0.82041  1.0000 -0.2271689278
N   N71       1.0  0.72818  0.04859  0.06151  1.0000 -0.2271689278
N   N72       1.0  0.83333  0.51292  0.06151  1.0000 -0.2271689278
N   N73       1.0  0.95141  0.01292  0.67959  1.0000 -0.2271689278
N   N74       1.0  0.76292  0.58333  0.56151  1.0000 -0.2271689278
N   N75       1.0  0.29859  0.47818  0.56151  1.0000 -0.2271689278
N   N76       1.0  0.33333  0.27182  0.32041  1.0000 -0.2271689278
N   N77       1.0  0.48708  0.54859  0.32041  1.0000 -0.2271689278
N   N78       1.0  0.22818  0.16667  0.67959  1.0000 -0.2271689278
N   N79       1.0  0.02182  0.20141  0.43849  1.0000 -0.2271689278
N   N80       1.0  0.91667  0.73708  0.43849  1.0000 -0.2271689278
N   N81       1.0  0.72468  0.22075  0.77985  1.0000 -0.1499521918
N   N82       1.0  0.97075  0.69090  0.99607  1.0000 -0.1499521918
N   N83       1.0  0.52532  0.80517  0.99607  1.0000 -0.1499521918
N   N84       1.0  0.44090  0.94483  0.22015  1.0000 -0.1499521918
N   N85       1.0  0.27925  0.77532  0.22015  1.0000 -0.1499521918
N   N86       1.0  0.55517  0.05910  0.77985  1.0000 -0.1499521918
N   N87       1.0  0.69483  0.97468  0.00393  1.0000 -0.1499521918
N   N88       1.0  0.80910  0.52925  0.00393  1.0000 -0.1499521918
N   N89       1.0  0.02532  0.02925  0.72015  1.0000 -0.1499521918
N   N90       1.0  0.77925  0.55910  0.50393  1.0000 -0.1499521918
N   N91       1.0  0.22468  0.44483  0.50393  1.0000 -0.1499521918
N   N92       1.0  0.30910  0.30517  0.27985  1.0000 -0.1499521918
N   N93       1.0  0.47075  0.47468  0.27985  1.0000 -0.1499521918
N   N94       1.0  0.19483  0.19090  0.72015  1.0000 -0.1499521918
N   N95       1.0  0.05517  0.27532  0.49607  1.0000 -0.1499521918
N   N96       1.0  0.94090  0.72075  0.49607  1.0000 -0.1499521918
