# DDEC6 charges by PACMAN v1.1 (https://github.com/mtap-research/PACMAN-charge/)
data_2015[Cu][pcu]3[FSR]1
_chemical_formula_sum              "Cu2 H44 C52 N8 O12"
_cell_length_a       9.9983
_cell_length_b       11.0159
_cell_length_c       12.3746
_cell_angle_alpha    90.955
_cell_angle_beta     110.694
_cell_angle_gamma    95.116

_symmetry_space_group_name_H-M    "P 1"
_symmetry_Int_Tables_number       1

loop_
  _symmetry_equiv_pos_as_xyz
  'x, y, z'

loop_
  _atom_site_type_symbol
  _atom_site_label
  _atom_site_symmetry_multiplicity
  _atom_site_fract_x
  _atom_site_fract_y
  _atom_site_fract_z
  _atom_site_occupancy
  _atom_site_charge
Cu  Cu1       1.0  0.67535  0.87699  0.50347  1.0000 0.7893257994
Cu  Cu2       1.0  0.32465  0.12301  0.49653  1.0000 0.7893257994
H   H1        1.0  0.07910  0.53720  0.26110  1.0000 0.1112129796
H   H2        1.0  0.92090  0.46280  0.73890  1.0000 0.1112129796
H   H3        1.0  0.95250  0.34800  0.24710  1.0000 0.1112129796
H   H4        1.0  0.04750  0.65200  0.75290  1.0000 0.1112129796
H   H5        1.0  0.78290  0.31770  0.33560  1.0000 0.1112129796
H   H6        1.0  0.21710  0.68230  0.66440  1.0000 0.1112129796
H   H7        1.0  0.72370  0.48360  0.42250  1.0000 0.1200646301
H   H8        1.0  0.27630  0.51640  0.57750  1.0000 0.1200646301
H   H9        1.0  0.02850  0.81670  0.36660  1.0000 0.1200646301
H   H10       1.0  0.97150  0.18330  0.63340  1.0000 0.1200646301
H   H11       1.0  0.87580  0.05420  0.44700  1.0000 0.1200646301
H   H12       1.0  0.12420  0.94580  0.55300  1.0000 0.1200646301
H   H13       1.0  0.93260  0.11630  0.28930  1.0000 0.1397364844
H   H14       1.0  0.06740  0.88370  0.71070  1.0000 0.1397364844
H   H15       1.0  0.57270  0.91440  0.08070  1.0000 0.1324884962
H   H16       1.0  0.42730  0.08560  0.91930  1.0000 0.1324884962
H   H17       1.0  0.53130  0.85230  0.24480  1.0000 0.1200646301
H   H18       1.0  0.46870  0.14770  0.75520  1.0000 0.1200646301
H   H19       1.0  0.98370  0.93980  0.17600  1.0000 0.1112129796
H   H20       1.0  0.01630  0.06020  0.82400  1.0000 0.1112129796
H   H21       1.0  0.10260  0.04050  0.16350  1.0000 0.1112129796
H   H22       1.0  0.89740  0.95950  0.83650  1.0000 0.1112129796
H   H23       1.0  0.01840  0.17410  0.98410  1.0000 0.1112129796
H   H24       1.0  0.98160  0.82590  0.01590  1.0000 0.1112129796
H   H25       1.0  0.85410  0.14620  0.90020  1.0000 0.1200646301
H   H26       1.0  0.14590  0.85380  0.09980  1.0000 0.1200646301
H   H27       1.0  0.44310  0.59380  0.82290  1.0000 0.1003070383
H   H28       1.0  0.55690  0.40620  0.17710  1.0000 0.1003070383
H   H29       1.0  0.36110  0.60700  0.91220  1.0000 0.1200646301
H   H30       1.0  0.63890  0.39300  0.08780  1.0000 0.1200646301
H   H31       1.0  0.51900  0.60410  0.13130  1.0000 0.1200646301
H   H32       1.0  0.48100  0.39590  0.86870  1.0000 0.1200646301
H   H33       1.0  0.68640  0.59160  0.16080  1.0000 0.1112129796
H   H34       1.0  0.31360  0.40840  0.83920  1.0000 0.1112129796
H   H35       1.0  0.53810  0.85910  0.84950  1.0000 0.1397364844
H   H36       1.0  0.46190  0.14090  0.15050  1.0000 0.1397364844
H   H37       1.0  0.54330  0.92660  0.67580  1.0000 0.1112129796
H   H38       1.0  0.45670  0.07340  0.32420  1.0000 0.1112129796
H   H39       1.0  0.78400  0.67250  0.65420  1.0000 0.1112129796
H   H40       1.0  0.21600  0.32750  0.34580  1.0000 0.1112129796
H   H41       1.0  0.79430  0.60380  0.83130  1.0000 0.1468239385
H   H42       1.0  0.20570  0.39620  0.16870  1.0000 0.1468239385
H   H43       1.0  0.25300  0.68020  0.37750  1.0000 0.1324884962
H   H44       1.0  0.74700  0.31980  0.62250  1.0000 0.1324884962
C   C1        1.0  0.82910  0.71360  0.45630  1.0000 0.5361876148
C   C2        1.0  0.17090  0.28640  0.54370  1.0000 0.5361876148
C   C3        1.0  0.87020  0.61020  0.39820  1.0000 -0.0578000661
C   C4        1.0  0.12980  0.38980  0.60180  1.0000 -0.0578000661
C   C5        1.0  0.98210  0.62700  0.35350  1.0000 0.1003070383
C   C6        1.0  0.01790  0.37300  0.64650  1.0000 0.1003070383
C   C7        1.0  0.00810  0.52710  0.29570  1.0000 -0.1430194419
C   C8        1.0  0.99190  0.47290  0.70430  1.0000 -0.1430194419
C   C9        1.0  0.93320  0.41430  0.28760  1.0000 -0.0931614046
C   C10       1.0  0.06680  0.58570  0.71240  1.0000 -0.0931614046
C   C11       1.0  0.83060  0.39680  0.33750  1.0000 -0.1010751877
C   C12       1.0  0.16940  0.60320  0.66250  1.0000 -0.1010751877
C   C13       1.0  0.79730  0.49490  0.39070  1.0000 -0.1206714403
C   C14       1.0  0.20270  0.50510  0.60930  1.0000 -0.1206714403
C   C15       1.0  0.07240  0.74350  0.36780  1.0000 -0.0744868707
C   C16       1.0  0.92760  0.25650  0.63220  1.0000 -0.0744868707
C   C17       1.0  0.30500  0.86990  0.40540  1.0000 0.6253671903
C   C18       1.0  0.69500  0.13010  0.59460  1.0000 0.6253671903
C   C19       1.0  0.81430  0.02460  0.37160  1.0000 0.1003070383
C   C20       1.0  0.18570  0.97540  0.62840  1.0000 0.1003070383
C   C21       1.0  0.84830  0.06280  0.27790  1.0000 -0.1791640462
C   C22       1.0  0.15170  0.93720  0.72210  1.0000 -0.1791640462
C   C23       1.0  0.75880  0.02250  0.16730  1.0000 0.0337992195
C   C24       1.0  0.24120  0.97750  0.83270  1.0000 0.0337992195
C   C25       1.0  0.63750  0.94340  0.15510  1.0000 -0.1565645527
C   C26       1.0  0.36250  0.05660  0.84490  1.0000 -0.1565645527
C   C27       1.0  0.61310  0.90800  0.25350  1.0000 0.0832097004
C   C28       1.0  0.38690  0.09200  0.74650  1.0000 0.0832097004
C   C29       1.0  0.78320  0.07130  0.06270  1.0000 0.3992960859
C   C30       1.0  0.21680  0.92870  0.93730  1.0000 0.3992960859
C   C31       1.0  0.01800  0.98290  0.11970  1.0000 -0.1206714403
C   C32       1.0  0.98200  0.01710  0.88030  1.0000 -0.1206714403
C   C33       1.0  0.93880  0.10850  0.95110  1.0000 -0.1124435314
C   C34       1.0  0.06120  0.89150  0.04890  1.0000 -0.1124435314
C   C35       1.0  0.43970  0.56840  0.89830  1.0000 -0.1331116002
C   C36       1.0  0.56030  0.43160  0.10170  1.0000 -0.1331116002
C   C37       1.0  0.58880  0.56610  0.10470  1.0000 -0.1124435314
C   C38       1.0  0.41120  0.43390  0.89530  1.0000 -0.1124435314
C   C39       1.0  0.68100  0.68340  0.97870  1.0000 0.3992960859
C   C40       1.0  0.31900  0.31660  0.02130  1.0000 0.3992960859
C   C41       1.0  0.66510  0.72270  0.85990  1.0000 0.0373913101
C   C42       1.0  0.33490  0.27730  0.14010  1.0000 0.0373913101
C   C43       1.0  0.59070  0.81950  0.81110  1.0000 -0.1791640462
C   C44       1.0  0.40930  0.18050  0.18890  1.0000 -0.1791640462
C   C45       1.0  0.59300  0.85840  0.70700  1.0000 0.0832097004
C   C46       1.0  0.40700  0.14160  0.29300  1.0000 0.0832097004
C   C47       1.0  0.73390  0.71170  0.69510  1.0000 0.0743987966
C   C48       1.0  0.26610  0.28830  0.30490  1.0000 0.0743987966
C   C49       1.0  0.73950  0.66940  0.80000  1.0000 -0.1791640462
C   C50       1.0  0.26050  0.33060  0.20000  1.0000 -0.1791640462
C   C51       1.0  0.21100  0.75320  0.38230  1.0000 -0.2537150126
C   C52       1.0  0.78900  0.24680  0.61770  1.0000 -0.2537150126
N   N1        1.0  0.66170  0.80490  0.64760  1.0000 -0.2114829462
N   N2        1.0  0.33830  0.19510  0.35240  1.0000 -0.2114829462
N   N3        1.0  0.69850  0.94780  0.36080  1.0000 -0.2314801257
N   N4        1.0  0.30150  0.05220  0.63920  1.0000 -0.2314801257
N   N5        1.0  0.90410  0.05090  0.04480  1.0000 -0.0931614046
N   N6        1.0  0.09590  0.94910  0.95520  1.0000 -0.0931614046
N   N7        1.0  0.57740  0.60890  0.99100  1.0000 -0.1010751877
N   N8        1.0  0.42260  0.39110  0.00900  1.0000 -0.1010751877
O   O1        1.0  0.69390  0.71430  0.43810  1.0000 -0.5455856364
O   O2        1.0  0.30610  0.28570  0.56190  1.0000 -0.5455856364
O   O3        1.0  0.91990  0.79390  0.51760  1.0000 -0.5585328978
O   O4        1.0  0.08010  0.20610  0.48240  1.0000 -0.5585328978
O   O5        1.0  0.24550  0.96670  0.41100  1.0000 -0.5585328978
O   O6        1.0  0.75450  0.03330  0.58900  1.0000 -0.5585328978
O   O7        1.0  0.43270  0.86670  0.41710  1.0000 -0.5948815089
O   O8        1.0  0.56730  0.13330  0.58290  1.0000 -0.5948815089
O   O9        1.0  0.69050  0.13030  0.99790  1.0000 -0.5141738694
O   O10       1.0  0.30950  0.86970  0.00210  1.0000 -0.5141738694
O   O11       1.0  0.78940  0.71920  0.05990  1.0000 -0.4694830519
O   O12       1.0  0.21060  0.28080  0.94010  1.0000 -0.4694830519
