# DDEC6 charges by PACMAN v1.1 (https://github.com/mtap-research/PACMAN-charge/)
data_2015[Zn][pcu]3[FSR]2
_chemical_formula_sum              "Zn16 H144 C240 O52"
_cell_length_a       29.6905
_cell_length_b       29.6905
_cell_length_c       29.6905
_cell_angle_alpha    46.5246
_cell_angle_beta     46.5246
_cell_angle_gamma    46.5246

_symmetry_space_group_name_H-M    "P 1"
_symmetry_Int_Tables_number       1

loop_
  _symmetry_equiv_pos_as_xyz
  'x, y, z'

loop_
  _atom_site_type_symbol
  _atom_site_label
  _atom_site_symmetry_multiplicity
  _atom_site_fract_x
  _atom_site_fract_y
  _atom_site_fract_z
  _atom_site_occupancy
  _atom_site_charge
Zn  Zn1       1.0  0.13579  0.23088  0.07823  1.0000 0.9332968649
Zn  Zn2       1.0  0.23088  0.07823  0.13579  1.0000 0.9332968649
Zn  Zn3       1.0  0.07823  0.13579  0.23088  1.0000 0.9332968649
Zn  Zn4       1.0  0.63579  0.57823  0.73088  1.0000 0.9332968649
Zn  Zn5       1.0  0.73088  0.63579  0.57823  1.0000 0.9332968649
Zn  Zn6       1.0  0.57823  0.73088  0.63579  1.0000 0.9332968649
Zn  Zn7       1.0  0.18239  0.18239  0.18239  1.0000 0.9724814352
Zn  Zn8       1.0  0.68239  0.68239  0.68239  1.0000 0.9724814352
Zn  Zn9       1.0  0.95992  0.86266  0.80471  1.0000 0.9538459387
Zn  Zn10      1.0  0.86266  0.80471  0.95992  1.0000 0.9538459387
Zn  Zn11      1.0  0.80471  0.95992  0.86266  1.0000 0.9538459387
Zn  Zn12      1.0  0.45992  0.30471  0.36266  1.0000 0.9538459387
Zn  Zn13      1.0  0.36266  0.45992  0.30471  1.0000 0.9538459387
Zn  Zn14      1.0  0.30471  0.36266  0.45992  1.0000 0.9538459387
Zn  Zn15      1.0  0.90855  0.90855  0.90855  1.0000 0.9538459387
Zn  Zn16      1.0  0.40855  0.40855  0.40855  1.0000 0.9538459387
H   H1        1.0  0.13460  0.42680  0.95820  1.0000 0.1202418932
H   H2        1.0  0.42680  0.95820  0.13460  1.0000 0.1202418932
H   H3        1.0  0.95820  0.13460  0.42680  1.0000 0.1202418932
H   H4        1.0  0.63460  0.45820  0.92680  1.0000 0.1202418932
H   H5        1.0  0.92680  0.63460  0.45820  1.0000 0.1202418932
H   H6        1.0  0.45820  0.92680  0.63460  1.0000 0.1202418932
H   H7        1.0  0.21780  0.35620  0.06380  1.0000 0.1202418932
H   H8        1.0  0.35620  0.06380  0.21780  1.0000 0.1202418932
H   H9        1.0  0.06380  0.21780  0.35620  1.0000 0.1202418932
H   H10       1.0  0.71780  0.56380  0.85620  1.0000 0.1202418932
H   H11       1.0  0.85620  0.71780  0.56380  1.0000 0.1202418932
H   H12       1.0  0.56380  0.85620  0.71780  1.0000 0.1202418932
H   H13       1.0  0.94270  0.35880  0.05640  1.0000 0.1202418932
H   H14       1.0  0.35880  0.05640  0.94270  1.0000 0.1202418932
H   H15       1.0  0.05640  0.94270  0.35880  1.0000 0.1202418932
H   H16       1.0  0.44270  0.55640  0.85880  1.0000 0.1202418932
H   H17       1.0  0.85880  0.44270  0.55640  1.0000 0.1202418932
H   H18       1.0  0.55640  0.85880  0.44270  1.0000 0.1202418932
H   H19       1.0  0.90640  0.19360  0.22430  1.0000 0.1123277534
H   H20       1.0  0.19360  0.22430  0.90640  1.0000 0.1123277534
H   H21       1.0  0.22430  0.90640  0.19360  1.0000 0.1123277534
H   H22       1.0  0.40640  0.72430  0.69360  1.0000 0.1123277534
H   H23       1.0  0.69360  0.40640  0.72430  1.0000 0.1123277534
H   H24       1.0  0.72430  0.69360  0.40640  1.0000 0.1123277534
H   H25       1.0  0.14420  0.52350  0.89630  1.0000 0.1202418932
H   H26       1.0  0.52350  0.89630  0.14420  1.0000 0.1202418932
H   H27       1.0  0.89630  0.14420  0.52350  1.0000 0.1202418932
H   H28       1.0  0.64420  0.39630  0.02350  1.0000 0.1202418932
H   H29       1.0  0.02350  0.64420  0.39630  1.0000 0.1202418932
H   H30       1.0  0.39630  0.02350  0.64420  1.0000 0.1202418932
H   H31       1.0  0.22560  0.45790  0.00590  1.0000 0.1202418932
H   H32       1.0  0.45790  0.00590  0.22560  1.0000 0.1202418932
H   H33       1.0  0.00590  0.22560  0.45790  1.0000 0.1202418932
H   H34       1.0  0.72560  0.50590  0.95790  1.0000 0.1202418932
H   H35       1.0  0.95790  0.72560  0.50590  1.0000 0.1202418932
H   H36       1.0  0.50590  0.95790  0.72560  1.0000 0.1202418932
H   H37       1.0  0.84120  0.39600  0.05920  1.0000 0.1123277534
H   H38       1.0  0.39600  0.05920  0.84120  1.0000 0.1123277534
H   H39       1.0  0.05920  0.84120  0.39600  1.0000 0.1123277534
H   H40       1.0  0.34120  0.55920  0.89600  1.0000 0.1123277534
H   H41       1.0  0.89600  0.34120  0.55920  1.0000 0.1123277534
H   H42       1.0  0.55920  0.89600  0.34120  1.0000 0.1123277534
H   H43       1.0  0.81980  0.22550  0.21210  1.0000 0.1123277534
H   H44       1.0  0.22550  0.21210  0.81980  1.0000 0.1123277534
H   H45       1.0  0.21210  0.81980  0.22550  1.0000 0.1123277534
H   H46       1.0  0.31980  0.71210  0.72550  1.0000 0.1123277534
H   H47       1.0  0.72550  0.31980  0.71210  1.0000 0.1123277534
H   H48       1.0  0.71210  0.72550  0.31980  1.0000 0.1123277534
H   H49       1.0  0.10030  0.63040  0.90020  1.0000 0.1202418932
H   H50       1.0  0.63040  0.90020  0.10030  1.0000 0.1202418932
H   H51       1.0  0.90020  0.10030  0.63040  1.0000 0.1202418932
H   H52       1.0  0.60030  0.40020  0.13040  1.0000 0.1202418932
H   H53       1.0  0.13040  0.60030  0.40020  1.0000 0.1202418932
H   H54       1.0  0.40020  0.13040  0.60030  1.0000 0.1202418932
H   H55       1.0  0.28780  0.52860  0.89220  1.0000 0.1123277534
H   H56       1.0  0.52860  0.89220  0.28780  1.0000 0.1123277534
H   H57       1.0  0.89220  0.28780  0.52860  1.0000 0.1123277534
H   H58       1.0  0.78780  0.39220  0.02860  1.0000 0.1123277534
H   H59       1.0  0.02860  0.78780  0.39220  1.0000 0.1123277534
H   H60       1.0  0.39220  0.02860  0.78780  1.0000 0.1123277534
H   H61       1.0  0.71840  0.27610  0.23050  1.0000 0.1025985387
H   H62       1.0  0.27610  0.23050  0.71840  1.0000 0.1025985387
H   H63       1.0  0.23050  0.71840  0.27610  1.0000 0.1025985387
H   H64       1.0  0.21840  0.73050  0.77610  1.0000 0.1025985387
H   H65       1.0  0.77610  0.21840  0.73050  1.0000 0.1025985387
H   H66       1.0  0.73050  0.77610  0.21840  1.0000 0.1025985387
H   H67       1.0  0.11880  0.72230  0.82370  1.0000 0.1202418932
H   H68       1.0  0.72230  0.82370  0.11880  1.0000 0.1202418932
H   H69       1.0  0.82370  0.11880  0.72230  1.0000 0.1202418932
H   H70       1.0  0.61880  0.32370  0.22230  1.0000 0.1202418932
H   H71       1.0  0.22230  0.61880  0.32370  1.0000 0.1202418932
H   H72       1.0  0.32370  0.22230  0.61880  1.0000 0.1202418932
H   H73       1.0  0.93110  0.62330  0.96280  1.0000 0.1258374211
H   H74       1.0  0.62330  0.96280  0.93110  1.0000 0.1258374211
H   H75       1.0  0.96280  0.93110  0.62330  1.0000 0.1258374211
H   H76       1.0  0.43110  0.46280  0.12330  1.0000 0.1258374211
H   H77       1.0  0.12330  0.43110  0.46280  1.0000 0.1258374211
H   H78       1.0  0.46280  0.12330  0.43110  1.0000 0.1258374211
H   H79       1.0  0.97050  0.52740  0.95750  1.0000 0.1202418932
H   H80       1.0  0.52740  0.95750  0.97050  1.0000 0.1202418932
H   H81       1.0  0.95750  0.97050  0.52740  1.0000 0.1202418932
H   H82       1.0  0.47050  0.45750  0.02740  1.0000 0.1202418932
H   H83       1.0  0.02740  0.47050  0.45750  1.0000 0.1202418932
H   H84       1.0  0.45750  0.02740  0.47050  1.0000 0.1202418932
H   H85       1.0  0.11630  0.57860  0.77760  1.0000 0.1202418932
H   H86       1.0  0.57860  0.77760  0.11630  1.0000 0.1202418932
H   H87       1.0  0.77760  0.11630  0.57860  1.0000 0.1202418932
H   H88       1.0  0.61630  0.27760  0.07860  1.0000 0.1202418932
H   H89       1.0  0.07860  0.61630  0.27760  1.0000 0.1202418932
H   H90       1.0  0.27760  0.07860  0.61630  1.0000 0.1202418932
H   H91       1.0  0.06860  0.67900  0.77950  1.0000 0.1258374211
H   H92       1.0  0.67900  0.77950  0.06860  1.0000 0.1258374211
H   H93       1.0  0.77950  0.06860  0.67900  1.0000 0.1258374211
H   H94       1.0  0.56860  0.27950  0.17900  1.0000 0.1258374211
H   H95       1.0  0.17900  0.56860  0.27950  1.0000 0.1258374211
H   H96       1.0  0.27950  0.17900  0.56860  1.0000 0.1258374211
H   H97       1.0  0.04040  0.42340  0.96370  1.0000 0.1202418932
H   H98       1.0  0.42340  0.96370  0.04040  1.0000 0.1202418932
H   H99       1.0  0.96370  0.04040  0.42340  1.0000 0.1202418932
H   H100      1.0  0.54040  0.46370  0.92340  1.0000 0.1202418932
H   H101      1.0  0.92340  0.54040  0.46370  1.0000 0.1202418932
H   H102      1.0  0.46370  0.92340  0.54040  1.0000 0.1202418932
H   H103      1.0  0.07850  0.32840  0.95730  1.0000 0.1202418932
H   H104      1.0  0.32840  0.95730  0.07850  1.0000 0.1202418932
H   H105      1.0  0.95730  0.07850  0.32840  1.0000 0.1202418932
H   H106      1.0  0.57850  0.45730  0.82840  1.0000 0.1202418932
H   H107      1.0  0.82840  0.57850  0.45730  1.0000 0.1202418932
H   H108      1.0  0.45730  0.82840  0.57850  1.0000 0.1202418932
H   H109      1.0  0.13010  0.32660  0.85530  1.0000 0.1123277534
H   H110      1.0  0.32660  0.85530  0.13010  1.0000 0.1123277534
H   H111      1.0  0.85530  0.13010  0.32660  1.0000 0.1123277534
H   H112      1.0  0.63010  0.35530  0.82660  1.0000 0.1123277534
H   H113      1.0  0.82660  0.63010  0.35530  1.0000 0.1123277534
H   H114      1.0  0.35530  0.82660  0.63010  1.0000 0.1123277534
H   H115      1.0  0.12280  0.51210  0.75990  1.0000 0.1123277534
H   H116      1.0  0.51210  0.75990  0.12280  1.0000 0.1123277534
H   H117      1.0  0.75990  0.12280  0.51210  1.0000 0.1123277534
H   H118      1.0  0.62280  0.25990  0.01210  1.0000 0.1123277534
H   H119      1.0  0.01210  0.62280  0.25990  1.0000 0.1123277534
H   H120      1.0  0.25990  0.01210  0.62280  1.0000 0.1123277534
H   H121      1.0  0.13040  0.36610  0.75280  1.0000 0.1202418932
H   H122      1.0  0.36610  0.75280  0.13040  1.0000 0.1202418932
H   H123      1.0  0.75280  0.13040  0.36610  1.0000 0.1202418932
H   H124      1.0  0.63040  0.25280  0.86610  1.0000 0.1202418932
H   H125      1.0  0.86610  0.63040  0.25280  1.0000 0.1202418932
H   H126      1.0  0.25280  0.86610  0.63040  1.0000 0.1202418932
H   H127      1.0  0.20030  0.34960  0.65620  1.0000 0.1202418932
H   H128      1.0  0.34960  0.65620  0.20030  1.0000 0.1202418932
H   H129      1.0  0.65620  0.20030  0.34960  1.0000 0.1202418932
H   H130      1.0  0.70030  0.15620  0.84960  1.0000 0.1202418932
H   H131      1.0  0.84960  0.70030  0.15620  1.0000 0.1202418932
H   H132      1.0  0.15620  0.84960  0.70030  1.0000 0.1202418932
H   H133      1.0  0.29800  0.45140  0.58000  1.0000 0.1202418932
H   H134      1.0  0.45140  0.58000  0.29800  1.0000 0.1202418932
H   H135      1.0  0.58000  0.29800  0.45140  1.0000 0.1202418932
H   H136      1.0  0.79800  0.08000  0.95140  1.0000 0.1202418932
H   H137      1.0  0.95140  0.79800  0.08000  1.0000 0.1202418932
H   H138      1.0  0.08000  0.95140  0.79800  1.0000 0.1202418932
H   H139      1.0  0.22390  0.47060  0.67930  1.0000 0.1123277534
H   H140      1.0  0.47060  0.67930  0.22390  1.0000 0.1123277534
H   H141      1.0  0.67930  0.22390  0.47060  1.0000 0.1123277534
H   H142      1.0  0.72390  0.17930  0.97060  1.0000 0.1123277534
H   H143      1.0  0.97060  0.72390  0.17930  1.0000 0.1123277534
H   H144      1.0  0.17930  0.97060  0.72390  1.0000 0.1123277534
C   C1        1.0  0.17200  0.31160  0.05640  1.0000 0.6010297295
C   C2        1.0  0.31160  0.05640  0.17200  1.0000 0.6010297295
C   C3        1.0  0.05640  0.17200  0.31160  1.0000 0.6010297295
C   C4        1.0  0.67200  0.55640  0.81160  1.0000 0.6010297295
C   C5        1.0  0.81160  0.67200  0.55640  1.0000 0.6010297295
C   C6        1.0  0.55640  0.81160  0.67200  1.0000 0.6010297295
C   C7        1.0  0.00403  0.23913  0.14183  1.0000 0.5847786125
C   C8        1.0  0.23913  0.14183  0.00403  1.0000 0.5847786125
C   C9        1.0  0.14183  0.00403  0.23913  1.0000 0.5847786125
C   C10       1.0  0.50403  0.64183  0.73913  1.0000 0.5847786125
C   C11       1.0  0.73913  0.50403  0.64183  1.0000 0.5847786125
C   C12       1.0  0.64183  0.73913  0.50403  1.0000 0.5847786125
C   C13       1.0  0.17840  0.38000  0.01370  1.0000 -0.010377798
C   C14       1.0  0.38000  0.01370  0.17840  1.0000 -0.010377798
C   C15       1.0  0.01370  0.17840  0.38000  1.0000 -0.010377798
C   C16       1.0  0.67840  0.51370  0.88000  1.0000 -0.010377798
C   C17       1.0  0.88000  0.67840  0.51370  1.0000 -0.010377798
C   C18       1.0  0.51370  0.88000  0.67840  1.0000 -0.010377798
C   C19       1.0  0.93802  0.26952  0.13782  1.0000 -0.010377798
C   C20       1.0  0.26952  0.13782  0.93802  1.0000 -0.010377798
C   C21       1.0  0.13782  0.93802  0.26952  1.0000 -0.010377798
C   C22       1.0  0.43802  0.63782  0.76952  1.0000 -0.010377798
C   C23       1.0  0.76952  0.43802  0.63782  1.0000 -0.010377798
C   C24       1.0  0.63782  0.76952  0.43802  1.0000 -0.010377798
C   C25       1.0  0.15613  0.43113  0.96663  1.0000 -0.0964899603
C   C26       1.0  0.43113  0.96663  0.15613  1.0000 -0.0964899603
C   C27       1.0  0.96663  0.15613  0.43113  1.0000 -0.0964899603
C   C28       1.0  0.65613  0.46663  0.93113  1.0000 -0.0964899603
C   C29       1.0  0.93113  0.65613  0.46663  1.0000 -0.0964899603
C   C30       1.0  0.46663  0.93113  0.65613  1.0000 -0.0964899603
C   C31       1.0  0.20377  0.39087  0.02837  1.0000 -0.1095897541
C   C32       1.0  0.39087  0.02837  0.20377  1.0000 -0.1095897541
C   C33       1.0  0.02837  0.20377  0.39087  1.0000 -0.1095897541
C   C34       1.0  0.70377  0.52837  0.89087  1.0000 -0.1095897541
C   C35       1.0  0.89087  0.70377  0.52837  1.0000 -0.1095897541
C   C36       1.0  0.52837  0.89087  0.70377  1.0000 -0.1095897541
C   C37       1.0  0.91844  0.33194  0.08814  1.0000 -0.1095897541
C   C38       1.0  0.33194  0.08814  0.91844  1.0000 -0.1095897541
C   C39       1.0  0.08814  0.91844  0.33194  1.0000 -0.1095897541
C   C40       1.0  0.41844  0.58814  0.83194  1.0000 -0.1095897541
C   C41       1.0  0.83194  0.41844  0.58814  1.0000 -0.1095897541
C   C42       1.0  0.58814  0.83194  0.41844  1.0000 -0.1095897541
C   C43       1.0  0.89649  0.23259  0.18709  1.0000 -0.1095897541
C   C44       1.0  0.23259  0.18709  0.89649  1.0000 -0.1095897541
C   C45       1.0  0.18709  0.89649  0.23259  1.0000 -0.1095897541
C   C46       1.0  0.39649  0.68709  0.73259  1.0000 -0.1095897541
C   C47       1.0  0.73259  0.39649  0.68709  1.0000 -0.1095897541
C   C48       1.0  0.68709  0.73259  0.39649  1.0000 -0.1095897541
C   C49       1.0  0.16159  0.48979  0.92939  1.0000 -0.1495265427
C   C50       1.0  0.48979  0.92939  0.16159  1.0000 -0.1495265427
C   C51       1.0  0.92939  0.16159  0.48979  1.0000 -0.1495265427
C   C52       1.0  0.66159  0.42939  0.98979  1.0000 -0.1495265427
C   C53       1.0  0.98979  0.66159  0.42939  1.0000 -0.1495265427
C   C54       1.0  0.42939  0.98979  0.66159  1.0000 -0.1495265427
C   C55       1.0  0.20974  0.45144  0.99324  1.0000 -0.1433799496
C   C56       1.0  0.45144  0.99324  0.20974  1.0000 -0.1433799496
C   C57       1.0  0.99324  0.20974  0.45144  1.0000 -0.1433799496
C   C58       1.0  0.70974  0.49324  0.95144  1.0000 -0.1433799496
C   C59       1.0  0.95144  0.70974  0.49324  1.0000 -0.1433799496
C   C60       1.0  0.49324  0.95144  0.70974  1.0000 -0.1433799496
C   C61       1.0  0.85923  0.35233  0.08883  1.0000 -0.1575863152
C   C62       1.0  0.35233  0.08883  0.85923  1.0000 -0.1575863152
C   C63       1.0  0.08883  0.85923  0.35233  1.0000 -0.1575863152
C   C64       1.0  0.35923  0.58883  0.85233  1.0000 -0.1575863152
C   C65       1.0  0.85233  0.35923  0.58883  1.0000 -0.1575863152
C   C66       1.0  0.58883  0.85233  0.35923  1.0000 -0.1575863152
C   C67       1.0  0.84382  0.25242  0.18132  1.0000 -0.1315136619
C   C68       1.0  0.25242  0.18132  0.84382  1.0000 -0.1315136619
C   C69       1.0  0.18132  0.84382  0.25242  1.0000 -0.1315136619
C   C70       1.0  0.34382  0.68132  0.75242  1.0000 -0.1315136619
C   C71       1.0  0.75242  0.34382  0.68132  1.0000 -0.1315136619
C   C72       1.0  0.68132  0.75242  0.34382  1.0000 -0.1315136619
C   C73       1.0  0.19037  0.50317  0.93697  1.0000 0.0696111837
C   C74       1.0  0.50317  0.93697  0.19037  1.0000 0.0696111837
C   C75       1.0  0.93697  0.19037  0.50317  1.0000 0.0696111837
C   C76       1.0  0.69037  0.43697  0.00317  1.0000 0.0696111837
C   C77       1.0  0.00317  0.69037  0.43697  1.0000 0.0696111837
C   C78       1.0  0.43697  0.00317  0.69037  1.0000 0.0696111837
C   C79       1.0  0.82614  0.31014  0.13174  1.0000 0.0559032355
C   C80       1.0  0.31014  0.13174  0.82614  1.0000 0.0559032355
C   C81       1.0  0.13174  0.82614  0.31014  1.0000 0.0559032355
C   C82       1.0  0.32614  0.63174  0.81014  1.0000 0.0559032355
C   C83       1.0  0.81014  0.32614  0.63174  1.0000 0.0559032355
C   C84       1.0  0.63174  0.81014  0.32614  1.0000 0.0559032355
C   C85       1.0  0.19483  0.56693  0.89983  1.0000 0.0783651397
C   C86       1.0  0.56693  0.89983  0.19483  1.0000 0.0783651397
C   C87       1.0  0.89983  0.19483  0.56693  1.0000 0.0783651397
C   C88       1.0  0.69483  0.39983  0.06693  1.0000 0.0783651397
C   C89       1.0  0.06693  0.69483  0.39983  1.0000 0.0783651397
C   C90       1.0  0.39983  0.06693  0.69483  1.0000 0.0783651397
C   C91       1.0  0.76155  0.33645  0.13045  1.0000 0.0917618405
C   C92       1.0  0.33645  0.13045  0.76155  1.0000 0.0917618405
C   C93       1.0  0.13045  0.76155  0.33645  1.0000 0.0917618405
C   C94       1.0  0.26155  0.63045  0.83645  1.0000 0.0917618405
C   C95       1.0  0.83645  0.26155  0.63045  1.0000 0.0917618405
C   C96       1.0  0.63045  0.83645  0.26155  1.0000 0.0917618405
C   C97       1.0  0.14252  0.62862  0.88142  1.0000 -0.1433799496
C   C98       1.0  0.62862  0.88142  0.14252  1.0000 -0.1433799496
C   C99       1.0  0.88142  0.14252  0.62862  1.0000 -0.1433799496
C   C100      1.0  0.64252  0.38142  0.12862  1.0000 -0.1433799496
C   C101      1.0  0.12862  0.64252  0.38142  1.0000 -0.1433799496
C   C102      1.0  0.38142  0.12862  0.64252  1.0000 -0.1433799496
C   C103      1.0  0.25336  0.56906  0.87826  1.0000 -0.2079647525
C   C104      1.0  0.56906  0.87826  0.25336  1.0000 -0.2079647525
C   C105      1.0  0.87826  0.25336  0.56906  1.0000 -0.2079647525
C   C106      1.0  0.75336  0.37826  0.06906  1.0000 -0.2079647525
C   C107      1.0  0.06906  0.75336  0.37826  1.0000 -0.2079647525
C   C108      1.0  0.37826  0.06906  0.75336  1.0000 -0.2079647525
C   C109      1.0  0.71268  0.30958  0.19008  1.0000 -0.1781294886
C   C110      1.0  0.30958  0.19008  0.71268  1.0000 -0.1781294886
C   C111      1.0  0.19008  0.71268  0.30958  1.0000 -0.1781294886
C   C112      1.0  0.21268  0.69008  0.80958  1.0000 -0.1781294886
C   C113      1.0  0.80958  0.21268  0.69008  1.0000 -0.1781294886
C   C114      1.0  0.69008  0.80958  0.21268  1.0000 -0.1781294886
C   C115      1.0  0.15320  0.68300  0.83820  1.0000 -0.0705554057
C   C116      1.0  0.68300  0.83820  0.15320  1.0000 -0.0705554057
C   C117      1.0  0.83820  0.15320  0.68300  1.0000 -0.0705554057
C   C118      1.0  0.65320  0.33820  0.18300  1.0000 -0.0705554057
C   C119      1.0  0.18300  0.65320  0.33820  1.0000 -0.0705554057
C   C120      1.0  0.33820  0.18300  0.65320  1.0000 -0.0705554057
C   C121      1.0  0.96305  0.72762  0.87504  1.0000 0.591263886
C   C122      1.0  0.72762  0.87504  0.96305  1.0000 0.591263886
C   C123      1.0  0.87504  0.96305  0.72762  1.0000 0.591263886
C   C124      1.0  0.46305  0.37504  0.22762  1.0000 0.591263886
C   C125      1.0  0.22762  0.46305  0.37504  1.0000 0.591263886
C   C126      1.0  0.37504  0.22762  0.46305  1.0000 0.591263886
C   C127      1.0  0.99198  0.66502  0.87067  1.0000 -0.0601112213
C   C128      1.0  0.66502  0.87067  0.99198  1.0000 -0.0601112213
C   C129      1.0  0.87067  0.99198  0.66502  1.0000 -0.0601112213
C   C130      1.0  0.49198  0.37067  0.16502  1.0000 -0.0601112213
C   C131      1.0  0.16502  0.49198  0.37067  1.0000 -0.0601112213
C   C132      1.0  0.37067  0.16502  0.49198  1.0000 -0.0601112213
C   C133      1.0  0.96691  0.61653  0.92305  1.0000 -0.0896909345
C   C134      1.0  0.61653  0.92305  0.96691  1.0000 -0.0896909345
C   C135      1.0  0.92305  0.96691  0.61653  1.0000 -0.0896909345
C   C136      1.0  0.46691  0.42305  0.11653  1.0000 -0.0896909345
C   C137      1.0  0.11653  0.46691  0.42305  1.0000 -0.0896909345
C   C138      1.0  0.42305  0.11653  0.46691  1.0000 -0.0896909345
C   C139      1.0  0.99141  0.55755  0.92099  1.0000 -0.1495265427
C   C140      1.0  0.55755  0.92099  0.99141  1.0000 -0.1495265427
C   C141      1.0  0.92099  0.99141  0.55755  1.0000 -0.1495265427
C   C142      1.0  0.49141  0.42099  0.05755  1.0000 -0.1495265427
C   C143      1.0  0.05755  0.49141  0.42099  1.0000 -0.1495265427
C   C144      1.0  0.42099  0.05755  0.49141  1.0000 -0.1495265427
C   C145      1.0  0.04662  0.54402  0.86458  1.0000 0.0696111837
C   C146      1.0  0.54402  0.86458  0.04662  1.0000 0.0696111837
C   C147      1.0  0.86458  0.04662  0.54402  1.0000 0.0696111837
C   C148      1.0  0.54662  0.36458  0.04402  1.0000 0.0696111837
C   C149      1.0  0.04402  0.54662  0.36458  1.0000 0.0696111837
C   C150      1.0  0.36458  0.04402  0.54662  1.0000 0.0696111837
C   C151      1.0  0.07632  0.58843  0.81429  1.0000 -0.1575863152
C   C152      1.0  0.58843  0.81429  0.07632  1.0000 -0.1495265427
C   C153      1.0  0.81429  0.07632  0.58843  1.0000 -0.1495265427
C   C154      1.0  0.57632  0.31429  0.08843  1.0000 -0.1495265427
C   C155      1.0  0.08843  0.57632  0.31429  1.0000 -0.1575863152
C   C156      1.0  0.31429  0.08843  0.57632  1.0000 -0.1575863152
C   C157      1.0  0.04826  0.64840  0.81652  1.0000 -0.0896909345
C   C158      1.0  0.64840  0.81652  0.04826  1.0000 -0.0896909345
C   C159      1.0  0.81652  0.04826  0.64840  1.0000 -0.0896909345
C   C160      1.0  0.54826  0.31652  0.14840  1.0000 -0.0896909345
C   C161      1.0  0.14840  0.54826  0.31652  1.0000 -0.0896909345
C   C162      1.0  0.31652  0.14840  0.54826  1.0000 -0.0896909345
C   C163      1.0  0.07363  0.48040  0.86264  1.0000 0.0783651397
C   C164      1.0  0.48040  0.86264  0.07363  1.0000 0.0783651397
C   C165      1.0  0.86264  0.07363  0.48040  1.0000 0.0783651397
C   C166      1.0  0.57363  0.36264  0.98040  1.0000 0.0783651397
C   C167      1.0  0.98040  0.57363  0.36264  1.0000 0.0783651397
C   C168      1.0  0.36264  0.98040  0.57363  1.0000 0.0783651397
C   C169      1.0  0.06286  0.42341  0.92143  1.0000 -0.1575863152
C   C170      1.0  0.42341  0.92143  0.06286  1.0000 -0.1575863152
C   C171      1.0  0.92143  0.06286  0.42341  1.0000 -0.1575863152
C   C172      1.0  0.56286  0.42143  0.92341  1.0000 -0.1575863152
C   C173      1.0  0.92341  0.56286  0.42143  1.0000 -0.1575863152
C   C174      1.0  0.42143  0.92341  0.56286  1.0000 -0.1575863152
C   C175      1.0  0.08566  0.36630  0.91737  1.0000 -0.0601112213
C   C176      1.0  0.36630  0.91737  0.08566  1.0000 -0.0601112213
C   C177      1.0  0.91737  0.08566  0.36630  1.0000 -0.0601112213
C   C178      1.0  0.58566  0.41737  0.86630  1.0000 -0.0601112213
C   C179      1.0  0.86630  0.58566  0.41737  1.0000 -0.0601112213
C   C180      1.0  0.41737  0.86630  0.58566  1.0000 -0.0601112213
C   C181      1.0  0.11850  0.36421  0.85614  1.0000 -0.1575863152
C   C182      1.0  0.36421  0.85614  0.11850  1.0000 -0.1575863152
C   C183      1.0  0.85614  0.11850  0.36421  1.0000 -0.1575863152
C   C184      1.0  0.61850  0.35614  0.86421  1.0000 -0.1575863152
C   C185      1.0  0.86421  0.61850  0.35614  1.0000 -0.1575863152
C   C186      1.0  0.35614  0.86421  0.61850  1.0000 -0.1575863152
C   C187      1.0  0.13441  0.41812  0.79565  1.0000 0.0783651397
C   C188      1.0  0.41812  0.79565  0.13441  1.0000 0.0783651397
C   C189      1.0  0.79565  0.13441  0.41812  1.0000 0.0783651397
C   C190      1.0  0.63441  0.29565  0.91812  1.0000 0.0783651397
C   C191      1.0  0.91812  0.63441  0.29565  1.0000 0.0783651397
C   C192      1.0  0.29565  0.91812  0.63441  1.0000 0.0783651397
C   C193      1.0  0.11194  0.47575  0.79991  1.0000 -0.2010096702
C   C194      1.0  0.47575  0.79991  0.11194  1.0000 -0.2010096702
C   C195      1.0  0.79991  0.11194  0.47575  1.0000 -0.2010096702
C   C196      1.0  0.61194  0.29991  0.97575  1.0000 -0.2010096702
C   C197      1.0  0.97575  0.61194  0.29991  1.0000 -0.2010096702
C   C198      1.0  0.29991  0.97575  0.61194  1.0000 -0.2010096702
C   C199      1.0  0.17357  0.41447  0.72912  1.0000 0.0783651397
C   C200      1.0  0.41447  0.72912  0.17357  1.0000 0.0783651397
C   C201      1.0  0.72912  0.17357  0.41447  1.0000 0.0783651397
C   C202      1.0  0.67357  0.22912  0.91447  1.0000 0.0783651397
C   C203      1.0  0.91447  0.67357  0.22912  1.0000 0.0783651397
C   C204      1.0  0.22912  0.91447  0.67357  1.0000 0.0783651397
C   C205      1.0  0.16459  0.38213  0.71911  1.0000 -0.1575863152
C   C206      1.0  0.38213  0.71911  0.16459  1.0000 -0.1575863152
C   C207      1.0  0.71911  0.16459  0.38213  1.0000 -0.1575863152
C   C208      1.0  0.66459  0.21911  0.88213  1.0000 -0.1575863152
C   C209      1.0  0.88213  0.66459  0.21911  1.0000 -0.1575863152
C   C210      1.0  0.21911  0.88213  0.66459  1.0000 -0.1575863152
C   C211      1.0  0.20522  0.37392  0.66062  1.0000 -0.0896909345
C   C212      1.0  0.37392  0.66062  0.20522  1.0000 -0.0896909345
C   C213      1.0  0.66062  0.20522  0.37392  1.0000 -0.0896909345
C   C214      1.0  0.70522  0.16062  0.87392  1.0000 -0.0896909345
C   C215      1.0  0.87392  0.70522  0.16062  1.0000 -0.0896909345
C   C216      1.0  0.16062  0.87392  0.70522  1.0000 -0.0896909345
C   C217      1.0  0.25343  0.40003  0.60763  1.0000 -0.0601112213
C   C218      1.0  0.40003  0.60763  0.25343  1.0000 -0.0601112213
C   C219      1.0  0.60763  0.25343  0.40003  1.0000 -0.0601112213
C   C220      1.0  0.75343  0.10763  0.90003  1.0000 -0.0601112213
C   C221      1.0  0.90003  0.75343  0.10763  1.0000 -0.0601112213
C   C222      1.0  0.10763  0.90003  0.75343  1.0000 -0.0601112213
C   C223      1.0  0.26397  0.43527  0.61447  1.0000 -0.0896909345
C   C224      1.0  0.43527  0.61447  0.26397  1.0000 -0.0896909345
C   C225      1.0  0.61447  0.26397  0.43527  1.0000 -0.0896909345
C   C226      1.0  0.76397  0.11447  0.93527  1.0000 -0.0896909345
C   C227      1.0  0.93527  0.76397  0.11447  1.0000 -0.0896909345
C   C228      1.0  0.11447  0.93527  0.76397  1.0000 -0.0896909345
C   C229      1.0  0.22111  0.44461  0.67481  1.0000 -0.1575863152
C   C230      1.0  0.44461  0.67481  0.22111  1.0000 -0.1575863152
C   C231      1.0  0.67481  0.22111  0.44461  1.0000 -0.1575863152
C   C232      1.0  0.72111  0.17481  0.94461  1.0000 -0.1575863152
C   C233      1.0  0.94461  0.72111  0.17481  1.0000 -0.1575863152
C   C234      1.0  0.17481  0.94461  0.72111  1.0000 -0.1575863152
C   C235      1.0  0.29702  0.39252  0.54302  1.0000 0.591263886
C   C236      1.0  0.39252  0.54302  0.29702  1.0000 0.591263886
C   C237      1.0  0.54302  0.29702  0.39252  1.0000 0.591263886
C   C238      1.0  0.79702  0.04302  0.89252  1.0000 0.591263886
C   C239      1.0  0.89252  0.79702  0.04302  1.0000 0.591263886
C   C240      1.0  0.04302  0.89252  0.79702  1.0000 0.591263886
O   O1        1.0  0.15159  0.30611  0.03316  1.0000 -0.5679411534
O   O2        1.0  0.30611  0.03316  0.15159  1.0000 -0.5679411534
O   O3        1.0  0.03316  0.15159  0.30611  1.0000 -0.5679411534
O   O4        1.0  0.65159  0.53316  0.80611  1.0000 -0.5679411534
O   O5        1.0  0.80611  0.65159  0.53316  1.0000 -0.5679411534
O   O6        1.0  0.53316  0.80611  0.65159  1.0000 -0.5679411534
O   O7        1.0  0.15756  0.15756  0.15756  1.0000 -1.0093468967
O   O8        1.0  0.65756  0.65756  0.65756  1.0000 -1.0093468967
O   O9        1.0  0.04228  0.26797  0.09322  1.0000 -0.5097403669
O   O10       1.0  0.26797  0.09322  0.04228  1.0000 -0.5097403669
O   O11       1.0  0.09322  0.04228  0.26797  1.0000 -0.5097403669
O   O12       1.0  0.54228  0.59322  0.76797  1.0000 -0.5097403669
O   O13       1.0  0.76797  0.54228  0.59322  1.0000 -0.5097403669
O   O14       1.0  0.59322  0.76797  0.54228  1.0000 -0.5097403669
O   O15       1.0  0.18388  0.19353  0.01403  1.0000 -0.5555522982
O   O16       1.0  0.19353  0.01403  0.18388  1.0000 -0.5555522982
O   O17       1.0  0.01403  0.18388  0.19353  1.0000 -0.5555522982
O   O18       1.0  0.68388  0.51403  0.69353  1.0000 -0.5555522982
O   O19       1.0  0.69353  0.68388  0.51403  1.0000 -0.5555522982
O   O20       1.0  0.51403  0.69353  0.68388  1.0000 -0.5555522982
O   O21       1.0  0.19211  0.26651  0.10091  1.0000 -0.5173664931
O   O22       1.0  0.26651  0.10091  0.19211  1.0000 -0.5173664931
O   O23       1.0  0.10091  0.19211  0.26651  1.0000 -0.5173664931
O   O24       1.0  0.69211  0.60091  0.76651  1.0000 -0.5173664931
O   O25       1.0  0.76651  0.69211  0.60091  1.0000 -0.5173664931
O   O26       1.0  0.60091  0.76651  0.69211  1.0000 -0.5173664931
O   O27       1.0  0.99317  0.76828  0.82313  1.0000 -0.5460032119
O   O28       1.0  0.76828  0.82313  0.99317  1.0000 -0.5460032119
O   O29       1.0  0.82313  0.99317  0.76828  1.0000 -0.5460032119
O   O30       1.0  0.49317  0.32313  0.26828  1.0000 -0.5460032119
O   O31       1.0  0.26828  0.49317  0.32313  1.0000 -0.5460032119
O   O32       1.0  0.32313  0.26828  0.49317  1.0000 -0.5460032119
O   O33       1.0  0.91654  0.73382  0.92888  1.0000 -0.5173664931
O   O34       1.0  0.73382  0.92888  0.91654  1.0000 -0.5173664931
O   O35       1.0  0.92888  0.91654  0.73382  1.0000 -0.5173664931
O   O36       1.0  0.41654  0.42888  0.23382  1.0000 -0.5173664931
O   O37       1.0  0.23382  0.41654  0.42888  1.0000 -0.5173664931
O   O38       1.0  0.42888  0.23382  0.41654  1.0000 -0.5173664931
O   O39       1.0  0.34315  0.41669  0.49561  1.0000 -0.5460032119
O   O40       1.0  0.41669  0.49561  0.34315  1.0000 -0.5460032119
O   O41       1.0  0.49561  0.34315  0.41669  1.0000 -0.5460032119
O   O42       1.0  0.84315  0.99561  0.91669  1.0000 -0.5460032119
O   O43       1.0  0.91669  0.84315  0.99561  1.0000 -0.5460032119
O   O44       1.0  0.99561  0.91669  0.84315  1.0000 -0.5460032119
O   O45       1.0  0.28018  0.36767  0.53572  1.0000 -0.5832402054
O   O46       1.0  0.36767  0.53572  0.28018  1.0000 -0.5832402054
O   O47       1.0  0.53572  0.28018  0.36767  1.0000 -0.5832402054
O   O48       1.0  0.78018  0.03572  0.86767  1.0000 -0.5832402054
O   O49       1.0  0.86767  0.78018  0.03572  1.0000 -0.5832402054
O   O50       1.0  0.03572  0.86767  0.78018  1.0000 -0.5832402054
O   O51       1.0  0.88390  0.88390  0.88390  1.0000 -1.0219248477
O   O52       1.0  0.38390  0.38390  0.38390  1.0000 -1.0219248477
