# DDEC6 charges by PACMAN v1.1 (https://github.com/mtap-research/PACMAN-charge/)
data_2015[Zn][nan]3[FSR]32
_chemical_formula_sum              "Zn8 H60 C56 N4 O32"
_cell_length_a       10.3287
_cell_length_b       11.7366
_cell_length_c       20.3354
_cell_angle_alpha    90
_cell_angle_beta     90
_cell_angle_gamma    90

_symmetry_space_group_name_H-M    "P 1"
_symmetry_Int_Tables_number       1

loop_
  _symmetry_equiv_pos_as_xyz
  'x, y, z'

loop_
  _atom_site_type_symbol
  _atom_site_label
  _atom_site_symmetry_multiplicity
  _atom_site_fract_x
  _atom_site_fract_y
  _atom_site_fract_z
  _atom_site_occupancy
  _atom_site_charge
Zn  Zn1       1.0  0.96092  0.42088  0.50681  1.0000 0.9665582953
Zn  Zn2       1.0  0.53908  0.57912  0.00681  1.0000 0.9665582953
Zn  Zn3       1.0  0.46092  0.07912  0.49319  1.0000 0.9665582953
Zn  Zn4       1.0  0.03908  0.92088  0.99319  1.0000 0.9665582953
Zn  Zn5       1.0  0.64691  0.32501  0.51018  1.0000 0.9433412132
Zn  Zn6       1.0  0.85309  0.67499  0.01018  1.0000 0.9433412132
Zn  Zn7       1.0  0.14691  0.17499  0.48982  1.0000 0.9433412132
Zn  Zn8       1.0  0.35309  0.82501  0.98982  1.0000 0.9433412132
H   H1        1.0  0.74040  0.02770  0.48260  1.0000 0.0870611099
H   H2        1.0  0.75960  0.97230  0.98260  1.0000 0.0870611099
H   H3        1.0  0.24040  0.47230  0.51740  1.0000 0.0870611099
H   H4        1.0  0.25960  0.52770  0.01740  1.0000 0.0870611099
H   H5        1.0  0.64640  0.06030  0.37750  1.0000 0.14089874
H   H6        1.0  0.85360  0.93970  0.87750  1.0000 0.14089874
H   H7        1.0  0.14640  0.43970  0.62250  1.0000 0.14089874
H   H8        1.0  0.35360  0.56030  0.12250  1.0000 0.14089874
H   H9        1.0  0.80100  0.06250  0.37230  1.0000 0.1309849671
H   H10       1.0  0.69900  0.93750  0.87230  1.0000 0.1309849671
H   H11       1.0  0.30100  0.43750  0.62770  1.0000 0.1309849671
H   H12       1.0  0.19900  0.56250  0.12770  1.0000 0.1309849671
H   H13       1.0  0.72120  0.17940  0.37220  1.0000 0.14089874
H   H14       1.0  0.77880  0.82060  0.87220  1.0000 0.14089874
H   H15       1.0  0.22120  0.32060  0.62780  1.0000 0.14089874
H   H16       1.0  0.27880  0.67940  0.12780  1.0000 0.14089874
H   H17       1.0  0.93880  0.51830  0.31070  1.0000 0.1127965776
H   H18       1.0  0.56120  0.48170  0.81070  1.0000 0.1127965776
H   H19       1.0  0.43880  0.98170  0.68930  1.0000 0.1127965776
H   H20       1.0  0.06120  0.01830  0.18930  1.0000 0.1127965776
H   H21       1.0  0.91740  0.55710  0.19830  1.0000 0.1309849671
H   H22       1.0  0.58260  0.44290  0.69830  1.0000 0.1309849671
H   H23       1.0  0.41740  0.94290  0.80170  1.0000 0.1309849671
H   H24       1.0  0.08260  0.05710  0.30170  1.0000 0.1241232512
H   H25       1.0  0.53500  0.48680  0.20830  1.0000 0.1241232512
H   H26       1.0  0.96500  0.51320  0.70830  1.0000 0.1241232512
H   H27       1.0  0.03500  0.01320  0.79170  1.0000 0.1241232512
H   H28       1.0  0.46500  0.98680  0.29170  1.0000 0.1241232512
H   H29       1.0  0.55780  0.44010  0.31960  1.0000 0.1309849671
H   H30       1.0  0.94220  0.55990  0.81960  1.0000 0.1309849671
H   H31       1.0  0.05780  0.05990  0.68040  1.0000 0.1309849671
H   H32       1.0  0.44220  0.94010  0.18040  1.0000 0.1309849671
H   H33       1.0  0.94980  0.64900  0.43610  1.0000 0.1011484218
H   H34       1.0  0.55020  0.35100  0.93610  1.0000 0.1011484218
H   H35       1.0  0.44980  0.85100  0.56390  1.0000 0.1011484218
H   H36       1.0  0.05020  0.14900  0.06390  1.0000 0.1011484218
H   H37       1.0  0.21690  0.86610  0.50080  1.0000 0.14089874
H   H38       1.0  0.28310  0.13390  0.00080  1.0000 0.14089874
H   H39       1.0  0.71690  0.63390  0.49920  1.0000 0.14089874
H   H40       1.0  0.78310  0.36610  0.99920  1.0000 0.14089874
H   H41       1.0  0.25290  0.73350  0.50370  1.0000 0.1309849671
H   H42       1.0  0.24710  0.26650  0.00370  1.0000 0.1309849671
H   H43       1.0  0.75290  0.76650  0.49630  1.0000 0.1309849671
H   H44       1.0  0.74710  0.23350  0.99630  1.0000 0.1309849671
H   H45       1.0  0.14920  0.78510  0.55400  1.0000 0.14089874
H   H46       1.0  0.35080  0.21490  0.05400  1.0000 0.14089874
H   H47       1.0  0.64920  0.71490  0.44600  1.0000 0.14089874
H   H48       1.0  0.85080  0.28510  0.94600  1.0000 0.14089874
H   H49       1.0  0.09770  0.91490  0.41700  1.0000 0.1501334486
H   H50       1.0  0.40230  0.08510  0.91700  1.0000 0.1501334486
H   H51       1.0  0.59770  0.58510  0.58300  1.0000 0.1501334486
H   H52       1.0  0.90230  0.41490  0.08300  1.0000 0.1501334486
H   H53       1.0  0.95270  0.86690  0.41530  1.0000 0.14089874
H   H54       1.0  0.54730  0.13310  0.91530  1.0000 0.14089874
H   H55       1.0  0.45270  0.63310  0.58470  1.0000 0.14089874
H   H56       1.0  0.04730  0.36690  0.08470  1.0000 0.14089874
H   H57       1.0  0.06050  0.81360  0.36780  1.0000 0.1309849671
H   H58       1.0  0.43950  0.18640  0.86780  1.0000 0.1309849671
H   H59       1.0  0.56050  0.68640  0.63220  1.0000 0.1309849671
H   H60       1.0  0.93950  0.31360  0.13220  1.0000 0.1309849671
C   C1        1.0  0.85810  0.17120  0.48392  1.0000 0.5808609602
C   C2        1.0  0.64190  0.82880  0.98392  1.0000 0.5808609602
C   C3        1.0  0.35810  0.32880  0.51608  1.0000 0.5808609602
C   C4        1.0  0.14190  0.67120  0.01608  1.0000 0.5808609602
C   C5        1.0  0.73460  0.10720  0.46520  1.0000 0.1127965776
C   C6        1.0  0.76540  0.89280  0.96520  1.0000 0.1127965776
C   C7        1.0  0.23460  0.39280  0.53480  1.0000 0.1127965776
C   C8        1.0  0.26540  0.60720  0.03480  1.0000 0.1127965776
C   C9        1.0  0.72490  0.10190  0.39000  1.0000 -0.4704560461
C   C10       1.0  0.77510  0.89810  0.89000  1.0000 -0.4704560461
C   C11       1.0  0.22490  0.39810  0.61000  1.0000 -0.4704560461
C   C12       1.0  0.27510  0.60190  0.11000  1.0000 -0.4704560461
C   C13       1.0  0.76530  0.44720  0.39811  1.0000 0.5808609602
C   C14       1.0  0.73470  0.55280  0.89811  1.0000 0.5808609602
C   C15       1.0  0.26530  0.05280  0.60189  1.0000 0.5808609602
C   C16       1.0  0.23470  0.94720  0.10189  1.0000 0.5808609602
C   C17       1.0  0.74990  0.47610  0.32630  1.0000 -0.0280303387
C   C18       1.0  0.75010  0.52390  0.82630  1.0000 -0.0280303387
C   C19       1.0  0.24990  0.02390  0.67370  1.0000 -0.0280303387
C   C20       1.0  0.25010  0.97610  0.17370  1.0000 -0.0280303387
C   C21       1.0  0.85680  0.51090  0.29000  1.0000 -0.1158871679
C   C22       1.0  0.64320  0.48910  0.79000  1.0000 -0.1158871679
C   C23       1.0  0.35680  0.98910  0.71000  1.0000 -0.1158871679
C   C24       1.0  0.14320  0.01090  0.21000  1.0000 -0.1158871679
C   C25       1.0  0.84370  0.53520  0.22320  1.0000 -0.1070648143
C   C26       1.0  0.65630  0.46480  0.72320  1.0000 -0.1070648143
C   C27       1.0  0.34370  0.96480  0.77680  1.0000 -0.1070648143
C   C28       1.0  0.15630  0.03520  0.27680  1.0000 -0.1070648143
C   C29       1.0  0.72500  0.52760  0.19310  1.0000 -0.0280303387
C   C30       1.0  0.77500  0.47240  0.69310  1.0000 -0.0280303387
C   C31       1.0  0.22500  0.97240  0.80690  1.0000 -0.0280303387
C   C32       1.0  0.27500  0.02760  0.30690  1.0000 -0.0280303387
C   C33       1.0  0.61730  0.49250  0.22900  1.0000 -0.1070648143
C   C34       1.0  0.88270  0.50750  0.72900  1.0000 -0.1070648143
C   C35       1.0  0.11730  0.00750  0.77100  1.0000 -0.1070648143
C   C36       1.0  0.38270  0.99250  0.27100  1.0000 -0.1070648143
C   C37       1.0  0.63080  0.46570  0.29540  1.0000 -0.1026657643
C   C38       1.0  0.86920  0.53430  0.79540  1.0000 -0.1026657643
C   C39       1.0  0.13080  0.03430  0.70460  1.0000 -0.1026657643
C   C40       1.0  0.36920  0.96570  0.20460  1.0000 -0.1026657643
C   C41       1.0  0.71190  0.55550  0.12110  1.0000 0.5808609602
C   C42       1.0  0.78810  0.44450  0.62110  1.0000 0.5808609602
C   C43       1.0  0.21190  0.94450  0.87890  1.0000 0.5808609602
C   C44       1.0  0.28810  0.05550  0.37890  1.0000 0.5808609602
C   C45       1.0  0.01980  0.66190  0.46550  1.0000 0.2826335607
C   C46       1.0  0.48020  0.33810  0.96550  1.0000 0.2826335607
C   C47       1.0  0.51980  0.83810  0.53450  1.0000 0.2826335607
C   C48       1.0  0.98020  0.16190  0.03450  1.0000 0.2826335607
C   C49       1.0  0.18310  0.78940  0.50910  1.0000 -0.3512105244
C   C50       1.0  0.31690  0.21060  0.00910  1.0000 -0.3512105244
C   C51       1.0  0.68310  0.71060  0.49090  1.0000 -0.3512105244
C   C52       1.0  0.81690  0.28940  0.99090  1.0000 -0.3512105244
C   C53       1.0  0.04440  0.84650  0.41140  1.0000 -0.3582913028
C   C54       1.0  0.45560  0.15350  0.91140  1.0000 -0.3582913028
C   C55       1.0  0.54440  0.65350  0.58860  1.0000 -0.3582913028
C   C56       1.0  0.95560  0.34650  0.08860  1.0000 -0.3582913028
N   N1        1.0  0.07740  0.76400  0.46150  1.0000 0.037308759
N   N2        1.0  0.42260  0.23600  0.96150  1.0000 0.037308759
N   N3        1.0  0.57740  0.73600  0.53850  1.0000 0.037308759
N   N4        1.0  0.92260  0.26400  0.03850  1.0000 0.037308759
O   O1        1.0  0.84480  0.27080  0.50718  1.0000 -0.5827478292
O   O2        1.0  0.65520  0.72920  0.00718  1.0000 -0.5827478292
O   O3        1.0  0.34480  0.22920  0.49282  1.0000 -0.5827478292
O   O4        1.0  0.15520  0.77080  0.99282  1.0000 -0.5827478292
O   O5        1.0  0.96270  0.12310  0.47352  1.0000 -0.5079874071
O   O6        1.0  0.53730  0.87690  0.97352  1.0000 -0.5079874071
O   O7        1.0  0.46270  0.37690  0.52648  1.0000 -0.5079874071
O   O8        1.0  0.03730  0.62310  0.02648  1.0000 -0.5079874071
O   O9        1.0  0.62470  0.16070  0.49312  1.0000 -0.6252463283
O   O10       1.0  0.87530  0.83930  0.99312  1.0000 -0.6248559179
O   O11       1.0  0.12470  0.33930  0.50688  1.0000 -0.6252463283
O   O12       1.0  0.37530  0.66070  0.00688  1.0000 -0.6252463283
O   O13       1.0  0.87650  0.45780  0.42154  1.0000 -0.5720159831
O   O14       1.0  0.62350  0.54220  0.92154  1.0000 -0.5720159831
O   O15       1.0  0.37650  0.04220  0.57846  1.0000 -0.5720159831
O   O16       1.0  0.12350  0.95780  0.07846  1.0000 -0.5720159831
O   O17       1.0  0.66490  0.41540  0.42778  1.0000 -0.5391768636
O   O18       1.0  0.83510  0.58460  0.92778  1.0000 -0.5391768636
O   O19       1.0  0.16490  0.08460  0.57222  1.0000 -0.5391768636
O   O20       1.0  0.33510  0.91540  0.07222  1.0000 -0.5391768636
O   O21       1.0  0.60530  0.53570  0.09471  1.0000 -0.5503815757
O   O22       1.0  0.89470  0.46430  0.59471  1.0000 -0.5503815757
O   O23       1.0  0.10530  0.96430  0.90529  1.0000 -0.5503815757
O   O24       1.0  0.39470  0.03570  0.40529  1.0000 -0.5503815757
O   O25       1.0  0.81100  0.59620  0.09416  1.0000 -0.5503815757
O   O26       1.0  0.68900  0.40380  0.59416  1.0000 -0.5503815757
O   O27       1.0  0.31100  0.90380  0.90584  1.0000 -0.5503815757
O   O28       1.0  0.18900  0.09620  0.40584  1.0000 -0.5503815757
O   O29       1.0  0.04650  0.58440  0.50214  1.0000 -0.4216461303
O   O30       1.0  0.45350  0.41560  0.00214  1.0000 -0.4216461303
O   O31       1.0  0.54650  0.91560  0.49786  1.0000 -0.4216461303
O   O32       1.0  0.95350  0.08440  0.99786  1.0000 -0.4216461303
