# DDEC6 charges by PACMAN v1.1 (https://github.com/mtap-research/PACMAN-charge/)
data_2015[Gd][pcu]3[FSR]2
_chemical_formula_sum              "Gd8 H160 C216 N64 O160"
_cell_length_a       13.137
_cell_length_b       30.227
_cell_length_c       24.2585
_cell_angle_alpha    90
_cell_angle_beta     109.901
_cell_angle_gamma    90

_symmetry_space_group_name_H-M    "P 1"
_symmetry_Int_Tables_number       1

loop_
  _symmetry_equiv_pos_as_xyz
  'x, y, z'

loop_
  _atom_site_type_symbol
  _atom_site_label
  _atom_site_symmetry_multiplicity
  _atom_site_fract_x
  _atom_site_fract_y
  _atom_site_fract_z
  _atom_site_occupancy
  _atom_site_charge
Gd  Gd1       1.0  0.87826  0.27018  0.22856  1.0000 1.9826926756
Gd  Gd2       1.0  0.12174  0.77018  0.27144  1.0000 1.9826926756
Gd  Gd3       1.0  0.12174  0.72982  0.77144  1.0000 1.9826926756
Gd  Gd4       1.0  0.87826  0.22982  0.72856  1.0000 1.9826926756
Gd  Gd5       1.0  0.65010  0.24513  0.30085  1.0000 2.0054935384
Gd  Gd6       1.0  0.34990  0.74513  0.19915  1.0000 2.0054935384
Gd  Gd7       1.0  0.34990  0.75487  0.69915  1.0000 2.0054935384
Gd  Gd8       1.0  0.65010  0.25487  0.80085  1.0000 2.00427665
H   H1        1.0  0.05160  0.29080  0.36850  1.0000 0.1510567745
H   H2        1.0  0.94840  0.79080  0.13150  1.0000 0.1510567745
H   H3        1.0  0.94840  0.70920  0.63150  1.0000 0.1510567745
H   H4        1.0  0.05160  0.20920  0.86850  1.0000 0.1510567745
H   H5        1.0  0.98020  0.19460  0.46340  1.0000 0.1393488285
H   H6        1.0  0.01980  0.69460  0.03660  1.0000 0.1393488285
H   H7        1.0  0.01980  0.80540  0.53660  1.0000 0.1393488285
H   H8        1.0  0.98020  0.30540  0.96340  1.0000 0.1393488285
H   H9        1.0  0.57760  0.20450  0.54700  1.0000 0.1393488285
H   H10       1.0  0.42240  0.70450  0.95300  1.0000 0.1393488285
H   H11       1.0  0.42240  0.79550  0.45300  1.0000 0.1393488285
H   H12       1.0  0.57760  0.29550  0.04700  1.0000 0.1393488285
H   H13       1.0  0.46810  0.27030  0.65940  1.0000 0.1510567745
H   H14       1.0  0.53190  0.77030  0.84060  1.0000 0.1510567745
H   H15       1.0  0.53190  0.72970  0.34060  1.0000 0.1510567745
H   H16       1.0  0.46810  0.22970  0.15940  1.0000 0.1510567745
H   H17       1.0  0.79840  0.41550  0.22520  1.0000 0.1510567745
H   H18       1.0  0.20160  0.91550  0.27480  1.0000 0.1510567745
H   H19       1.0  0.20160  0.58450  0.77480  1.0000 0.1510567745
H   H20       1.0  0.79840  0.08450  0.72520  1.0000 0.1510567745
H   H21       1.0  0.60070  0.39370  0.31600  1.0000 0.1393488285
H   H22       1.0  0.39930  0.89370  0.18400  1.0000 0.1393488285
H   H23       1.0  0.39930  0.60630  0.68400  1.0000 0.1393488285
H   H24       1.0  0.60070  0.10630  0.81600  1.0000 0.1393488285
H   H25       1.0  0.70990  0.10000  0.28590  1.0000 0.1510567745
H   H26       1.0  0.29010  0.60000  0.21410  1.0000 0.1510567745
H   H27       1.0  0.29010  0.90000  0.71410  1.0000 0.1510567745
H   H28       1.0  0.70990  0.40000  0.78590  1.0000 0.1510567745
H   H29       1.0  0.91590  0.12590  0.20080  1.0000 0.1393488285
H   H30       1.0  0.08410  0.62590  0.29920  1.0000 0.1393488285
H   H31       1.0  0.08410  0.87410  0.79920  1.0000 0.1393488285
H   H32       1.0  0.91590  0.37410  0.70080  1.0000 0.1393488285
H   H33       1.0  0.04360  0.91290  0.34560  1.0000 0.1510567745
H   H34       1.0  0.95640  0.41290  0.15440  1.0000 0.1510567745
H   H35       1.0  0.95640  0.08710  0.65440  1.0000 0.1510567745
H   H36       1.0  0.04360  0.58710  0.84560  1.0000 0.1510567745
H   H37       1.0  0.85520  0.88670  0.17970  1.0000 0.1393488285
H   H38       1.0  0.14480  0.38670  0.32030  1.0000 0.1393488285
H   H39       1.0  0.14480  0.11330  0.82030  1.0000 0.1393488285
H   H40       1.0  0.85520  0.61330  0.67970  1.0000 0.1393488285
H   H41       1.0  0.61620  0.63170  0.30940  1.0000 0.1393488285
H   H42       1.0  0.38380  0.13170  0.19060  1.0000 0.1393488285
H   H43       1.0  0.38380  0.36830  0.69060  1.0000 0.1393488285
H   H44       1.0  0.61620  0.86830  0.80940  1.0000 0.1393488285
H   H45       1.0  0.45230  0.59760  0.14350  1.0000 0.1510567745
H   H46       1.0  0.54770  0.09760  0.35650  1.0000 0.1510567745
H   H47       1.0  0.54770  0.40240  0.85650  1.0000 0.1510567745
H   H48       1.0  0.45230  0.90240  0.64350  1.0000 0.1510567745
H   H49       1.0  0.65560  0.25150  0.45410  1.0000 0.1028591673
H   H50       1.0  0.34440  0.75150  0.04590  1.0000 0.1028591673
H   H51       1.0  0.34440  0.74850  0.54590  1.0000 0.1028591673
H   H52       1.0  0.65560  0.24850  0.95410  1.0000 0.1028591673
H   H53       1.0  0.62750  0.34080  0.53780  1.0000 0.1393488285
H   H54       1.0  0.37250  0.84080  0.96220  1.0000 0.1393488285
H   H55       1.0  0.37250  0.65920  0.46220  1.0000 0.1393488285
H   H56       1.0  0.62750  0.15920  0.03780  1.0000 0.1393488285
H   H57       1.0  0.60110  0.29020  0.53600  1.0000 0.121950264
H   H58       1.0  0.39890  0.79020  0.96400  1.0000 0.121950264
H   H59       1.0  0.39890  0.70980  0.46400  1.0000 0.121950264
H   H60       1.0  0.60110  0.20980  0.03600  1.0000 0.121950264
H   H61       1.0  0.71850  0.30590  0.54290  1.0000 0.121950264
H   H62       1.0  0.28150  0.80590  0.95710  1.0000 0.121950264
H   H63       1.0  0.28150  0.69410  0.45710  1.0000 0.121950264
H   H64       1.0  0.71850  0.19410  0.04290  1.0000 0.121950264
H   H65       1.0  0.56330  0.37510  0.45720  1.0000 0.1393488285
H   H66       1.0  0.43670  0.87510  0.04280  1.0000 0.1393488285
H   H67       1.0  0.43670  0.62490  0.54280  1.0000 0.1393488285
H   H68       1.0  0.56330  0.12490  0.95720  1.0000 0.1393488285
H   H69       1.0  0.61080  0.36320  0.40790  1.0000 0.1307235422
H   H70       1.0  0.38920  0.86320  0.09210  1.0000 0.1307235422
H   H71       1.0  0.38920  0.63680  0.59210  1.0000 0.1307235422
H   H72       1.0  0.61080  0.13680  0.90790  1.0000 0.1307235422
H   H73       1.0  0.49520  0.34660  0.40330  1.0000 0.1307235422
H   H74       1.0  0.50480  0.84660  0.09670  1.0000 0.1307235422
H   H75       1.0  0.50480  0.65340  0.59670  1.0000 0.1307235422
H   H76       1.0  0.49520  0.15340  0.90330  1.0000 0.1307235422
H   H77       1.0  0.47990  0.32720  0.21620  1.0000 0.1028591673
H   H78       1.0  0.52010  0.82720  0.28380  1.0000 0.1028591673
H   H79       1.0  0.52010  0.67280  0.78380  1.0000 0.1028591673
H   H80       1.0  0.47990  0.17280  0.71620  1.0000 0.1028591673
H   H81       1.0  0.24570  0.38020  0.21170  1.0000 0.1393488285
H   H82       1.0  0.75430  0.88020  0.28830  1.0000 0.1393488285
H   H83       1.0  0.75430  0.61980  0.78830  1.0000 0.1393488285
H   H84       1.0  0.24570  0.11980  0.71170  1.0000 0.1393488285
H   H85       1.0  0.36510  0.39550  0.22260  1.0000 0.1307235422
H   H86       1.0  0.63490  0.89550  0.27740  1.0000 0.1307235422
H   H87       1.0  0.63490  0.60450  0.77740  1.0000 0.1307235422
H   H88       1.0  0.36510  0.10450  0.72260  1.0000 0.1307235422
H   H89       1.0  0.30100  0.36970  0.16520  1.0000 0.1393488285
H   H90       1.0  0.69900  0.86970  0.33480  1.0000 0.1393488285
H   H91       1.0  0.69900  0.63030  0.83480  1.0000 0.1393488285
H   H92       1.0  0.30100  0.13030  0.66520  1.0000 0.1393488285
H   H93       1.0  0.13280  0.22720  0.25500  1.0000 0.121950264
H   H94       1.0  0.86720  0.72720  0.24500  1.0000 0.121950264
H   H95       1.0  0.86720  0.77280  0.74500  1.0000 0.121950264
H   H96       1.0  0.13280  0.27280  0.75500  1.0000 0.121950264
H   H97       1.0  0.26460  0.12840  0.30510  1.0000 0.1393488285
H   H98       1.0  0.73540  0.62840  0.19490  1.0000 0.1393488285
H   H99       1.0  0.73540  0.87160  0.69490  1.0000 0.1393488285
H   H100      1.0  0.26460  0.37160  0.80510  1.0000 0.1393488285
H   H101      1.0  0.22660  0.15230  0.24420  1.0000 0.1307235422
H   H102      1.0  0.77340  0.65230  0.25580  1.0000 0.1307235422
H   H103      1.0  0.77340  0.84770  0.75580  1.0000 0.1307235422
H   H104      1.0  0.22660  0.34770  0.74420  1.0000 0.1307235422
H   H105      1.0  0.30320  0.17680  0.29980  1.0000 0.1307235422
H   H106      1.0  0.69680  0.67680  0.20020  1.0000 0.1307235422
H   H107      1.0  0.69680  0.82320  0.70020  1.0000 0.1307235422
H   H108      1.0  0.30320  0.32320  0.79980  1.0000 0.1307235422
H   H109      1.0  0.15510  0.11730  0.34450  1.0000 0.1307235422
H   H110      1.0  0.84490  0.61730  0.15550  1.0000 0.1307235422
H   H111      1.0  0.84490  0.88270  0.65550  1.0000 0.1307235422
H   H112      1.0  0.15510  0.38270  0.84450  1.0000 0.1307235422
H   H113      1.0  0.11220  0.15920  0.36780  1.0000 0.1307235422
H   H114      1.0  0.88780  0.65920  0.13220  1.0000 0.1307235422
H   H115      1.0  0.88780  0.84080  0.63220  1.0000 0.1307235422
H   H116      1.0  0.11220  0.34080  0.86780  1.0000 0.1307235422
H   H117      1.0  0.03840  0.13530  0.31090  1.0000 0.121950264
H   H118      1.0  0.96160  0.63530  0.18910  1.0000 0.1307235422
H   H119      1.0  0.96160  0.86470  0.68910  1.0000 0.1307235422
H   H120      1.0  0.03840  0.36470  0.81090  1.0000 0.121950264
H   H121      1.0  0.89370  0.26400  0.08920  1.0000 0.1091747712
H   H122      1.0  0.10630  0.76400  0.41080  1.0000 0.1091747712
H   H123      1.0  0.10630  0.73600  0.91080  1.0000 0.1091747712
H   H124      1.0  0.89370  0.23600  0.58920  1.0000 0.1091747712
H   H125      1.0  0.00850  0.14510  0.08000  1.0000 0.1307235422
H   H126      1.0  0.99150  0.64510  0.42000  1.0000 0.1307235422
H   H127      1.0  0.99150  0.85490  0.92000  1.0000 0.1307235422
H   H128      1.0  0.00850  0.35490  0.58000  1.0000 0.1307235422
H   H129      1.0  0.07350  0.17300  0.13530  1.0000 0.121950264
H   H130      1.0  0.92650  0.67300  0.36470  1.0000 0.1307235422
H   H131      1.0  0.92650  0.82700  0.86470  1.0000 0.1307235422
H   H132      1.0  0.07350  0.32700  0.63530  1.0000 0.121950264
H   H133      1.0  0.96090  0.15260  0.13040  1.0000 0.121950264
H   H134      1.0  0.03910  0.65260  0.36960  1.0000 0.121950264
H   H135      1.0  0.03910  0.84740  0.86960  1.0000 0.121950264
H   H136      1.0  0.96090  0.34740  0.63040  1.0000 0.121950264
H   H137      1.0  0.93240  0.17880  0.00270  1.0000 0.1393488285
H   H138      1.0  0.06760  0.67880  0.49730  1.0000 0.1393488285
H   H139      1.0  0.06760  0.82120  0.99730  1.0000 0.1393488285
H   H140      1.0  0.93240  0.32120  0.50270  1.0000 0.1393488285
H   H141      1.0  0.83420  0.20870  0.00130  1.0000 0.1091747712
H   H142      1.0  0.16580  0.70870  0.49870  1.0000 0.1091747712
H   H143      1.0  0.16580  0.79130  0.99870  1.0000 0.1091747712
H   H144      1.0  0.83420  0.29130  0.50130  1.0000 0.1091747712
H   H145      1.0  0.94350  0.23040  0.00290  1.0000 0.121950264
H   H146      1.0  0.05650  0.73040  0.49710  1.0000 0.121950264
H   H147      1.0  0.05650  0.76960  0.99710  1.0000 0.121950264
H   H148      1.0  0.94350  0.26960  0.50290  1.0000 0.121950264
H   H149      1.0  0.22730  0.33080  0.26250  1.0000 0.1307235422
H   H150      1.0  0.77270  0.83080  0.23750  1.0000 0.1307235422
H   H151      1.0  0.77270  0.66920  0.73750  1.0000 0.1307235422
H   H152      1.0  0.22730  0.16920  0.76250  1.0000 0.1307235422
H   H153      1.0  0.26910  0.28350  0.25460  1.0000 0.1307235422
H   H154      1.0  0.73090  0.78350  0.24540  1.0000 0.1307235422
H   H155      1.0  0.73090  0.71650  0.74540  1.0000 0.1307235422
H   H156      1.0  0.26910  0.21650  0.75460  1.0000 0.1307235422
H   H157      1.0  0.33390  0.31250  0.30890  1.0000 0.1393488285
H   H158      1.0  0.66610  0.81250  0.19110  1.0000 0.1393488285
H   H159      1.0  0.66610  0.68750  0.69110  1.0000 0.1393488285
H   H160      1.0  0.33390  0.18750  0.80890  1.0000 0.1393488285
C   C1        1.0  0.88000  0.24441  0.37110  1.0000 0.6030920464
C   C2        1.0  0.12000  0.74441  0.12890  1.0000 0.6030920464
C   C3        1.0  0.12000  0.75559  0.62890  1.0000 0.6030920464
C   C4        1.0  0.88000  0.25559  0.87110  1.0000 0.6030920464
C   C5        1.0  0.99830  0.24237  0.40920  1.0000 0.0198710757
C   C6        1.0  0.00170  0.74237  0.09080  1.0000 0.0198710757
C   C7        1.0  0.00170  0.75763  0.59080  1.0000 0.0198710757
C   C8        1.0  0.99830  0.25763  0.90920  1.0000 0.0198710757
C   C9        1.0  0.07310  0.27051  0.39920  1.0000 -0.1229551966
C   C10       1.0  0.92690  0.77051  0.10080  1.0000 -0.1229551966
C   C11       1.0  0.92690  0.72949  0.60080  1.0000 -0.1229551966
C   C12       1.0  0.07310  0.22949  0.89920  1.0000 -0.1229551966
C   C13       1.0  0.17990  0.26807  0.43540  1.0000 0.0297440119
C   C14       1.0  0.82010  0.76807  0.06460  1.0000 0.0297440119
C   C15       1.0  0.82010  0.73193  0.56460  1.0000 0.0297440119
C   C16       1.0  0.17990  0.23193  0.93540  1.0000 0.0297440119
C   C17       1.0  0.21700  0.23883  0.48230  1.0000 -0.0082449026
C   C18       1.0  0.78300  0.73883  0.01770  1.0000 -0.0082449026
C   C19       1.0  0.78300  0.76117  0.51770  1.0000 -0.0082449026
C   C20       1.0  0.21700  0.26117  0.98230  1.0000 -0.0082449026
C   C21       1.0  0.13780  0.21185  0.49090  1.0000 0.0198710757
C   C22       1.0  0.86220  0.71185  0.00910  1.0000 0.0198710757
C   C23       1.0  0.86220  0.78815  0.50910  1.0000 0.0198710757
C   C24       1.0  0.13780  0.28815  0.99090  1.0000 0.0198710757
C   C25       1.0  0.03040  0.21317  0.45580  1.0000 -0.1505605822
C   C26       1.0  0.96960  0.71317  0.04420  1.0000 -0.1505605822
C   C27       1.0  0.96960  0.78683  0.54420  1.0000 -0.1505605822
C   C28       1.0  0.03040  0.28683  0.95580  1.0000 -0.1505605822
C   C29       1.0  0.33040  0.23909  0.52510  1.0000 -0.0152561358
C   C30       1.0  0.66960  0.73909  0.97490  1.0000 -0.0152561358
C   C31       1.0  0.66960  0.76091  0.47490  1.0000 -0.0152561358
C   C32       1.0  0.33040  0.26091  0.02510  1.0000 -0.0152561358
C   C33       1.0  0.41760  0.21782  0.51550  1.0000 0.0372964627
C   C34       1.0  0.58240  0.71782  0.98450  1.0000 0.0372964627
C   C35       1.0  0.58240  0.78218  0.48450  1.0000 0.0372964627
C   C36       1.0  0.41760  0.28218  0.01550  1.0000 0.0372964627
C   C37       1.0  0.52100  0.21743  0.55600  1.0000 -0.1505605822
C   C38       1.0  0.47900  0.71743  0.94400  1.0000 -0.1505605822
C   C39       1.0  0.47900  0.78257  0.44400  1.0000 -0.1505605822
C   C40       1.0  0.52100  0.28257  0.05600  1.0000 -0.1505605822
C   C41       1.0  0.53910  0.23656  0.61030  1.0000 0.010542085
C   C42       1.0  0.46090  0.73656  0.88970  1.0000 0.010542085
C   C43       1.0  0.46090  0.76344  0.38970  1.0000 0.010542085
C   C44       1.0  0.53910  0.26344  0.11030  1.0000 0.010542085
C   C45       1.0  0.45620  0.25760  0.62290  1.0000 -0.1294468996
C   C46       1.0  0.54380  0.75760  0.87710  1.0000 -0.1294468996
C   C47       1.0  0.54380  0.74240  0.37710  1.0000 -0.1294468996
C   C48       1.0  0.45620  0.24240  0.12290  1.0000 -0.1294468996
C   C49       1.0  0.35470  0.25928  0.57980  1.0000 0.0198710757
C   C50       1.0  0.64530  0.75928  0.92020  1.0000 0.0198710757
C   C51       1.0  0.64530  0.74072  0.42020  1.0000 0.0198710757
C   C52       1.0  0.35470  0.24072  0.07980  1.0000 0.0198710757
C   C53       1.0  0.65120  0.23453  0.65510  1.0000 0.6119837183
C   C54       1.0  0.34880  0.73453  0.84490  1.0000 0.6119837183
C   C55       1.0  0.34880  0.76547  0.34490  1.0000 0.6119837183
C   C56       1.0  0.65120  0.26547  0.15510  1.0000 0.6119837183
C   C57       1.0  0.73060  0.34741  0.27320  1.0000 0.6171030718
C   C58       1.0  0.26940  0.84741  0.22680  1.0000 0.6171030718
C   C59       1.0  0.26940  0.65259  0.72680  1.0000 0.6171030718
C   C60       1.0  0.73060  0.15259  0.77320  1.0000 0.6171030718
C   C61       1.0  0.70410  0.39660  0.27110  1.0000 0.010542085
C   C62       1.0  0.29590  0.89660  0.22890  1.0000 0.010542085
C   C63       1.0  0.29590  0.60340  0.72890  1.0000 0.010542085
C   C64       1.0  0.70410  0.10340  0.77110  1.0000 0.010542085
C   C65       1.0  0.74830  0.42559  0.24170  1.0000 -0.1108529177
C   C66       1.0  0.25170  0.92559  0.25830  1.0000 -0.1108529177
C   C67       1.0  0.25170  0.57441  0.75830  1.0000 -0.1108529177
C   C68       1.0  0.74830  0.07441  0.74170  1.0000 -0.1108529177
C   C69       1.0  0.71860  0.46978  0.23680  1.0000 0.0297440119
C   C70       1.0  0.28140  0.96978  0.26320  1.0000 0.0297440119
C   C71       1.0  0.28140  0.53022  0.76320  1.0000 0.0297440119
C   C72       1.0  0.71860  0.03022  0.73680  1.0000 0.0297440119
C   C73       1.0  0.64450  0.48737  0.26040  1.0000 0.0198710757
C   C74       1.0  0.35550  0.98737  0.23960  1.0000 0.0198710757
C   C75       1.0  0.35550  0.51263  0.73960  1.0000 0.0198710757
C   C76       1.0  0.64450  0.01263  0.76040  1.0000 0.0198710757
C   C77       1.0  0.60210  0.45649  0.29000  1.0000 0.0297440119
C   C78       1.0  0.39790  0.95649  0.21000  1.0000 0.0297440119
C   C79       1.0  0.39790  0.54351  0.71000  1.0000 0.0297440119
C   C80       1.0  0.60210  0.04351  0.79000  1.0000 0.0297440119
C   C81       1.0  0.63080  0.41269  0.29560  1.0000 -0.1294468996
C   C82       1.0  0.36920  0.91269  0.20440  1.0000 -0.1294468996
C   C83       1.0  0.36920  0.58731  0.70440  1.0000 -0.1294468996
C   C84       1.0  0.63080  0.08731  0.79560  1.0000 -0.1294468996
C   C85       1.0  0.78830  0.16981  0.24680  1.0000 0.6171030718
C   C86       1.0  0.21170  0.66981  0.25320  1.0000 0.6171030718
C   C87       1.0  0.21170  0.83019  0.75320  1.0000 0.6171030718
C   C88       1.0  0.78830  0.33019  0.74680  1.0000 0.6171030718
C   C89       1.0  0.80850  0.12080  0.24310  1.0000 0.0198710757
C   C90       1.0  0.19150  0.62080  0.25690  1.0000 0.0198710757
C   C91       1.0  0.19150  0.87920  0.75690  1.0000 0.0198710757
C   C92       1.0  0.80850  0.37920  0.74310  1.0000 0.0198710757
C   C93       1.0  0.75890  0.09056  0.26830  1.0000 -0.1108529177
C   C94       1.0  0.24110  0.59056  0.23170  1.0000 -0.1108529177
C   C95       1.0  0.24110  0.90944  0.73170  1.0000 -0.1108529177
C   C96       1.0  0.75890  0.40944  0.76830  1.0000 -0.1108529177
C   C97       1.0  0.78290  0.04583  0.26690  1.0000 0.0297440119
C   C98       1.0  0.21710  0.54583  0.23310  1.0000 0.0297440119
C   C99       1.0  0.21710  0.95417  0.73310  1.0000 0.0297440119
C   C100      1.0  0.78290  0.45417  0.76690  1.0000 0.0297440119
C   C101      1.0  0.85700  0.02937  0.24320  1.0000 0.010542085
C   C102      1.0  0.14300  0.52937  0.25680  1.0000 0.010542085
C   C103      1.0  0.14300  0.97063  0.75680  1.0000 0.0198710757
C   C104      1.0  0.85700  0.47063  0.74320  1.0000 0.0198710757
C   C105      1.0  0.90800  0.06159  0.21930  1.0000 0.0372964627
C   C106      1.0  0.09200  0.56159  0.28070  1.0000 0.0297440119
C   C107      1.0  0.09200  0.93841  0.78070  1.0000 0.0297440119
C   C108      1.0  0.90800  0.43841  0.71930  1.0000 0.0372964627
C   C109      1.0  0.88280  0.10584  0.21830  1.0000 -0.1294468996
C   C110      1.0  0.11720  0.60584  0.28170  1.0000 -0.1294468996
C   C111      1.0  0.11720  0.89416  0.78170  1.0000 -0.1294468996
C   C112      1.0  0.88280  0.39416  0.71830  1.0000 -0.1294468996
C   C113      1.0  0.88940  0.98165  0.24890  1.0000 0.0029366959
C   C114      1.0  0.11060  0.48165  0.25110  1.0000 0.0029366959
C   C115      1.0  0.11060  0.01835  0.75110  1.0000 0.0029366959
C   C116      1.0  0.88940  0.51835  0.74890  1.0000 0.0029366959
C   C117      1.0  0.96110  0.96558  0.30140  1.0000 0.0198710757
C   C118      1.0  0.03890  0.46558  0.19860  1.0000 0.0297440119
C   C119      1.0  0.03890  0.03442  0.69860  1.0000 0.0297440119
C   C120      1.0  0.96110  0.53442  0.80140  1.0000 0.0198710757
C   C121      1.0  0.99540  0.92213  0.30950  1.0000 -0.1294468996
C   C122      1.0  0.00460  0.42213  0.19050  1.0000 -0.1294468996
C   C123      1.0  0.00460  0.07787  0.69050  1.0000 -0.1294468996
C   C124      1.0  0.99540  0.57787  0.80950  1.0000 -0.1294468996
C   C125      1.0  0.95760  0.89238  0.26340  1.0000 0.0198710757
C   C126      1.0  0.04240  0.39238  0.23660  1.0000 0.0198710757
C   C127      1.0  0.04240  0.10762  0.73660  1.0000 0.0198710757
C   C128      1.0  0.95760  0.60762  0.76340  1.0000 0.0198710757
C   C129      1.0  0.88260  0.90651  0.21060  1.0000 -0.1294468996
C   C130      1.0  0.11740  0.40651  0.28940  1.0000 -0.1294468996
C   C131      1.0  0.11740  0.09349  0.78940  1.0000 -0.1294468996
C   C132      1.0  0.88260  0.59349  0.71060  1.0000 -0.1294468996
C   C133      1.0  0.84900  0.95019  0.20430  1.0000 0.0297440119
C   C134      1.0  0.15100  0.45019  0.29570  1.0000 0.0297440119
C   C135      1.0  0.15100  0.04981  0.79570  1.0000 0.0297440119
C   C136      1.0  0.84900  0.54981  0.70430  1.0000 0.0297440119
C   C137      1.0  0.00140  0.84596  0.27080  1.0000 0.5546368528
C   C138      1.0  0.99860  0.34596  0.22920  1.0000 0.5546368528
C   C139      1.0  0.99860  0.15404  0.72920  1.0000 0.5546368528
C   C140      1.0  0.00140  0.65404  0.77080  1.0000 0.5546368528
C   C141      1.0  0.47300  0.66685  0.21490  1.0000 0.5563866663
C   C142      1.0  0.52700  0.16685  0.28510  1.0000 0.5563866663
C   C143      1.0  0.52700  0.33315  0.78510  1.0000 0.5563866663
C   C144      1.0  0.47300  0.83315  0.71490  1.0000 0.5563866663
C   C145      1.0  0.52310  0.62144  0.22520  1.0000 0.010542085
C   C146      1.0  0.47690  0.12144  0.27480  1.0000 0.010542085
C   C147      1.0  0.47690  0.37856  0.77480  1.0000 0.010542085
C   C148      1.0  0.52310  0.87856  0.72520  1.0000 0.010542085
C   C149      1.0  0.59570  0.61060  0.27980  1.0000 -0.1387570706
C   C150      1.0  0.40430  0.11060  0.22020  1.0000 -0.1387570706
C   C151      1.0  0.40430  0.38940  0.72020  1.0000 -0.1387570706
C   C152      1.0  0.59570  0.88940  0.77980  1.0000 -0.1387570706
C   C153      1.0  0.63780  0.56826  0.29030  1.0000 0.0198710757
C   C154      1.0  0.36220  0.06826  0.20970  1.0000 0.0198710757
C   C155      1.0  0.36220  0.43174  0.70970  1.0000 0.0198710757
C   C156      1.0  0.63780  0.93174  0.79030  1.0000 0.0198710757
C   C157      1.0  0.60500  0.53408  0.24870  1.0000 -0.0008093025
C   C158      1.0  0.39500  0.03408  0.25130  1.0000 -0.0008093025
C   C159      1.0  0.39500  0.46592  0.75130  1.0000 0.0029366959
C   C160      1.0  0.60500  0.96592  0.74870  1.0000 0.0029366959
C   C161      1.0  0.53540  0.54752  0.19430  1.0000 0.0297440119
C   C162      1.0  0.46460  0.04752  0.30570  1.0000 0.0297440119
C   C163      1.0  0.46460  0.45248  0.80570  1.0000 0.0297440119
C   C164      1.0  0.53540  0.95248  0.69430  1.0000 0.0297440119
C   C165      1.0  0.49620  0.59021  0.18130  1.0000 -0.1229551966
C   C166      1.0  0.50380  0.09021  0.31870  1.0000 -0.1229551966
C   C167      1.0  0.50380  0.40979  0.81870  1.0000 -0.1229551966
C   C168      1.0  0.49620  0.90979  0.68130  1.0000 -0.1229551966
C   C169      1.0  0.62810  0.27687  0.43260  1.0000 0.3087046363
C   C170      1.0  0.37190  0.77687  0.06740  1.0000 0.3087046363
C   C171      1.0  0.37190  0.72313  0.56740  1.0000 0.3087046363
C   C172      1.0  0.62810  0.22313  0.93260  1.0000 0.3087046363
C   C173      1.0  0.64290  0.31240  0.52500  1.0000 -0.3493685481
C   C174      1.0  0.35710  0.81240  0.97500  1.0000 -0.3493685481
C   C175      1.0  0.35710  0.68760  0.47500  1.0000 -0.3493685481
C   C176      1.0  0.64290  0.18760  0.02500  1.0000 -0.3493685481
C   C177      1.0  0.56680  0.35280  0.42970  1.0000 -0.3215799027
C   C178      1.0  0.43320  0.85280  0.07030  1.0000 -0.3101416883
C   C179      1.0  0.43320  0.64720  0.57030  1.0000 -0.3101416883
C   C180      1.0  0.56680  0.14720  0.92970  1.0000 -0.3101416883
C   C181      1.0  0.44000  0.31265  0.23580  1.0000 0.302359096
C   C182      1.0  0.56000  0.81265  0.26420  1.0000 0.302359096
C   C183      1.0  0.56000  0.68735  0.76420  1.0000 0.302359096
C   C184      1.0  0.44000  0.18735  0.73580  1.0000 0.302359096
C   C185      1.0  0.31270  0.37260  0.20630  1.0000 -0.3307515216
C   C186      1.0  0.68730  0.87260  0.29370  1.0000 -0.3307515216
C   C187      1.0  0.68730  0.62740  0.79370  1.0000 -0.3307515216
C   C188      1.0  0.31270  0.12740  0.70630  1.0000 -0.3307515216
C   C189      1.0  0.10450  0.20990  0.27800  1.0000 0.302359096
C   C190      1.0  0.89550  0.70990  0.22200  1.0000 0.3087046363
C   C191      1.0  0.89550  0.79010  0.72200  1.0000 0.3087046363
C   C192      1.0  0.10450  0.29010  0.77800  1.0000 0.302359096
C   C193      1.0  0.24410  0.15630  0.28560  1.0000 -0.2810355102
C   C194      1.0  0.75590  0.65630  0.21440  1.0000 -0.2810355102
C   C195      1.0  0.75590  0.84370  0.71440  1.0000 -0.2810355102
C   C196      1.0  0.24410  0.34370  0.78560  1.0000 -0.2810355102
C   C197      1.0  0.11143  0.14350  0.33333  1.0000 -0.3392939401
C   C198      1.0  0.88857  0.64350  0.16667  1.0000 -0.3392939401
C   C199      1.0  0.88857  0.85650  0.66667  1.0000 -0.3392939401
C   C200      1.0  0.11143  0.35650  0.83333  1.0000 -0.3392939401
C   C201      1.0  0.93070  0.23954  0.10980  1.0000 0.318189742
C   C202      1.0  0.06930  0.73954  0.39020  1.0000 0.318189742
C   C203      1.0  0.06930  0.76046  0.89020  1.0000 0.318189742
C   C204      1.0  0.93070  0.26046  0.60980  1.0000 0.318189742
C   C205      1.0  0.00240  0.16570  0.10880  1.0000 -0.3215799027
C   C206      1.0  0.99760  0.66570  0.39120  1.0000 -0.3215799027
C   C207      1.0  0.99760  0.83430  0.89120  1.0000 -0.3215799027
C   C208      1.0  0.00240  0.33430  0.60880  1.0000 -0.3215799027
C   C209      1.0  0.91150  0.20600  0.01630  1.0000 -0.3493685481
C   C210      1.0  0.08850  0.70600  0.48370  1.0000 -0.3493685481
C   C211      1.0  0.08850  0.79400  0.98370  1.0000 -0.3493685481
C   C212      1.0  0.91150  0.29400  0.51630  1.0000 -0.3493685481
C   C213      1.0  0.29060  0.31310  0.26800  1.0000 -0.3101416883
C   C214      1.0  0.70940  0.81310  0.23200  1.0000 -0.3101416883
C   C215      1.0  0.70940  0.68690  0.73200  1.0000 -0.3101416883
C   C216      1.0  0.29060  0.18690  0.76800  1.0000 -0.3101416883
N   N1        1.0  0.25550  0.29953  0.42410  1.0000 0.4837914574
N   N2        1.0  0.74450  0.79953  0.07590  1.0000 0.489363846
N   N3        1.0  0.74450  0.70047  0.57590  1.0000 0.489363846
N   N4        1.0  0.25550  0.20047  0.92410  1.0000 0.4837914574
N   N5        1.0  0.16870  0.18179  0.54140  1.0000 0.489363846
N   N6        1.0  0.83130  0.68179  0.95860  1.0000 0.489363846
N   N7        1.0  0.83130  0.81821  0.45860  1.0000 0.489363846
N   N8        1.0  0.16870  0.31821  0.04140  1.0000 0.489363846
N   N9        1.0  0.40130  0.19419  0.46020  1.0000 0.500935369
N   N10       1.0  0.59870  0.69419  0.03980  1.0000 0.500935369
N   N11       1.0  0.59870  0.80581  0.53980  1.0000 0.500935369
N   N12       1.0  0.40130  0.30581  0.96020  1.0000 0.500935369
N   N13       1.0  0.27080  0.28409  0.59440  1.0000 0.500935369
N   N14       1.0  0.72920  0.78409  0.90560  1.0000 0.500935369
N   N15       1.0  0.72920  0.71591  0.40560  1.0000 0.500935369
N   N16       1.0  0.27080  0.21591  0.09440  1.0000 0.500935369
N   N17       1.0  0.76460  0.49791  0.20160  1.0000 0.5097464341
N   N18       1.0  0.23540  0.99791  0.29840  1.0000 0.5097464341
N   N19       1.0  0.23540  0.50209  0.79840  1.0000 0.5097464341
N   N20       1.0  0.76460  0.00209  0.70160  1.0000 0.5097464341
N   N21       1.0  0.52330  0.47053  0.31740  1.0000 0.500935369
N   N22       1.0  0.47670  0.97053  0.18260  1.0000 0.500935369
N   N23       1.0  0.47670  0.52947  0.68260  1.0000 0.500935369
N   N24       1.0  0.52330  0.02947  0.81740  1.0000 0.500935369
N   N25       1.0  0.72990  0.01593  0.29700  1.0000 0.5097464341
N   N26       1.0  0.27010  0.51593  0.20300  1.0000 0.5097464341
N   N27       1.0  0.27010  0.98407  0.70300  1.0000 0.5097464341
N   N28       1.0  0.72990  0.48407  0.79700  1.0000 0.5097464341
N   N29       1.0  0.99680  0.04906  0.19880  1.0000 0.5172096658
N   N30       1.0  0.00320  0.54906  0.30120  1.0000 0.5172096658
N   N31       1.0  0.00320  0.95094  0.80120  1.0000 0.5172096658
N   N32       1.0  0.99680  0.45094  0.69880  1.0000 0.5172096658
N   N33       1.0  0.00680  0.99527  0.35230  1.0000 0.500935369
N   N34       1.0  0.99320  0.49527  0.14770  1.0000 0.500935369
N   N35       1.0  0.99320  0.00473  0.64770  1.0000 0.500935369
N   N36       1.0  0.00680  0.50473  0.85230  1.0000 0.500935369
N   N37       1.0  0.76740  0.96267  0.14810  1.0000 0.500935369
N   N38       1.0  0.23260  0.46267  0.35190  1.0000 0.500935369
N   N39       1.0  0.23260  0.03733  0.85190  1.0000 0.500935369
N   N40       1.0  0.76740  0.53733  0.64810  1.0000 0.500935369
N   N41       1.0  0.49970  0.51525  0.14510  1.0000 0.500935369
N   N42       1.0  0.50030  0.01525  0.35490  1.0000 0.500935369
N   N43       1.0  0.50030  0.48475  0.85490  1.0000 0.500935369
N   N44       1.0  0.49970  0.98475  0.64510  1.0000 0.500935369
N   N45       1.0  0.71920  0.56035  0.34810  1.0000 0.500935369
N   N46       1.0  0.28080  0.06035  0.15190  1.0000 0.500935369
N   N47       1.0  0.28080  0.43965  0.65190  1.0000 0.500935369
N   N48       1.0  0.71920  0.93965  0.84810  1.0000 0.500935369
N   N49       1.0  0.61440  0.31256  0.46140  1.0000 0.010542085
N   N50       1.0  0.38560  0.81256  0.03860  1.0000 0.010542085
N   N51       1.0  0.38560  0.68744  0.53860  1.0000 0.010542085
N   N52       1.0  0.61440  0.18744  0.96140  1.0000 0.010542085
N   N53       1.0  0.35190  0.33140  0.23540  1.0000 0.0297440119
N   N54       1.0  0.64810  0.83140  0.26460  1.0000 0.0297440119
N   N55       1.0  0.64810  0.66860  0.76460  1.0000 0.0297440119
N   N56       1.0  0.35190  0.16860  0.73540  1.0000 0.0297440119
N   N57       1.0  0.15610  0.17260  0.29670  1.0000 0.0297440119
N   N58       1.0  0.84390  0.67260  0.20330  1.0000 0.0297440119
N   N59       1.0  0.84390  0.82740  0.70330  1.0000 0.0297440119
N   N60       1.0  0.15610  0.32740  0.79670  1.0000 0.0297440119
N   N61       1.0  0.94850  0.20588  0.07970  1.0000 0.0198710757
N   N62       1.0  0.05150  0.70588  0.42030  1.0000 0.0198710757
N   N63       1.0  0.05150  0.79412  0.92030  1.0000 0.0198710757
N   N64       1.0  0.94850  0.29412  0.57970  1.0000 0.0198710757
O   O1        1.0  0.81054  0.23056  0.39084  1.0000 -0.5737298709
O   O2        1.0  0.18946  0.73056  0.10916  1.0000 -0.5737298709
O   O3        1.0  0.18946  0.76944  0.60916  1.0000 -0.5737298709
O   O4        1.0  0.81054  0.26944  0.89084  1.0000 -0.5737298709
O   O5        1.0  0.85631  0.26098  0.32031  1.0000 -0.7085217666
O   O6        1.0  0.14369  0.76098  0.17969  1.0000 -0.7085217666
O   O7        1.0  0.14369  0.73902  0.67969  1.0000 -0.7085217666
O   O8        1.0  0.85631  0.23902  0.82031  1.0000 -0.7085217666
O   O9        1.0  0.22290  0.33628  0.40820  1.0000 -0.2627541032
O   O10       1.0  0.77710  0.83628  0.09180  1.0000 -0.2627541032
O   O11       1.0  0.77710  0.66372  0.59180  1.0000 -0.2627541032
O   O12       1.0  0.22290  0.16372  0.90820  1.0000 -0.2627541032
O   O13       1.0  0.34620  0.28630  0.42960  1.0000 -0.3101416883
O   O14       1.0  0.65380  0.78630  0.07040  1.0000 -0.3101416883
O   O15       1.0  0.65380  0.71370  0.57040  1.0000 -0.3101416883
O   O16       1.0  0.34620  0.21370  0.92960  1.0000 -0.3101416883
O   O17       1.0  0.10470  0.17760  0.56720  1.0000 -0.3011678397
O   O18       1.0  0.89530  0.67760  0.93280  1.0000 -0.2903486538
O   O19       1.0  0.89530  0.82240  0.43280  1.0000 -0.3011678397
O   O20       1.0  0.10470  0.32240  0.06720  1.0000 -0.3011678397
O   O21       1.0  0.25320  0.16212  0.55530  1.0000 -0.2810355102
O   O22       1.0  0.74680  0.66212  0.94470  1.0000 -0.2810355102
O   O23       1.0  0.74680  0.83788  0.44470  1.0000 -0.2810355102
O   O24       1.0  0.25320  0.33788  0.05530  1.0000 -0.2810355102
O   O25       1.0  0.28065  0.28734  0.64565  1.0000 -0.2810355102
O   O26       1.0  0.71935  0.78734  0.85435  1.0000 -0.2810355102
O   O27       1.0  0.71935  0.71266  0.35435  1.0000 -0.2810355102
O   O28       1.0  0.28065  0.21266  0.14565  1.0000 -0.2810355102
O   O29       1.0  0.19778  0.30120  0.55488  1.0000 -0.2903486538
O   O30       1.0  0.80222  0.80120  0.94512  1.0000 -0.2903486538
O   O31       1.0  0.80222  0.69880  0.44512  1.0000 -0.2903486538
O   O32       1.0  0.19778  0.19880  0.05488  1.0000 -0.2903486538
O   O33       1.0  0.31110  0.18040  0.43360  1.0000 -0.2903486538
O   O34       1.0  0.68890  0.68040  0.06640  1.0000 -0.2903486538
O   O35       1.0  0.68890  0.81960  0.56640  1.0000 -0.2903486538
O   O36       1.0  0.31110  0.31960  0.93360  1.0000 -0.2903486538
O   O37       1.0  0.47860  0.18640  0.44600  1.0000 -0.2697590588
O   O38       1.0  0.52140  0.68640  0.05400  1.0000 -0.2697590588
O   O39       1.0  0.52140  0.81360  0.55400  1.0000 -0.2697590588
O   O40       1.0  0.47860  0.31360  0.94600  1.0000 -0.2697590588
O   O41       1.0  0.66314  0.24111  0.70814  1.0000 -0.6985764486
O   O42       1.0  0.33686  0.74111  0.79186  1.0000 -0.6985764486
O   O43       1.0  0.33686  0.75889  0.29186  1.0000 -0.6985764486
O   O44       1.0  0.66314  0.25889  0.20814  1.0000 -0.6985764486
O   O45       1.0  0.68335  0.32336  0.29895  1.0000 -0.6369164717
O   O46       1.0  0.31665  0.82336  0.20105  1.0000 -0.6369164717
O   O47       1.0  0.31665  0.67664  0.70105  1.0000 -0.6369164717
O   O48       1.0  0.68335  0.17664  0.79895  1.0000 -0.6369164717
O   O49       1.0  0.79594  0.33620  0.24864  1.0000 -0.6074481738
O   O50       1.0  0.20406  0.83620  0.25136  1.0000 -0.6074481738
O   O51       1.0  0.20406  0.66380  0.75136  1.0000 -0.6074481738
O   O52       1.0  0.79594  0.16380  0.74864  1.0000 -0.6074481738
O   O53       1.0  0.49600  0.44480  0.34610  1.0000 -0.2463405636
O   O54       1.0  0.50400  0.94480  0.15390  1.0000 -0.2463405636
O   O55       1.0  0.50400  0.55520  0.65390  1.0000 -0.2463405636
O   O56       1.0  0.49600  0.05520  0.84610  1.0000 -0.2463405636
O   O57       1.0  0.47960  0.50604  0.30540  1.0000 -0.2903486538
O   O58       1.0  0.52040  0.00604  0.19460  1.0000 -0.2903486538
O   O59       1.0  0.52040  0.49396  0.69460  1.0000 -0.2903486538
O   O60       1.0  0.47960  0.99396  0.80540  1.0000 -0.2903486538
O   O61       1.0  0.79180  0.47965  0.16380  1.0000 -0.2903486538
O   O62       1.0  0.20820  0.97965  0.33620  1.0000 -0.2903486538
O   O63       1.0  0.20820  0.52035  0.83620  1.0000 -0.2903486538
O   O64       1.0  0.79180  0.02035  0.66380  1.0000 -0.2903486538
O   O65       1.0  0.77200  0.53759  0.21080  1.0000 -0.3011678397
O   O66       1.0  0.22800  0.03759  0.28920  1.0000 -0.3011678397
O   O67       1.0  0.22800  0.46241  0.78920  1.0000 -0.3101416883
O   O68       1.0  0.77200  0.96241  0.71080  1.0000 -0.3011678397
O   O69       1.0  0.82358  0.19420  0.21578  1.0000 -0.6280450256
O   O70       1.0  0.17642  0.69420  0.28422  1.0000 -0.6212632091
O   O71       1.0  0.17642  0.80580  0.78422  1.0000 -0.6212632091
O   O72       1.0  0.82358  0.30580  0.71578  1.0000 -0.6280450256
O   O73       1.0  0.74041  0.18051  0.28131  1.0000 -0.6212632091
O   O74       1.0  0.25959  0.68051  0.21869  1.0000 -0.6212632091
O   O75       1.0  0.25959  0.81949  0.71869  1.0000 -0.6212632091
O   O76       1.0  0.74041  0.31949  0.78131  1.0000 -0.6212632091
O   O77       1.0  0.71640  0.97719  0.28190  1.0000 -0.3011678397
O   O78       1.0  0.28360  0.47719  0.21810  1.0000 -0.3101416883
O   O79       1.0  0.28360  0.02281  0.71810  1.0000 -0.3011678397
O   O80       1.0  0.71640  0.52281  0.78190  1.0000 -0.3011678397
O   O81       1.0  0.70490  0.03111  0.33690  1.0000 -0.2903486538
O   O82       1.0  0.29510  0.53111  0.16310  1.0000 -0.2903486538
O   O83       1.0  0.29510  0.96889  0.66310  1.0000 -0.2903486538
O   O84       1.0  0.70490  0.46889  0.83690  1.0000 -0.2903486538
O   O85       1.0  0.02520  0.01023  0.20210  1.0000 -0.3101416883
O   O86       1.0  0.97480  0.51023  0.29790  1.0000 -0.3101416883
O   O87       1.0  0.97480  0.98977  0.79790  1.0000 -0.3101416883
O   O88       1.0  0.02520  0.48977  0.70210  1.0000 -0.3101416883
O   O89       1.0  0.04290  0.07855  0.18180  1.0000 -0.3011678397
O   O90       1.0  0.95710  0.57855  0.31820  1.0000 -0.3011678397
O   O91       1.0  0.95710  0.92145  0.81820  1.0000 -0.3011678397
O   O92       1.0  0.04290  0.42145  0.68180  1.0000 -0.3011678397
O   O93       1.0  0.03118  0.97868  0.40078  1.0000 -0.2697590588
O   O94       1.0  0.96882  0.47868  0.09922  1.0000 -0.2697590588
O   O95       1.0  0.96882  0.02132  0.59922  1.0000 -0.2697590588
O   O96       1.0  0.03118  0.52132  0.90078  1.0000 -0.2697590588
O   O97       1.0  0.01742  0.03445  0.34332  1.0000 -0.3215799027
O   O98       1.0  0.98258  0.53445  0.15668  1.0000 -0.3215799027
O   O99       1.0  0.98258  0.96555  0.65668  1.0000 -0.3215799027
O   O100      1.0  0.01742  0.46555  0.84332  1.0000 -0.3215799027
O   O101      1.0  0.71530  0.93361  0.11700  1.0000 -0.2903486538
O   O102      1.0  0.28470  0.43361  0.38300  1.0000 -0.2903486538
O   O103      1.0  0.28470  0.06639  0.88300  1.0000 -0.2903486538
O   O104      1.0  0.71530  0.56639  0.61700  1.0000 -0.2903486538
O   O105      1.0  0.75540  0.00152  0.13530  1.0000 -0.3101416883
O   O106      1.0  0.24460  0.50152  0.36470  1.0000 -0.3011678397
O   O107      1.0  0.24460  0.99848  0.86470  1.0000 -0.3101416883
O   O108      1.0  0.75540  0.49848  0.63530  1.0000 -0.3101416883
O   O109      1.0  0.06912  0.83537  0.31922  1.0000 -0.5798079502
O   O110      1.0  0.93088  0.33537  0.18078  1.0000 -0.5798079502
O   O111      1.0  0.93088  0.16463  0.68078  1.0000 -0.5798079502
O   O112      1.0  0.06912  0.66463  0.81922  1.0000 -0.5798079502
O   O113      1.0  0.48258  0.69026  0.25868  1.0000 -0.5898412671
O   O114      1.0  0.51742  0.19026  0.24132  1.0000 -0.5898412671
O   O115      1.0  0.51742  0.30974  0.74132  1.0000 -0.5898412671
O   O116      1.0  0.48258  0.80974  0.75868  1.0000 -0.5898412671
O   O117      1.0  0.42020  0.67871  0.16310  1.0000 -0.5960875732
O   O118      1.0  0.57980  0.17871  0.33690  1.0000 -0.5960875732
O   O119      1.0  0.57980  0.32129  0.83690  1.0000 -0.5960875732
O   O120      1.0  0.42020  0.82129  0.66310  1.0000 -0.5960875732
O   O121      1.0  0.76870  0.59151  0.37520  1.0000 -0.2810355102
O   O122      1.0  0.23130  0.09151  0.12480  1.0000 -0.2810355102
O   O123      1.0  0.23130  0.40849  0.62480  1.0000 -0.2810355102
O   O124      1.0  0.76870  0.90849  0.87520  1.0000 -0.2810355102
O   O125      1.0  0.73810  0.52336  0.36530  1.0000 -0.2810355102
O   O126      1.0  0.26190  0.02336  0.13470  1.0000 -0.2697590588
O   O127      1.0  0.26190  0.47664  0.63470  1.0000 -0.2810355102
O   O128      1.0  0.73810  0.97664  0.86530  1.0000 -0.2810355102
O   O129      1.0  0.48400  0.52969  0.09610  1.0000 -0.2810355102
O   O130      1.0  0.51600  0.02969  0.40390  1.0000 -0.2810355102
O   O131      1.0  0.51600  0.47031  0.90390  1.0000 -0.2810355102
O   O132      1.0  0.48400  0.97031  0.59610  1.0000 -0.2810355102
O   O133      1.0  0.48630  0.47700  0.15620  1.0000 -0.3215799027
O   O134      1.0  0.51370  0.97700  0.34380  1.0000 -0.3215799027
O   O135      1.0  0.51370  0.52300  0.84380  1.0000 -0.3215799027
O   O136      1.0  0.48630  0.02300  0.65620  1.0000 -0.3215799027
O   O137      1.0  0.60653  0.27540  0.37943  1.0000 -0.5177902337
O   O138      1.0  0.39347  0.77540  0.12057  1.0000 -0.5177902337
O   O139      1.0  0.39347  0.72460  0.62057  1.0000 -0.5177902337
O   O140      1.0  0.60653  0.22460  0.87943  1.0000 -0.5177902337
O   O141      1.0  0.47639  0.27750  0.25959  1.0000 -0.5177902337
O   O142      1.0  0.52361  0.77750  0.24041  1.0000 -0.5177902337
O   O143      1.0  0.52361  0.72250  0.74041  1.0000 -0.5177902337
O   O144      1.0  0.47639  0.22250  0.75959  1.0000 -0.5177902337
O   O145      1.0  0.02724  0.22475  0.28594  1.0000 -0.4715014082
O   O146      1.0  0.97276  0.72475  0.21406  1.0000 -0.4715014082
O   O147      1.0  0.97276  0.77525  0.71406  1.0000 -0.4715014082
O   O148      1.0  0.02724  0.27525  0.78594  1.0000 -0.4715014082
O   O149      1.0  0.96040  0.24038  0.16410  1.0000 -0.5622445178
O   O150      1.0  0.03960  0.74038  0.33590  1.0000 -0.5622445178
O   O151      1.0  0.03960  0.75962  0.83590  1.0000 -0.5622445178
O   O152      1.0  0.96040  0.25962  0.66410  1.0000 -0.5622445178
O   O153      1.0  0.72828  0.22644  0.63778  1.0000 -0.5898412671
O   O154      1.0  0.27172  0.72644  0.86222  1.0000 -0.5898412671
O   O155      1.0  0.27172  0.77356  0.36222  1.0000 -0.5898412671
O   O156      1.0  0.72828  0.27356  0.13778  1.0000 -0.5898412671
O   O157      1.0  0.97135  0.82060  0.22695  1.0000 -0.6280450256
O   O158      1.0  0.02865  0.32060  0.27305  1.0000 -0.6280450256
O   O159      1.0  0.02865  0.17940  0.77305  1.0000 -0.6280450256
O   O160      1.0  0.97135  0.67940  0.72695  1.0000 -0.6280450256
