# DDEC6 charges by PACMAN v1.1 (https://github.com/mtap-research/PACMAN-charge/)
data_2015[Tb][sra]3[FSR]4
_chemical_formula_sum              "Tb4 H80 C96 N4 O40"
_cell_length_a       10.929
_cell_length_b       16.586
_cell_length_c       19.396
_cell_angle_alpha    90
_cell_angle_beta     90
_cell_angle_gamma    90

_symmetry_space_group_name_H-M    "P 1"
_symmetry_Int_Tables_number       1

loop_
  _symmetry_equiv_pos_as_xyz
  'x, y, z'

loop_
  _atom_site_type_symbol
  _atom_site_label
  _atom_site_symmetry_multiplicity
  _atom_site_fract_x
  _atom_site_fract_y
  _atom_site_fract_z
  _atom_site_occupancy
  _atom_site_charge
Tb  Tb1       1.0  0.28820  0.25000  0.70407  1.0000 2.0140755789
Tb  Tb2       1.0  0.21180  0.75000  0.20407  1.0000 2.0140755789
Tb  Tb3       1.0  0.78820  0.25000  0.79593  1.0000 2.0140755789
Tb  Tb4       1.0  0.71180  0.75000  0.29593  1.0000 2.0140755789
H   H1        1.0  0.35480  0.25000  0.19460  1.0000 0.3716550486
H   H2        1.0  0.14520  0.75000  0.69460  1.0000 0.3716550486
H   H3        1.0  0.85480  0.25000  0.30540  1.0000 0.3716550486
H   H4        1.0  0.64520  0.75000  0.80540  1.0000 0.3716550486
H   H5        1.0  0.45990  0.35410  0.76700  1.0000 0.4110305624
H   H6        1.0  0.04010  0.64590  0.26700  1.0000 0.4110305624
H   H7        1.0  0.95990  0.14590  0.73300  1.0000 0.4110305624
H   H8        1.0  0.54010  0.85410  0.23300  1.0000 0.4110305624
H   H9        1.0  0.54010  0.64590  0.23300  1.0000 0.4110305624
H   H10       1.0  0.95990  0.35410  0.73300  1.0000 0.4110305624
H   H11       1.0  0.04010  0.85410  0.26700  1.0000 0.4110305624
H   H12       1.0  0.45990  0.14590  0.76700  1.0000 0.4110305624
H   H13       1.0  0.33970  0.38080  0.79350  1.0000 0.3917650597
H   H14       1.0  0.16030  0.61920  0.29350  1.0000 0.3917650597
H   H15       1.0  0.83970  0.11920  0.70650  1.0000 0.3917650597
H   H16       1.0  0.66030  0.88080  0.20650  1.0000 0.3917650597
H   H17       1.0  0.66030  0.61920  0.20650  1.0000 0.3917650597
H   H18       1.0  0.83970  0.38080  0.70650  1.0000 0.3917650597
H   H19       1.0  0.16030  0.88080  0.29350  1.0000 0.3917650597
H   H20       1.0  0.33970  0.11920  0.79350  1.0000 0.3917650597
H   H21       1.0  0.95910  0.25000  0.96170  1.0000 0.1428709047
H   H22       1.0  0.54090  0.75000  0.46170  1.0000 0.1428709047
H   H23       1.0  0.45910  0.25000  0.53830  1.0000 0.1428709047
H   H24       1.0  0.04090  0.75000  0.03830  1.0000 0.1428709047
H   H25       1.0  0.01690  0.25000  0.07650  1.0000 0.1194130348
H   H26       1.0  0.48310  0.75000  0.57650  1.0000 0.1194130348
H   H27       1.0  0.51690  0.25000  0.42350  1.0000 0.1194130348
H   H28       1.0  0.98310  0.75000  0.92350  1.0000 0.1194130348
H   H29       1.0  0.31210  0.25000  0.90590  1.0000 0.1194130348
H   H30       1.0  0.18790  0.75000  0.40590  1.0000 0.1194130348
H   H31       1.0  0.81210  0.25000  0.59410  1.0000 0.1194130348
H   H32       1.0  0.68790  0.75000  0.09410  1.0000 0.1194130348
H   H33       1.0  0.56840  0.18070  0.01100  1.0000 0.1194130348
H   H34       1.0  0.93160  0.81930  0.51100  1.0000 0.1194130348
H   H35       1.0  0.06840  0.31930  0.48900  1.0000 0.1194130348
H   H36       1.0  0.43160  0.68070  0.98900  1.0000 0.1194130348
H   H37       1.0  0.43160  0.81930  0.98900  1.0000 0.1194130348
H   H38       1.0  0.06840  0.18070  0.48900  1.0000 0.1194130348
H   H39       1.0  0.93160  0.68070  0.51100  1.0000 0.1194130348
H   H40       1.0  0.56840  0.31930  0.01100  1.0000 0.1194130348
H   H41       1.0  0.46920  0.17150  0.95300  1.0000 0.1022162156
H   H42       1.0  0.03080  0.82850  0.45300  1.0000 0.1022162156
H   H43       1.0  0.96920  0.32850  0.54700  1.0000 0.1022162156
H   H44       1.0  0.53080  0.67150  0.04700  1.0000 0.1022162156
H   H45       1.0  0.53080  0.82850  0.04700  1.0000 0.1022162156
H   H46       1.0  0.96920  0.17150  0.54700  1.0000 0.1022162156
H   H47       1.0  0.03080  0.67150  0.45300  1.0000 0.1022162156
H   H48       1.0  0.46920  0.32850  0.95300  1.0000 0.1022162156
H   H49       1.0  0.54080  0.10690  0.12120  1.0000 0.1194130348
H   H50       1.0  0.95920  0.89310  0.62120  1.0000 0.1194130348
H   H51       1.0  0.04080  0.39310  0.37880  1.0000 0.1194130348
H   H52       1.0  0.45920  0.60690  0.87880  1.0000 0.1194130348
H   H53       1.0  0.45920  0.89310  0.87880  1.0000 0.1194130348
H   H54       1.0  0.04080  0.10690  0.37880  1.0000 0.1194130348
H   H55       1.0  0.95920  0.60690  0.62120  1.0000 0.1194130348
H   H56       1.0  0.54080  0.39310  0.12120  1.0000 0.1194130348
H   H57       1.0  0.48010  0.98800  0.17080  1.0000 0.1099693593
H   H58       1.0  0.01990  0.01200  0.67080  1.0000 0.1099693593
H   H59       1.0  0.98010  0.51200  0.32920  1.0000 0.1099693593
H   H60       1.0  0.51990  0.48800  0.82920  1.0000 0.1099693593
H   H61       1.0  0.51990  0.01200  0.82920  1.0000 0.1099693593
H   H62       1.0  0.98010  0.98800  0.32920  1.0000 0.1099693593
H   H63       1.0  0.01990  0.48800  0.67080  1.0000 0.1099693593
H   H64       1.0  0.48010  0.51200  0.17080  1.0000 0.1099693593
H   H65       1.0  0.24200  0.95280  0.01750  1.0000 0.1194130348
H   H66       1.0  0.25800  0.04720  0.51750  1.0000 0.1194130348
H   H67       1.0  0.74200  0.54720  0.48250  1.0000 0.1194130348
H   H68       1.0  0.75800  0.45280  0.98250  1.0000 0.1194130348
H   H69       1.0  0.75800  0.04720  0.98250  1.0000 0.1194130348
H   H70       1.0  0.74200  0.95280  0.48250  1.0000 0.1194130348
H   H71       1.0  0.25800  0.45280  0.51750  1.0000 0.1194130348
H   H72       1.0  0.24200  0.54720  0.01750  1.0000 0.1194130348
H   H73       1.0  0.30930  0.06930  0.96490  1.0000 0.1099693593
H   H74       1.0  0.19070  0.93070  0.46490  1.0000 0.1099693593
H   H75       1.0  0.80930  0.43070  0.53510  1.0000 0.1099693593
H   H76       1.0  0.69070  0.56930  0.03510  1.0000 0.1099693593
H   H77       1.0  0.69070  0.93070  0.03510  1.0000 0.1099693593
H   H78       1.0  0.80930  0.06930  0.53510  1.0000 0.1099693593
H   H79       1.0  0.19070  0.56930  0.46490  1.0000 0.1099693593
H   H80       1.0  0.30930  0.43070  0.96490  1.0000 0.1099693593
C   C1        1.0  0.09560  0.25000  0.84750  1.0000 0.6657409088
C   C2        1.0  0.40440  0.75000  0.34750  1.0000 0.6657409088
C   C3        1.0  0.59560  0.25000  0.65250  1.0000 0.6657409088
C   C4        1.0  0.90440  0.75000  0.15250  1.0000 0.6657409088
C   C5        1.0  0.13010  0.25000  0.92260  1.0000 -0.0141846037
C   C6        1.0  0.36990  0.75000  0.42260  1.0000 -0.0141846037
C   C7        1.0  0.63010  0.25000  0.57740  1.0000 -0.0141846037
C   C8        1.0  0.86990  0.75000  0.07740  1.0000 -0.0141846037
C   C9        1.0  0.04150  0.25000  0.97350  1.0000 -0.0929305895
C   C10       1.0  0.45850  0.75000  0.47350  1.0000 -0.0929305895
C   C11       1.0  0.54150  0.25000  0.52650  1.0000 -0.0985620087
C   C12       1.0  0.95850  0.75000  0.02650  1.0000 -0.0985620087
C   C13       1.0  0.07650  0.25000  0.04230  1.0000 -0.0985620087
C   C14       1.0  0.42350  0.75000  0.54230  1.0000 -0.0985620087
C   C15       1.0  0.57650  0.25000  0.45770  1.0000 -0.0985620087
C   C16       1.0  0.92350  0.75000  0.95770  1.0000 -0.0985620087
C   C17       1.0  0.19990  0.25000  0.06070  1.0000 -0.0985620087
C   C18       1.0  0.30010  0.75000  0.56070  1.0000 -0.0985620087
C   C19       1.0  0.69990  0.25000  0.43930  1.0000 -0.0985620087
C   C20       1.0  0.80010  0.75000  0.93930  1.0000 -0.0985620087
C   C21       1.0  0.28690  0.25000  0.00950  1.0000 0.1428709047
C   C22       1.0  0.21310  0.75000  0.50950  1.0000 0.1428709047
C   C23       1.0  0.78690  0.25000  0.49050  1.0000 0.1428709047
C   C24       1.0  0.71310  0.75000  0.99050  1.0000 0.1428709047
C   C25       1.0  0.25270  0.25000  0.94010  1.0000 -0.2202886178
C   C26       1.0  0.24730  0.75000  0.44010  1.0000 -0.2202886178
C   C27       1.0  0.75270  0.25000  0.55990  1.0000 -0.2202886178
C   C28       1.0  0.74730  0.75000  0.05990  1.0000 -0.2202886178
C   C29       1.0  0.22890  0.25000  0.13700  1.0000 0.5605746623
C   C30       1.0  0.27110  0.75000  0.63700  1.0000 0.5605746623
C   C31       1.0  0.72890  0.25000  0.36300  1.0000 0.5605746623
C   C32       1.0  0.77110  0.75000  0.86300  1.0000 0.5605746623
C   C33       1.0  0.48120  0.17590  0.00240  1.0000 -0.1646693035
C   C34       1.0  0.01880  0.82410  0.50240  1.0000 -0.1646693035
C   C35       1.0  0.98120  0.32410  0.49760  1.0000 -0.1646693035
C   C36       1.0  0.51880  0.67590  0.99760  1.0000 -0.1646693035
C   C37       1.0  0.51880  0.82410  0.99760  1.0000 -0.1646693035
C   C38       1.0  0.98120  0.17590  0.49760  1.0000 -0.1646693035
C   C39       1.0  0.01880  0.67590  0.50240  1.0000 -0.1646693035
C   C40       1.0  0.48120  0.32410  0.00240  1.0000 -0.1646693035
C   C41       1.0  0.43350  0.10020  0.03730  1.0000 0.1099693593
C   C42       1.0  0.06650  0.89980  0.53730  1.0000 0.1099693593
C   C43       1.0  0.93350  0.39980  0.46270  1.0000 0.1099693593
C   C44       1.0  0.56650  0.60020  0.96270  1.0000 0.1099693593
C   C45       1.0  0.56650  0.89980  0.96270  1.0000 0.1099693593
C   C46       1.0  0.93350  0.10020  0.46270  1.0000 0.1099693593
C   C47       1.0  0.06650  0.60020  0.53730  1.0000 0.1099693593
C   C48       1.0  0.43350  0.39980  0.03730  1.0000 0.1099693593
C   C49       1.0  0.48190  0.07540  0.09950  1.0000 -0.1409569118
C   C50       1.0  0.01810  0.92460  0.59950  1.0000 -0.1409569118
C   C51       1.0  0.98190  0.42460  0.40050  1.0000 -0.1409569118
C   C52       1.0  0.51810  0.57540  0.90050  1.0000 -0.1409569118
C   C53       1.0  0.51810  0.92460  0.90050  1.0000 -0.1409569118
C   C54       1.0  0.98190  0.07540  0.40050  1.0000 -0.1409569118
C   C55       1.0  0.01810  0.57540  0.59950  1.0000 -0.1409569118
C   C56       1.0  0.48190  0.42460  0.09950  1.0000 -0.1409569118
C   C57       1.0  0.44410  0.00480  0.12980  1.0000 -0.1089083611
C   C58       1.0  0.05590  0.99520  0.62980  1.0000 -0.1089083611
C   C59       1.0  0.94410  0.49520  0.37020  1.0000 -0.1089083611
C   C60       1.0  0.55590  0.50480  0.87020  1.0000 -0.1089083611
C   C61       1.0  0.55590  0.99520  0.87020  1.0000 -0.1089083611
C   C62       1.0  0.94410  0.00480  0.37020  1.0000 -0.1089083611
C   C63       1.0  0.05590  0.50480  0.62980  1.0000 -0.1089083611
C   C64       1.0  0.44410  0.49520  0.12980  1.0000 -0.1089083611
C   C65       1.0  0.35390  0.95880  0.10030  1.0000 -0.029430127
C   C66       1.0  0.14610  0.04120  0.60030  1.0000 -0.029430127
C   C67       1.0  0.85390  0.54120  0.39970  1.0000 -0.029430127
C   C68       1.0  0.64610  0.45880  0.89970  1.0000 -0.029430127
C   C69       1.0  0.64610  0.04120  0.89970  1.0000 -0.029430127
C   C70       1.0  0.85390  0.95880  0.39970  1.0000 -0.029430127
C   C71       1.0  0.14610  0.45880  0.60030  1.0000 -0.029430127
C   C72       1.0  0.35390  0.54120  0.10030  1.0000 -0.029430127
C   C73       1.0  0.30310  0.98350  0.03810  1.0000 -0.0929305895
C   C74       1.0  0.19690  0.01650  0.53810  1.0000 -0.0929305895
C   C75       1.0  0.80310  0.51650  0.46190  1.0000 -0.0929305895
C   C76       1.0  0.69690  0.48350  0.96190  1.0000 -0.0929305895
C   C77       1.0  0.69690  0.01650  0.96190  1.0000 -0.0929305895
C   C78       1.0  0.80310  0.98350  0.46190  1.0000 -0.0929305895
C   C79       1.0  0.19690  0.48350  0.53810  1.0000 -0.0929305895
C   C80       1.0  0.30310  0.51650  0.03810  1.0000 -0.0929305895
C   C81       1.0  0.34310  0.05340  0.00670  1.0000 -0.1501846446
C   C82       1.0  0.15690  0.94660  0.50670  1.0000 -0.1501846446
C   C83       1.0  0.84310  0.44660  0.49330  1.0000 -0.1501846446
C   C84       1.0  0.65690  0.55340  0.99330  1.0000 -0.1501846446
C   C85       1.0  0.65690  0.94660  0.99330  1.0000 -0.1501846446
C   C86       1.0  0.84310  0.05340  0.49330  1.0000 -0.1501846446
C   C87       1.0  0.15690  0.55340  0.50670  1.0000 -0.1501846446
C   C88       1.0  0.34310  0.44660  0.00670  1.0000 -0.1501846446
C   C89       1.0  0.31300  0.88130  0.13290  1.0000 0.5605746623
C   C90       1.0  0.18700  0.11870  0.63290  1.0000 0.5605746623
C   C91       1.0  0.81300  0.61870  0.36710  1.0000 0.5605746623
C   C92       1.0  0.68700  0.38130  0.86710  1.0000 0.5605746623
C   C93       1.0  0.68700  0.11870  0.86710  1.0000 0.5605746623
C   C94       1.0  0.81300  0.88130  0.36710  1.0000 0.5605746623
C   C95       1.0  0.18700  0.38130  0.63290  1.0000 0.5605746623
C   C96       1.0  0.31300  0.61870  0.13290  1.0000 0.5605746623
N   N1        1.0  0.41790  0.25000  0.02820  1.0000 -0.1409569118
N   N2        1.0  0.08210  0.75000  0.52820  1.0000 -0.1409569118
N   N3        1.0  0.91790  0.25000  0.47180  1.0000 -0.1409569118
N   N4        1.0  0.58210  0.75000  0.97180  1.0000 -0.1409569118
O   O1        1.0  0.18040  0.25000  0.80460  1.0000 -0.6877052618
O   O2        1.0  0.31960  0.75000  0.30460  1.0000 -0.6877052618
O   O3        1.0  0.68040  0.25000  0.69540  1.0000 -0.6877052618
O   O4        1.0  0.81960  0.75000  0.19540  1.0000 -0.6877052618
O   O5        1.0  0.98570  0.25000  0.83270  1.0000 -0.6511275156
O   O6        1.0  0.51430  0.75000  0.33270  1.0000 -0.6511275156
O   O7        1.0  0.48570  0.25000  0.66730  1.0000 -0.6511275156
O   O8        1.0  0.01430  0.75000  0.16730  1.0000 -0.6511275156
O   O9        1.0  0.34670  0.25000  0.15260  1.0000 -0.4565945401
O   O10       1.0  0.15330  0.75000  0.65260  1.0000 -0.4565945401
O   O11       1.0  0.84670  0.25000  0.34740  1.0000 -0.4565945401
O   O12       1.0  0.65330  0.75000  0.84740  1.0000 -0.4565945401
O   O13       1.0  0.14960  0.25000  0.18010  1.0000 -0.5090862794
O   O14       1.0  0.35040  0.75000  0.68010  1.0000 -0.5090862794
O   O15       1.0  0.64960  0.25000  0.31990  1.0000 -0.5090862794
O   O16       1.0  0.85040  0.75000  0.81990  1.0000 -0.5090862794
O   O17       1.0  0.36850  0.85360  0.18462  1.0000 -0.6511275156
O   O18       1.0  0.13150  0.14640  0.68462  1.0000 -0.6511275156
O   O19       1.0  0.86850  0.64640  0.31538  1.0000 -0.6511275156
O   O20       1.0  0.63150  0.35360  0.81538  1.0000 -0.6511275156
O   O21       1.0  0.63150  0.14640  0.81538  1.0000 -0.6511275156
O   O22       1.0  0.86850  0.85360  0.31538  1.0000 -0.6511275156
O   O23       1.0  0.13150  0.35360  0.68462  1.0000 -0.6511275156
O   O24       1.0  0.36850  0.64640  0.18462  1.0000 -0.6511275156
O   O25       1.0  0.22230  0.84430  0.10860  1.0000 -0.6255661233
O   O26       1.0  0.27770  0.15570  0.60860  1.0000 -0.6255661233
O   O27       1.0  0.72230  0.65570  0.39140  1.0000 -0.6255661233
O   O28       1.0  0.77770  0.34430  0.89140  1.0000 -0.6255661233
O   O29       1.0  0.77770  0.15570  0.89140  1.0000 -0.6255661233
O   O30       1.0  0.72230  0.84430  0.39140  1.0000 -0.6255661233
O   O31       1.0  0.27770  0.34430  0.60860  1.0000 -0.6255661233
O   O32       1.0  0.22230  0.65570  0.10860  1.0000 -0.6255661233
O   O33       1.0  0.38490  0.35370  0.76900  1.0000 -0.7718601211
O   O34       1.0  0.11510  0.64630  0.26900  1.0000 -0.7718601211
O   O35       1.0  0.88490  0.14630  0.73100  1.0000 -0.7718601211
O   O36       1.0  0.61510  0.85370  0.23100  1.0000 -0.7718601211
O   O37       1.0  0.61510  0.64630  0.23100  1.0000 -0.7718601211
O   O38       1.0  0.88490  0.35370  0.73100  1.0000 -0.7718601211
O   O39       1.0  0.11510  0.85370  0.26900  1.0000 -0.7718601211
O   O40       1.0  0.38490  0.14630  0.76900  1.0000 -0.7718601211
