# DDEC6 charges by PACMAN v1.1 (https://github.com/mtap-research/PACMAN-charge/)
data_2015[AgDy][nan]3[FSR]1
_chemical_formula_sum              "Dy4 Ag4 H32 C56 N8 O32"
_cell_length_a       12.0717
_cell_length_b       12.0717
_cell_length_c       16.783
_cell_angle_alpha    83.9912
_cell_angle_beta     96.0088
_cell_angle_gamma    133.709

_symmetry_space_group_name_H-M    "P 1"
_symmetry_Int_Tables_number       1

loop_
  _symmetry_equiv_pos_as_xyz
  'x, y, z'

loop_
  _atom_site_type_symbol
  _atom_site_label
  _atom_site_symmetry_multiplicity
  _atom_site_fract_x
  _atom_site_fract_y
  _atom_site_fract_z
  _atom_site_occupancy
  _atom_site_charge
Dy  Dy1       1.0  0.30384  0.29449  0.93407  1.0000 2.0644020936
Dy  Dy2       1.0  0.29449  0.30384  0.56593  1.0000 2.0644020936
Dy  Dy3       1.0  0.69616  0.70551  0.06593  1.0000 2.0644020936
Dy  Dy4       1.0  0.70551  0.69616  0.43407  1.0000 2.0644020936
Ag  Ag1       1.0  0.71697  0.03234  0.92047  1.0000 0.3418797156
Ag  Ag2       1.0  0.03234  0.71697  0.57953  1.0000 0.3418797156
Ag  Ag3       1.0  0.28303  0.96766  0.07953  1.0000 0.3418797156
Ag  Ag4       1.0  0.96766  0.28303  0.42047  1.0000 0.3418797156
H   H1        1.0  0.38570  0.57369  0.22150  1.0000 0.1481618398
H   H2        1.0  0.57369  0.38570  0.27850  1.0000 0.1481618398
H   H3        1.0  0.61430  0.42631  0.77850  1.0000 0.1481618398
H   H4        1.0  0.42631  0.61430  0.72150  1.0000 0.1481618398
H   H5        1.0  0.03830  0.13429  0.16890  1.0000 0.1481618398
H   H6        1.0  0.13429  0.03830  0.33110  1.0000 0.1481618398
H   H7        1.0  0.96170  0.86571  0.83110  1.0000 0.1481618398
H   H8        1.0  0.86571  0.96170  0.66890  1.0000 0.1481618398
H   H9        1.0  0.41370  0.83089  0.03970  1.0000 0.1123073599
H   H10       1.0  0.83089  0.41370  0.46030  1.0000 0.1123073599
H   H11       1.0  0.58630  0.16911  0.96030  1.0000 0.1123073599
H   H12       1.0  0.16911  0.58630  0.53970  1.0000 0.1123073599
H   H13       1.0  0.13070  0.49729  0.88500  1.0000 0.1481618398
H   H14       1.0  0.49729  0.13070  0.61500  1.0000 0.1481618398
H   H15       1.0  0.86930  0.50271  0.11500  1.0000 0.1481618398
H   H16       1.0  0.50271  0.86930  0.38500  1.0000 0.1481618398
H   H17       1.0  0.90750  0.10709  0.27220  1.0000 0.1215084556
H   H18       1.0  0.10709  0.90750  0.22780  1.0000 0.1215084556
H   H19       1.0  0.09250  0.89291  0.72780  1.0000 0.1215084556
H   H20       1.0  0.89291  0.09250  0.77220  1.0000 0.1215084556
H   H21       1.0  0.24290  0.53769  0.31870  1.0000 0.1036925218
H   H22       1.0  0.53769  0.24290  0.18130  1.0000 0.1036925218
H   H23       1.0  0.75710  0.46231  0.68130  1.0000 0.1036925218
H   H24       1.0  0.46231  0.75710  0.81870  1.0000 0.1036925218
H   H25       1.0  0.05870  0.75349  0.94390  1.0000 0.1215084556
H   H26       1.0  0.75349  0.05870  0.55610  1.0000 0.1215084556
H   H27       1.0  0.94130  0.24651  0.05610  1.0000 0.1215084556
H   H28       1.0  0.24651  0.94130  0.44390  1.0000 0.1215084556
H   H29       1.0  0.99210  0.56549  0.86880  1.0000 0.1215084556
H   H30       1.0  0.56549  0.99210  0.63120  1.0000 0.1215084556
H   H31       1.0  0.00790  0.43451  0.13120  1.0000 0.1215084556
H   H32       1.0  0.43451  0.00790  0.36880  1.0000 0.1215084556
C   C1        1.0  0.28840  0.47759  0.23050  1.0000 -0.1410149807
C   C2        1.0  0.47759  0.28840  0.26950  1.0000 -0.1410149807
C   C3        1.0  0.71160  0.52241  0.76950  1.0000 -0.1410149807
C   C4        1.0  0.52241  0.71160  0.73050  1.0000 -0.1410149807
C   C5        1.0  0.22820  0.35699  0.18480  1.0000 0.0132697433
C   C6        1.0  0.35699  0.22820  0.31520  1.0000 0.0132697433
C   C7        1.0  0.77180  0.64301  0.81520  1.0000 0.0132697433
C   C8        1.0  0.64301  0.77180  0.68480  1.0000 0.0132697433
C   C9        1.0  0.38910  0.62509  0.97660  1.0000 0.6187035939
C   C10       1.0  0.62509  0.38910  0.52340  1.0000 0.6187035939
C   C11       1.0  0.61090  0.37491  0.02340  1.0000 0.6187035939
C   C12       1.0  0.37491  0.61090  0.47660  1.0000 0.6187035939
C   C13       1.0  0.32500  0.37979  0.12170  1.0000 0.6308388016
C   C14       1.0  0.37979  0.32500  0.37830  1.0000 0.6308388016
C   C15       1.0  0.67500  0.62021  0.87830  1.0000 0.6308388016
C   C16       1.0  0.62021  0.67500  0.62170  1.0000 0.6308388016
C   C17       1.0  0.29120  0.65959  0.96370  1.0000 -0.0814503828
C   C18       1.0  0.65959  0.29120  0.53630  1.0000 -0.0814503828
C   C19       1.0  0.70880  0.34041  0.03630  1.0000 -0.0814503828
C   C20       1.0  0.34041  0.70880  0.46370  1.0000 -0.0814503828
C   C21       1.0  0.96430  0.03409  0.98950  1.0000 0.4891129186
C   C22       1.0  0.03409  0.96430  0.51050  1.0000 0.4891129186
C   C23       1.0  0.03570  0.96591  0.01050  1.0000 0.4891129186
C   C24       1.0  0.96591  0.03570  0.48950  1.0000 0.4891129186
C   C25       1.0  0.08340  0.21719  0.19990  1.0000 -0.1515175426
C   C26       1.0  0.21719  0.08340  0.30010  1.0000 -0.1515175426
C   C27       1.0  0.91660  0.78281  0.80010  1.0000 -0.1515175426
C   C28       1.0  0.78281  0.91660  0.69990  1.0000 -0.1515175426
C   C29       1.0  0.32650  0.77489  0.00560  1.0000 0.0247281151
C   C30       1.0  0.77489  0.32650  0.49440  1.0000 0.0247281151
C   C31       1.0  0.67350  0.22511  0.99440  1.0000 0.0247281151
C   C32       1.0  0.22511  0.67350  0.50560  1.0000 0.0247281151
C   C33       1.0  0.16080  0.57759  0.91290  1.0000 -0.0506880326
C   C34       1.0  0.57759  0.16080  0.58710  1.0000 -0.0506880326
C   C35       1.0  0.83920  0.42241  0.08710  1.0000 -0.0506880326
C   C36       1.0  0.42241  0.83920  0.41290  1.0000 -0.0506880326
C   C37       1.0  0.00530  0.20169  0.26220  1.0000 0.0781644118
C   C38       1.0  0.20169  0.00530  0.23780  1.0000 0.0781644118
C   C39       1.0  0.99470  0.79831  0.73780  1.0000 0.0781644118
C   C40       1.0  0.79831  0.99470  0.76220  1.0000 0.0781644118
C   C41       1.0  0.20290  0.45409  0.28990  1.0000 0.0781644118
C   C42       1.0  0.45409  0.20290  0.21010  1.0000 0.0781644118
C   C43       1.0  0.79710  0.54591  0.71010  1.0000 0.0781644118
C   C44       1.0  0.54591  0.79710  0.78990  1.0000 0.0781644118
C   C45       1.0  0.11860  0.73059  0.94910  1.0000 0.0781644118
C   C46       1.0  0.73059  0.11860  0.55090  1.0000 0.0781644118
C   C47       1.0  0.88140  0.26941  0.05090  1.0000 0.0781644118
C   C48       1.0  0.26941  0.88140  0.44910  1.0000 0.0781644118
C   C49       1.0  0.07690  0.61629  0.90450  1.0000 -0.1410149807
C   C50       1.0  0.61629  0.07690  0.59550  1.0000 -0.1410149807
C   C51       1.0  0.92310  0.38371  0.09550  1.0000 -0.1410149807
C   C52       1.0  0.38371  0.92310  0.40450  1.0000 -0.1410149807
C   C53       1.0  0.22210  0.29249  0.74570  1.0000 0.4762278399
C   C54       1.0  0.29249  0.22210  0.75430  1.0000 0.4762278399
C   C55       1.0  0.77790  0.70751  0.25430  1.0000 0.4762278399
C   C56       1.0  0.70751  0.77790  0.24570  1.0000 0.4762278399
N   N1        1.0  0.06630  0.31869  0.30820  1.0000 -0.1868608767
N   N2        1.0  0.31869  0.06630  0.19180  1.0000 -0.1868608767
N   N3        1.0  0.93370  0.68131  0.69180  1.0000 -0.1868608767
N   N4        1.0  0.68131  0.93370  0.80820  1.0000 -0.1868608767
N   N5        1.0  0.24190  0.80969  0.99940  1.0000 -0.1868608767
N   N6        1.0  0.80969  0.24190  0.50060  1.0000 -0.1868608767
N   N7        1.0  0.75810  0.19031  0.00060  1.0000 -0.1868608767
N   N8        1.0  0.19031  0.75810  0.49940  1.0000 -0.1868608767
O   O1        1.0  0.03490  0.14989  0.94250  1.0000 -0.5909251669
O   O2        1.0  0.14989  0.03490  0.55750  1.0000 -0.5909251669
O   O3        1.0  0.96510  0.85011  0.05750  1.0000 -0.5909251669
O   O4        1.0  0.85011  0.96510  0.44250  1.0000 -0.5909251669
O   O5        1.0  0.52210  0.72469  0.00830  1.0000 -0.6505615214
O   O6        1.0  0.72469  0.52210  0.49170  1.0000 -0.6505615214
O   O7        1.0  0.47790  0.27531  0.99170  1.0000 -0.6505615214
O   O8        1.0  0.27531  0.47790  0.50830  1.0000 -0.6505615214
O   O9        1.0  0.20990  0.32889  0.80860  1.0000 -0.5837412277
O   O10       1.0  0.32889  0.20990  0.69140  1.0000 -0.5837412277
O   O11       1.0  0.79010  0.67111  0.19140  1.0000 -0.5837412277
O   O12       1.0  0.67111  0.79010  0.30860  1.0000 -0.5837412277
O   O13       1.0  0.25870  0.27269  0.07260  1.0000 -0.673739309
O   O14       1.0  0.27269  0.25870  0.42740  1.0000 -0.673739309
O   O15       1.0  0.74130  0.72731  0.92740  1.0000 -0.673739309
O   O16       1.0  0.72731  0.74130  0.57260  1.0000 -0.673739309
O   O17       1.0  0.33030  0.49709  0.95510  1.0000 -0.6505615214
O   O18       1.0  0.49709  0.33030  0.54490  1.0000 -0.6505615214
O   O19       1.0  0.66970  0.50291  0.04490  1.0000 -0.6505615214
O   O20       1.0  0.50291  0.66970  0.45510  1.0000 -0.6505615214
O   O21       1.0  0.18180  0.30479  0.67560  1.0000 -0.6038252214
O   O22       1.0  0.30479  0.18180  0.82440  1.0000 -0.6038252214
O   O23       1.0  0.81820  0.69521  0.32440  1.0000 -0.6038252214
O   O24       1.0  0.69521  0.81820  0.17560  1.0000 -0.6038252214
O   O25       1.0  0.46310  0.50069  0.12260  1.0000 -0.6563618728
O   O26       1.0  0.50069  0.46310  0.37740  1.0000 -0.6563618728
O   O27       1.0  0.53690  0.49931  0.87740  1.0000 -0.6563618728
O   O28       1.0  0.49931  0.53690  0.62260  1.0000 -0.6563618728
O   O29       1.0  0.84030  0.96609  0.02070  1.0000 -0.5695433119
O   O30       1.0  0.96609  0.84030  0.47930  1.0000 -0.5695433119
O   O31       1.0  0.15970  0.03391  0.97930  1.0000 -0.5695433119
O   O32       1.0  0.03391  0.15970  0.52070  1.0000 -0.5695433119
