# DDEC6 charges by PACMAN v1.1 (https://github.com/mtap-research/PACMAN-charge/)
data_2015[Zn][nan]3[FSR]21
_chemical_formula_sum              "Zn40 H240 C240 N160"
_cell_length_a       9.5161
_cell_length_b       30.1575
_cell_length_c       45.9367
_cell_angle_alpha    90
_cell_angle_beta     90
_cell_angle_gamma    90

_symmetry_space_group_name_H-M    "P 1"
_symmetry_Int_Tables_number       1

loop_
  _symmetry_equiv_pos_as_xyz
  'x, y, z'

loop_
  _atom_site_type_symbol
  _atom_site_label
  _atom_site_symmetry_multiplicity
  _atom_site_fract_x
  _atom_site_fract_y
  _atom_site_fract_z
  _atom_site_occupancy
  _atom_site_charge
Zn  Zn1       1.0  0.33586  0.99645  0.14204  1.0000 0.6065979738
Zn  Zn2       1.0  0.16414  0.00355  0.64204  1.0000 0.6065979738
Zn  Zn3       1.0  0.66414  0.49645  0.35796  1.0000 0.6065979738
Zn  Zn4       1.0  0.83586  0.50355  0.85796  1.0000 0.6065979738
Zn  Zn5       1.0  0.84489  0.97074  0.06723  1.0000 0.5980554293
Zn  Zn6       1.0  0.65511  0.02926  0.56723  1.0000 0.5980554293
Zn  Zn7       1.0  0.15511  0.47074  0.43277  1.0000 0.5980554293
Zn  Zn8       1.0  0.34489  0.52926  0.93277  1.0000 0.5980554293
Zn  Zn9       1.0  0.08599  0.14231  0.02476  1.0000 0.5980554293
Zn  Zn10      1.0  0.41401  0.85769  0.52476  1.0000 0.5980554293
Zn  Zn11      1.0  0.91401  0.64231  0.47524  1.0000 0.5980554293
Zn  Zn12      1.0  0.58599  0.35769  0.97524  1.0000 0.5980554293
Zn  Zn13      1.0  0.08772  0.26259  0.92481  1.0000 0.5980554293
Zn  Zn14      1.0  0.41228  0.73741  0.42481  1.0000 0.5980554293
Zn  Zn15      1.0  0.91228  0.76259  0.57519  1.0000 0.5980554293
Zn  Zn16      1.0  0.58772  0.23741  0.07519  1.0000 0.5980554293
Zn  Zn17      1.0  0.84202  0.31689  0.81251  1.0000 0.6065979738
Zn  Zn18      1.0  0.65798  0.68311  0.31251  1.0000 0.6065979738
Zn  Zn19      1.0  0.15798  0.81689  0.68749  1.0000 0.6065979738
Zn  Zn20      1.0  0.34202  0.18311  0.18749  1.0000 0.6065979738
Zn  Zn21      1.0  0.49646  0.17173  0.76321  1.0000 0.5980554293
Zn  Zn22      1.0  0.00354  0.82827  0.26321  1.0000 0.5980554293
Zn  Zn23      1.0  0.50354  0.67173  0.73679  1.0000 0.5980554293
Zn  Zn24      1.0  0.99646  0.32827  0.23679  1.0000 0.5980554293
Zn  Zn25      1.0  0.99855  0.05440  0.76464  1.0000 0.5980554293
Zn  Zn26      1.0  0.50145  0.94560  0.26464  1.0000 0.5945748095
Zn  Zn27      1.0  0.00145  0.55440  0.73536  1.0000 0.5945748095
Zn  Zn28      1.0  0.49855  0.44560  0.23536  1.0000 0.5945748095
Zn  Zn29      1.0  0.92792  0.86846  0.80402  1.0000 0.5945748095
Zn  Zn30      1.0  0.57208  0.13154  0.30402  1.0000 0.5945748095
Zn  Zn31      1.0  0.07208  0.36846  0.69598  1.0000 0.5945748095
Zn  Zn32      1.0  0.42792  0.63154  0.19598  1.0000 0.5945748095
Zn  Zn33      1.0  0.42962  0.77058  0.84729  1.0000 0.6065979738
Zn  Zn34      1.0  0.07038  0.22942  0.34729  1.0000 0.6065979738
Zn  Zn35      1.0  0.57038  0.27058  0.65271  1.0000 0.6065979738
Zn  Zn36      1.0  0.92962  0.72942  0.15271  1.0000 0.6065979738
Zn  Zn37      1.0  0.34825  0.71838  0.97008  1.0000 0.6065979738
Zn  Zn38      1.0  0.15175  0.28162  0.47008  1.0000 0.6065979738
Zn  Zn39      1.0  0.65175  0.21838  0.52992  1.0000 0.6065979738
Zn  Zn40      1.0  0.84825  0.78162  0.02992  1.0000 0.6065979738
H   H1        1.0  0.60900  0.95160  0.11170  1.0000 0.0821467646
H   H2        1.0  0.89100  0.04840  0.61170  1.0000 0.0821467646
H   H3        1.0  0.39100  0.45160  0.38830  1.0000 0.0821467646
H   H4        1.0  0.10900  0.54840  0.88830  1.0000 0.0821467646
H   H5        1.0  0.62180  0.05390  0.06020  1.0000 0.1006041744
H   H6        1.0  0.87820  0.94610  0.56020  1.0000 0.1006041744
H   H7        1.0  0.37820  0.55390  0.43980  1.0000 0.1006041744
H   H8        1.0  0.12180  0.44610  0.93980  1.0000 0.1006041744
H   H9        1.0  0.42740  0.06360  0.09470  1.0000 0.0905105242
H   H10       1.0  0.07260  0.93640  0.59470  1.0000 0.0905105242
H   H11       1.0  0.57260  0.56360  0.40530  1.0000 0.0905105242
H   H12       1.0  0.92740  0.43640  0.90530  1.0000 0.0905105242
H   H13       1.0  0.13610  0.99690  0.09050  1.0000 0.0905105242
H   H14       1.0  0.36390  0.00310  0.59050  1.0000 0.0905105242
H   H15       1.0  0.86390  0.49690  0.40950  1.0000 0.0905105242
H   H16       1.0  0.63610  0.50310  0.90950  1.0000 0.0905105242
H   H17       1.0  0.87460  0.91510  0.12990  1.0000 0.0905105242
H   H18       1.0  0.62540  0.08490  0.62990  1.0000 0.0905105242
H   H19       1.0  0.12540  0.41510  0.37010  1.0000 0.1006041744
H   H20       1.0  0.37460  0.58490  0.87010  1.0000 0.0905105242
H   H21       1.0  0.08330  0.92540  0.16120  1.0000 0.1006041744
H   H22       1.0  0.41670  0.07460  0.66120  1.0000 0.1006041744
H   H23       1.0  0.91670  0.42540  0.33880  1.0000 0.1006041744
H   H24       1.0  0.58330  0.57460  0.83880  1.0000 0.1006041744
H   H25       1.0  0.90330  0.07530  0.05940  1.0000 0.0905105242
H   H26       1.0  0.59670  0.92470  0.55940  1.0000 0.0905105242
H   H27       1.0  0.09670  0.57530  0.44060  1.0000 0.0905105242
H   H28       1.0  0.40330  0.42470  0.94060  1.0000 0.0905105242
H   H29       1.0  0.17670  0.04470  0.99830  1.0000 0.1103496503
H   H30       1.0  0.32330  0.95530  0.49830  1.0000 0.1103496503
H   H31       1.0  0.82330  0.54470  0.50170  1.0000 0.1103496503
H   H32       1.0  0.67670  0.45530  0.00170  1.0000 0.1103496503
H   H33       1.0  0.06190  0.97580  0.01480  1.0000 0.1103496503
H   H34       1.0  0.43810  0.02420  0.51480  1.0000 0.1103496503
H   H35       1.0  0.93810  0.47580  0.48520  1.0000 0.1103496503
H   H36       1.0  0.56190  0.52420  0.98520  1.0000 0.1103496503
H   H37       1.0  0.12450  0.22480  0.98610  1.0000 0.0821467646
H   H38       1.0  0.37550  0.77520  0.48610  1.0000 0.0821467646
H   H39       1.0  0.87550  0.72480  0.51390  1.0000 0.0821467646
H   H40       1.0  0.62450  0.27520  0.01390  1.0000 0.0821467646
H   H41       1.0  0.00110  0.15670  0.91710  1.0000 0.1103496503
H   H42       1.0  0.49890  0.84330  0.41710  1.0000 0.1103496503
H   H43       1.0  0.99890  0.65670  0.58290  1.0000 0.1103496503
H   H44       1.0  0.50110  0.34330  0.08290  1.0000 0.1103496503
H   H45       1.0  0.99250  0.10750  0.96000  1.0000 0.1103496503
H   H46       1.0  0.50750  0.89250  0.46000  1.0000 0.1103496503
H   H47       1.0  0.00750  0.60750  0.54000  1.0000 0.1103496503
H   H48       1.0  0.49250  0.39250  0.04000  1.0000 0.1103496503
H   H49       1.0  0.78610  0.27870  0.95720  1.0000 0.0905105242
H   H50       1.0  0.71390  0.72130  0.45720  1.0000 0.0905105242
H   H51       1.0  0.21390  0.77870  0.54280  1.0000 0.0905105242
H   H52       1.0  0.28610  0.22130  0.04280  1.0000 0.0905105242
H   H53       1.0  0.86280  0.40690  0.95320  1.0000 0.1006041744
H   H54       1.0  0.63720  0.59310  0.45320  1.0000 0.1006041744
H   H55       1.0  0.13720  0.90690  0.54680  1.0000 0.1006041744
H   H56       1.0  0.36280  0.09310  0.04680  1.0000 0.1006041744
H   H57       1.0  0.06820  0.36770  0.93210  1.0000 0.1006041744
H   H58       1.0  0.43180  0.63230  0.43210  1.0000 0.1006041744
H   H59       1.0  0.93180  0.86770  0.56790  1.0000 0.1006041744
H   H60       1.0  0.56820  0.13230  0.06790  1.0000 0.1006041744
H   H61       1.0  0.30950  0.29620  0.97160  1.0000 0.0905105242
H   H62       1.0  0.19050  0.70380  0.47160  1.0000 0.0905105242
H   H63       1.0  0.69050  0.79620  0.52840  1.0000 0.0905105242
H   H64       1.0  0.80950  0.20380  0.02840  1.0000 0.0905105242
H   H65       1.0  0.53820  0.34450  0.90770  1.0000 0.1006041744
H   H66       1.0  0.96180  0.65550  0.40770  1.0000 0.1006041744
H   H67       1.0  0.46180  0.84450  0.59230  1.0000 0.1006041744
H   H68       1.0  0.03820  0.15550  0.09230  1.0000 0.1006041744
H   H69       1.0  0.33610  0.30510  0.88600  1.0000 0.1103496503
H   H70       1.0  0.16390  0.69490  0.38600  1.0000 0.1103496503
H   H71       1.0  0.66390  0.80510  0.61400  1.0000 0.1103496503
H   H72       1.0  0.83610  0.19490  0.11400  1.0000 0.1103496503
H   H73       1.0  0.92990  0.31390  0.87820  1.0000 0.0905105242
H   H74       1.0  0.57010  0.68610  0.37820  1.0000 0.0905105242
H   H75       1.0  0.07010  0.81390  0.62180  1.0000 0.0905105242
H   H76       1.0  0.42990  0.18610  0.12180  1.0000 0.0905105242
H   H77       1.0  0.02050  0.22410  0.81850  1.0000 0.1006041744
H   H78       1.0  0.47950  0.77590  0.31850  1.0000 0.1006041744
H   H79       1.0  0.97950  0.72410  0.68150  1.0000 0.1006041744
H   H80       1.0  0.52050  0.27590  0.18150  1.0000 0.1006041744
H   H81       1.0  0.12750  0.20120  0.86540  1.0000 0.1006041744
H   H82       1.0  0.37250  0.79880  0.36540  1.0000 0.1006041744
H   H83       1.0  0.87250  0.70120  0.63460  1.0000 0.1006041744
H   H84       1.0  0.62750  0.29880  0.13460  1.0000 0.1006041744
H   H85       1.0  0.85970  0.35260  0.74750  1.0000 0.0905105242
H   H86       1.0  0.64030  0.64740  0.24750  1.0000 0.0905105242
H   H87       1.0  0.14030  0.85260  0.75250  1.0000 0.0905105242
H   H88       1.0  0.35970  0.14740  0.25250  1.0000 0.0905105242
H   H89       1.0  0.17170  0.31630  0.79780  1.0000 0.1006041744
H   H90       1.0  0.32830  0.68370  0.29780  1.0000 0.1006041744
H   H91       1.0  0.82830  0.81630  0.70220  1.0000 0.1006041744
H   H92       1.0  0.67170  0.18370  0.20220  1.0000 0.1006041744
H   H93       1.0  0.26710  0.33500  0.75050  1.0000 0.1103496503
H   H94       1.0  0.23290  0.66500  0.25050  1.0000 0.1103496503
H   H95       1.0  0.73290  0.83500  0.74950  1.0000 0.1103496503
H   H96       1.0  0.76710  0.16500  0.24950  1.0000 0.1103496503
H   H97       1.0  0.90120  0.42060  0.81750  1.0000 0.0905105242
H   H98       1.0  0.59880  0.57940  0.31750  1.0000 0.0905105242
H   H99       1.0  0.09880  0.92060  0.68250  1.0000 0.0905105242
H   H100      1.0  0.40120  0.07940  0.18250  1.0000 0.0905105242
H   H101      1.0  0.62560  0.42560  0.88130  1.0000 0.1006041744
H   H102      1.0  0.87440  0.57440  0.38130  1.0000 0.1006041744
H   H103      1.0  0.37440  0.92560  0.61870  1.0000 0.1006041744
H   H104      1.0  0.12560  0.07440  0.11870  1.0000 0.1006041744
H   H105      1.0  0.62630  0.35010  0.86090  1.0000 0.1006041744
H   H106      1.0  0.87370  0.64990  0.36090  1.0000 0.1006041744
H   H107      1.0  0.37370  0.85010  0.63910  1.0000 0.1006041744
H   H108      1.0  0.12630  0.14990  0.13910  1.0000 0.1006041744
H   H109      1.0  0.75160  0.22510  0.78760  1.0000 0.0905105242
H   H110      1.0  0.74840  0.77490  0.28760  1.0000 0.0905105242
H   H111      1.0  0.24840  0.72510  0.71240  1.0000 0.0905105242
H   H112      1.0  0.25160  0.27490  0.21240  1.0000 0.0905105242
H   H113      1.0  0.50460  0.32670  0.80310  1.0000 0.1103496503
H   H114      1.0  0.99540  0.67330  0.30310  1.0000 0.1103496503
H   H115      1.0  0.49540  0.82670  0.69690  1.0000 0.1103496503
H   H116      1.0  0.00460  0.17330  0.19690  1.0000 0.1103496503
H   H117      1.0  0.35950  0.26620  0.78260  1.0000 0.1006041744
H   H118      1.0  0.14050  0.73380  0.28260  1.0000 0.1006041744
H   H119      1.0  0.64050  0.76620  0.71740  1.0000 0.1006041744
H   H120      1.0  0.85950  0.23380  0.21740  1.0000 0.1006041744
H   H121      1.0  0.28190  0.10080  0.74510  1.0000 0.0905105242
H   H122      1.0  0.21810  0.89920  0.24510  1.0000 0.0905105242
H   H123      1.0  0.71810  0.60080  0.75490  1.0000 0.0905105242
H   H124      1.0  0.78190  0.39920  0.25490  1.0000 0.0905105242
H   H125      1.0  0.04270  0.13180  0.81260  1.0000 0.1103496503
H   H126      1.0  0.45730  0.86820  0.31260  1.0000 0.1103496503
H   H127      1.0  0.95730  0.63180  0.68740  1.0000 0.1103496503
H   H128      1.0  0.54270  0.36820  0.18740  1.0000 0.1103496503
H   H129      1.0  0.24680  0.18120  0.81230  1.0000 0.1006041744
H   H130      1.0  0.25320  0.81880  0.31230  1.0000 0.1006041744
H   H131      1.0  0.75320  0.68120  0.68770  1.0000 0.1006041744
H   H132      1.0  0.74680  0.31880  0.18770  1.0000 0.1006041744
H   H133      1.0  0.53370  0.24910  0.71900  1.0000 0.0905105242
H   H134      1.0  0.96630  0.75090  0.21900  1.0000 0.0905105242
H   H135      1.0  0.46630  0.74910  0.78100  1.0000 0.0905105242
H   H136      1.0  0.03370  0.25090  0.28100  1.0000 0.0905105242
H   H137      1.0  0.52940  0.16300  0.65430  1.0000 0.1006041744
H   H138      1.0  0.97060  0.83700  0.15430  1.0000 0.1006041744
H   H139      1.0  0.47060  0.66300  0.84570  1.0000 0.1006041744
H   H140      1.0  0.02940  0.33700  0.34570  1.0000 0.1006041744
H   H141      1.0  0.50590  0.12150  0.69990  1.0000 0.1006041744
H   H142      1.0  0.99410  0.87850  0.19990  1.0000 0.1006041744
H   H143      1.0  0.49410  0.62150  0.80010  1.0000 0.1006041744
H   H144      1.0  0.00590  0.37850  0.30010  1.0000 0.1006041744
H   H145      1.0  0.79240  0.13030  0.74910  1.0000 0.0905105242
H   H146      1.0  0.70760  0.86970  0.24910  1.0000 0.0905105242
H   H147      1.0  0.20760  0.63030  0.75090  1.0000 0.0905105242
H   H148      1.0  0.29240  0.36970  0.25090  1.0000 0.0905105242
H   H149      1.0  0.53110  0.09140  0.80870  1.0000 0.1103496503
H   H150      1.0  0.96890  0.90860  0.30870  1.0000 0.1103496503
H   H151      1.0  0.46890  0.59140  0.69130  1.0000 0.1103496503
H   H152      1.0  0.03110  0.40860  0.19130  1.0000 0.1103496503
H   H153      1.0  0.72780  0.03870  0.80740  1.0000 0.1103496503
H   H154      1.0  0.77220  0.96130  0.30740  1.0000 0.1103496503
H   H155      1.0  0.27220  0.53870  0.69260  1.0000 0.1103496503
H   H156      1.0  0.22780  0.46130  0.19260  1.0000 0.1103496503
H   H157      1.0  0.93860  0.95160  0.76450  1.0000 0.0905105242
H   H158      1.0  0.56140  0.04840  0.26450  1.0000 0.0905105242
H   H159      1.0  0.06140  0.45160  0.73550  1.0000 0.0905105242
H   H160      1.0  0.43860  0.54840  0.23550  1.0000 0.0905105242
H   H161      1.0  0.06060  0.94540  0.84510  1.0000 0.1103496503
H   H162      1.0  0.43940  0.05460  0.34510  1.0000 0.1103496503
H   H163      1.0  0.93940  0.44540  0.65490  1.0000 0.1103496503
H   H164      1.0  0.56060  0.55460  0.15490  1.0000 0.1103496503
H   H165      1.0  0.10510  0.02090  0.82680  1.0000 0.1103496503
H   H166      1.0  0.39490  0.97910  0.32680  1.0000 0.1103496503
H   H167      1.0  0.89490  0.52090  0.67320  1.0000 0.1103496503
H   H168      1.0  0.60510  0.47910  0.17320  1.0000 0.1103496503
H   H169      1.0  0.19330  0.02510  0.71080  1.0000 0.0905105242
H   H170      1.0  0.30670  0.97490  0.21080  1.0000 0.0905105242
H   H171      1.0  0.80670  0.52510  0.78920  1.0000 0.0905105242
H   H172      1.0  0.69330  0.47490  0.28920  1.0000 0.0905105242
H   H173      1.0  0.84850  0.03250  0.66170  1.0000 0.1006041744
H   H174      1.0  0.65150  0.96750  0.16170  1.0000 0.1006041744
H   H175      1.0  0.15150  0.53250  0.83830  1.0000 0.1006041744
H   H176      1.0  0.34850  0.46750  0.33830  1.0000 0.1006041744
H   H177      1.0  0.79210  0.05610  0.71270  1.0000 0.1006041744
H   H178      1.0  0.70790  0.94390  0.21270  1.0000 0.1006041744
H   H179      1.0  0.20790  0.55610  0.78730  1.0000 0.1006041744
H   H180      1.0  0.29210  0.44390  0.28730  1.0000 0.1006041744
H   H181      1.0  0.23610  0.83210  0.81020  1.0000 0.0905105242
H   H182      1.0  0.26390  0.16790  0.31020  1.0000 0.0905105242
H   H183      1.0  0.76390  0.33210  0.68980  1.0000 0.0905105242
H   H184      1.0  0.73610  0.66790  0.18980  1.0000 0.0905105242
H   H185      1.0  0.91950  0.80760  0.86150  1.0000 0.1103496503
H   H186      1.0  0.58050  0.19240  0.36150  1.0000 0.1103496503
H   H187      1.0  0.08050  0.30760  0.63850  1.0000 0.1103496503
H   H188      1.0  0.41950  0.69240  0.13850  1.0000 0.1103496503
H   H189      1.0  0.12630  0.76620  0.87960  1.0000 0.1006041744
H   H190      1.0  0.37370  0.23380  0.37960  1.0000 0.1006041744
H   H191      1.0  0.87370  0.26620  0.62040  1.0000 0.1006041744
H   H192      1.0  0.62630  0.73380  0.12040  1.0000 0.1006041744
H   H193      1.0  0.70340  0.79460  0.81070  1.0000 0.0905105242
H   H194      1.0  0.79660  0.20540  0.31070  1.0000 0.0905105242
H   H195      1.0  0.29660  0.29460  0.68930  1.0000 0.0905105242
H   H196      1.0  0.20340  0.70540  0.18930  1.0000 0.0905105242
H   H197      1.0  0.67050  0.91750  0.83870  1.0000 0.1103496503
H   H198      1.0  0.82950  0.08250  0.33870  1.0000 0.1103496503
H   H199      1.0  0.32950  0.41750  0.66130  1.0000 0.1103496503
H   H200      1.0  0.17050  0.58250  0.16130  1.0000 0.1103496503
H   H201      1.0  0.46530  0.87730  0.85620  1.0000 0.1103496503
H   H202      1.0  0.03470  0.12270  0.35620  1.0000 0.1103496503
H   H203      1.0  0.53470  0.37730  0.64380  1.0000 0.1103496503
H   H204      1.0  0.96530  0.62270  0.14380  1.0000 0.1103496503
H   H205      1.0  0.33740  0.71190  0.90150  1.0000 0.0821467646
H   H206      1.0  0.16260  0.28810  0.40150  1.0000 0.0821467646
H   H207      1.0  0.66260  0.21190  0.59850  1.0000 0.0821467646
H   H208      1.0  0.83740  0.78810  0.09850  1.0000 0.0821467646
H   H209      1.0  0.60000  0.78440  0.94890  1.0000 0.1006041744
H   H210      1.0  0.90000  0.21560  0.44890  1.0000 0.1006041744
H   H211      1.0  0.40000  0.28440  0.55110  1.0000 0.1006041744
H   H212      1.0  0.10000  0.71560  0.05110  1.0000 0.1006041744
H   H213      1.0  0.63680  0.80340  0.89750  1.0000 0.1103496503
H   H214      1.0  0.86320  0.19660  0.39750  1.0000 0.1103496503
H   H215      1.0  0.36320  0.30340  0.60250  1.0000 0.1103496503
H   H216      1.0  0.13680  0.69660  0.10250  1.0000 0.1103496503
H   H217      1.0  0.14410  0.76590  0.01250  1.0000 0.0821467646
H   H218      1.0  0.35590  0.23410  0.51250  1.0000 0.0821467646
H   H219      1.0  0.85590  0.26590  0.48750  1.0000 0.0821467646
H   H220      1.0  0.64410  0.73410  0.98750  1.0000 0.0821467646
H   H221      1.0  0.05920  0.71280  0.93920  1.0000 0.1006041744
H   H222      1.0  0.44080  0.28720  0.43920  1.0000 0.1006041744
H   H223      1.0  0.94080  0.21280  0.56080  1.0000 0.1006041744
H   H224      1.0  0.55920  0.78720  0.06080  1.0000 0.1006041744
H   H225      1.0  0.83880  0.74060  0.96120  1.0000 0.1006041744
H   H226      1.0  0.66120  0.25940  0.46120  1.0000 0.1006041744
H   H227      1.0  0.16120  0.24060  0.53880  1.0000 0.1006041744
H   H228      1.0  0.33880  0.75940  0.03880  1.0000 0.1006041744
H   H229      1.0  0.39470  0.63040  0.93250  1.0000 0.0905105242
H   H230      1.0  0.10530  0.36960  0.43250  1.0000 0.0905105242
H   H231      1.0  0.60530  0.13040  0.56750  1.0000 0.0905105242
H   H232      1.0  0.89470  0.86960  0.06750  1.0000 0.0905105242
H   H233      1.0  0.20750  0.64210  0.00500  1.0000 0.1103496503
H   H234      1.0  0.29250  0.35790  0.50500  1.0000 0.1103496503
H   H235      1.0  0.79250  0.14210  0.49500  1.0000 0.1103496503
H   H236      1.0  0.70750  0.85790  0.99500  1.0000 0.1103496503
H   H237      1.0  0.16530  0.56540  0.98650  1.0000 0.1103496503
H   H238      1.0  0.33470  0.43460  0.48650  1.0000 0.1103496503
H   H239      1.0  0.83470  0.06540  0.51350  1.0000 0.1103496503
H   H240      1.0  0.66530  0.93460  0.01350  1.0000 0.1103496503
C   C1        1.0  0.58500  0.97840  0.10203  1.0000 0.1428388235
C   C2        1.0  0.91500  0.02160  0.60203  1.0000 0.1428388235
C   C3        1.0  0.41500  0.47840  0.39797  1.0000 0.1428388235
C   C4        1.0  0.08500  0.52160  0.89797  1.0000 0.1428388235
C   C5        1.0  0.59540  0.03340  0.07490  1.0000 -0.0782943152
C   C6        1.0  0.90460  0.96660  0.57490  1.0000 -0.0782943152
C   C7        1.0  0.40460  0.53340  0.42510  1.0000 -0.0782943152
C   C8        1.0  0.09540  0.46660  0.92510  1.0000 -0.0782943152
C   C9        1.0  0.48600  0.03810  0.09340  1.0000 -0.0598409702
C   C10       1.0  0.01400  0.96190  0.59340  1.0000 -0.0598409702
C   C11       1.0  0.51400  0.53810  0.40660  1.0000 -0.0598409702
C   C12       1.0  0.98600  0.46190  0.90660  1.0000 -0.0598409702
C   C13       1.0  0.09730  0.97710  0.10444  1.0000 0.1208370569
C   C14       1.0  0.40270  0.02290  0.60444  1.0000 0.1282458768
C   C15       1.0  0.90270  0.47710  0.39556  1.0000 0.1282458768
C   C16       1.0  0.59730  0.52290  0.89556  1.0000 0.1282458768
C   C17       1.0  0.95400  0.93300  0.12547  1.0000 -0.0782943152
C   C18       1.0  0.54600  0.06700  0.62547  1.0000 -0.0782943152
C   C19       1.0  0.04600  0.43300  0.37453  1.0000 -0.0782943152
C   C20       1.0  0.45400  0.56700  0.87453  1.0000 -0.0782943152
C   C21       1.0  0.06950  0.93860  0.14267  1.0000 -0.0782943152
C   C22       1.0  0.43050  0.06140  0.64267  1.0000 -0.0782943152
C   C23       1.0  0.93050  0.43860  0.35733  1.0000 -0.0782943152
C   C24       1.0  0.56950  0.56140  0.85733  1.0000 -0.0782943152
C   C25       1.0  0.95760  0.05890  0.04579  1.0000 0.1006041744
C   C26       1.0  0.54240  0.94110  0.54579  1.0000 0.1006041744
C   C27       1.0  0.04240  0.55890  0.45421  1.0000 0.1006041744
C   C28       1.0  0.45760  0.44110  0.95421  1.0000 0.1006041744
C   C29       1.0  0.10540  0.04270  0.01270  1.0000 -0.0782943152
C   C30       1.0  0.39460  0.95730  0.51270  1.0000 -0.0782943152
C   C31       1.0  0.89460  0.54270  0.48730  1.0000 -0.0782943152
C   C32       1.0  0.60540  0.45730  0.98730  1.0000 -0.0782943152
C   C33       1.0  0.04270  0.00470  0.02200  1.0000 -0.0598409702
C   C34       1.0  0.45730  0.99530  0.52200  1.0000 -0.0598409702
C   C35       1.0  0.95730  0.50470  0.47800  1.0000 -0.0598409702
C   C36       1.0  0.54270  0.49530  0.97800  1.0000 -0.0598409702
C   C37       1.0  0.09030  0.20150  0.97411  1.0000 0.1006041744
C   C38       1.0  0.40970  0.79850  0.47411  1.0000 0.1006041744
C   C39       1.0  0.90970  0.70150  0.52589  1.0000 0.1006041744
C   C40       1.0  0.59030  0.29850  0.02589  1.0000 0.1006041744
C   C41       1.0  0.02400  0.16490  0.93647  1.0000 -0.0695882397
C   C42       1.0  0.47600  0.83510  0.43647  1.0000 -0.0695882397
C   C43       1.0  0.97600  0.66490  0.56353  1.0000 -0.0695882397
C   C44       1.0  0.52400  0.33510  0.06353  1.0000 -0.0695882397
C   C45       1.0  0.01970  0.13780  0.96018  1.0000 -0.0598409702
C   C46       1.0  0.48030  0.86220  0.46018  1.0000 -0.0598409702
C   C47       1.0  0.98030  0.63780  0.53982  1.0000 -0.0598409702
C   C48       1.0  0.51970  0.36220  0.03982  1.0000 -0.0598409702
C   C49       1.0  0.83280  0.30600  0.95366  1.0000 0.1103496503
C   C50       1.0  0.66720  0.69400  0.45366  1.0000 0.1103496503
C   C51       1.0  0.16720  0.80600  0.54634  1.0000 0.1103496503
C   C52       1.0  0.33280  0.19400  0.04634  1.0000 0.1103496503
C   C53       1.0  0.87310  0.37560  0.95150  1.0000 -0.0542978842
C   C54       1.0  0.62690  0.62440  0.45150  1.0000 -0.0542978842
C   C55       1.0  0.12690  0.87560  0.54850  1.0000 -0.0542978842
C   C56       1.0  0.37310  0.12440  0.04850  1.0000 -0.0542978842
C   C57       1.0  0.98650  0.35400  0.93993  1.0000 -0.0782943152
C   C58       1.0  0.51350  0.64600  0.43993  1.0000 -0.0782943152
C   C59       1.0  0.01350  0.85400  0.56007  1.0000 -0.0782943152
C   C60       1.0  0.48650  0.14600  0.06007  1.0000 -0.0782943152
C   C61       1.0  0.34190  0.30340  0.95261  1.0000 0.1208370569
C   C62       1.0  0.15810  0.69660  0.45261  1.0000 0.1208370569
C   C63       1.0  0.65810  0.80340  0.54739  1.0000 0.1208370569
C   C64       1.0  0.84190  0.19660  0.04739  1.0000 0.1208370569
C   C65       1.0  0.46590  0.32980  0.91820  1.0000 -0.0695882397
C   C66       1.0  0.03410  0.67020  0.41820  1.0000 -0.0695882397
C   C67       1.0  0.53410  0.82980  0.58180  1.0000 -0.0695882397
C   C68       1.0  0.96590  0.17020  0.08180  1.0000 -0.0695882397
C   C69       1.0  0.35540  0.30780  0.90621  1.0000 -0.0695882397
C   C70       1.0  0.14460  0.69220  0.40621  1.0000 -0.0695882397
C   C71       1.0  0.64460  0.80780  0.59379  1.0000 -0.0695882397
C   C72       1.0  0.85540  0.19220  0.09379  1.0000 -0.0695882397
C   C73       1.0  0.96590  0.28820  0.86892  1.0000 0.1208370569
C   C74       1.0  0.53410  0.71180  0.36892  1.0000 0.1208370569
C   C75       1.0  0.03410  0.78820  0.63108  1.0000 0.1208370569
C   C76       1.0  0.46590  0.21180  0.13108  1.0000 0.1208370569
C   C77       1.0  0.01490  0.23990  0.83634  1.0000 -0.0782943152
C   C78       1.0  0.48510  0.76010  0.33634  1.0000 -0.0782943152
C   C79       1.0  0.98510  0.73990  0.66366  1.0000 -0.0782943152
C   C80       1.0  0.51490  0.26010  0.16366  1.0000 -0.0782943152
C   C81       1.0  0.07290  0.22710  0.86227  1.0000 -0.0598409702
C   C82       1.0  0.42710  0.77290  0.36227  1.0000 -0.0598409702
C   C83       1.0  0.92710  0.72710  0.63773  1.0000 -0.0598409702
C   C84       1.0  0.57290  0.27290  0.13773  1.0000 -0.0598409702
C   C85       1.0  0.95130  0.34500  0.75406  1.0000 0.1208370569
C   C86       1.0  0.54870  0.65500  0.25406  1.0000 0.1208370569
C   C87       1.0  0.04870  0.84500  0.74594  1.0000 0.1208370569
C   C88       1.0  0.45130  0.15500  0.24594  1.0000 0.1208370569
C   C89       1.0  0.11850  0.32550  0.78137  1.0000 -0.0695882397
C   C90       1.0  0.38150  0.67450  0.28137  1.0000 -0.0695882397
C   C91       1.0  0.88150  0.82550  0.71863  1.0000 -0.0695882397
C   C92       1.0  0.61850  0.17450  0.21863  1.0000 -0.0695882397
C   C93       1.0  0.17040  0.33610  0.75553  1.0000 -0.0782943152
C   C94       1.0  0.32960  0.66390  0.25553  1.0000 -0.0782943152
C   C95       1.0  0.82960  0.83610  0.74447  1.0000 -0.0782943152
C   C96       1.0  0.67040  0.16390  0.24447  1.0000 -0.0782943152
C   C97       1.0  0.83150  0.41230  0.83128  1.0000 0.1282458768
C   C98       1.0  0.66850  0.58770  0.33128  1.0000 0.1282458768
C   C99       1.0  0.16850  0.91230  0.66872  1.0000 0.1282458768
C   C100      1.0  0.33150  0.08770  0.16872  1.0000 0.1282458768
C   C101      1.0  0.68240  0.41540  0.86560  1.0000 -0.0782943152
C   C102      1.0  0.81760  0.58460  0.36560  1.0000 -0.0782943152
C   C103      1.0  0.31760  0.91540  0.63440  1.0000 -0.0782943152
C   C104      1.0  0.18240  0.08460  0.13440  1.0000 -0.0782943152
C   C105      1.0  0.68420  0.37380  0.85453  1.0000 -0.0695882397
C   C106      1.0  0.81580  0.62620  0.35453  1.0000 -0.0695882397
C   C107      1.0  0.31580  0.87380  0.64547  1.0000 -0.0695882397
C   C108      1.0  0.18420  0.12620  0.14547  1.0000 -0.0695882397
C   C109      1.0  0.67050  0.24340  0.78879  1.0000 0.1208370569
C   C110      1.0  0.82950  0.75660  0.28879  1.0000 0.1208370569
C   C111      1.0  0.32950  0.74340  0.71121  1.0000 0.1208370569
C   C112      1.0  0.17050  0.25660  0.21121  1.0000 0.1208370569
C   C113      1.0  0.53860  0.29860  0.79710  1.0000 -0.0695882397
C   C114      1.0  0.96140  0.70140  0.29710  1.0000 -0.0695882397
C   C115      1.0  0.46140  0.79860  0.70290  1.0000 -0.0695882397
C   C116      1.0  0.03860  0.20140  0.20290  1.0000 -0.0695882397
C   C117      1.0  0.45770  0.26490  0.78620  1.0000 -0.0782943152
C   C118      1.0  0.04230  0.73510  0.28620  1.0000 -0.0782943152
C   C119      1.0  0.54230  0.76490  0.71380  1.0000 -0.0782943152
C   C120      1.0  0.95770  0.23510  0.21380  1.0000 -0.0782943152
C   C121      1.0  0.24750  0.11460  0.76232  1.0000 0.1208370569
C   C122      1.0  0.25250  0.88540  0.26232  1.0000 0.1208370569
C   C123      1.0  0.75250  0.61460  0.73768  1.0000 0.1208370569
C   C124      1.0  0.74750  0.38540  0.23768  1.0000 0.1208370569
C   C125      1.0  0.11770  0.13110  0.79892  1.0000 -0.0782943152
C   C126      1.0  0.38230  0.86890  0.29892  1.0000 -0.0782943152
C   C127      1.0  0.88230  0.63110  0.70108  1.0000 -0.0782943152
C   C128      1.0  0.61770  0.36890  0.20108  1.0000 -0.0782943152
C   C129      1.0  0.22840  0.15850  0.79841  1.0000 -0.0695882397
C   C130      1.0  0.27160  0.84150  0.29841  1.0000 -0.0695882397
C   C131      1.0  0.77160  0.65850  0.70159  1.0000 -0.0695882397
C   C132      1.0  0.72840  0.34150  0.20159  1.0000 -0.0695882397
C   C133      1.0  0.53140  0.22210  0.70837  1.0000 0.1208370569
C   C134      1.0  0.96860  0.77790  0.20837  1.0000 0.1208370569
C   C135      1.0  0.46860  0.72210  0.79163  1.0000 0.1208370569
C   C136      1.0  0.03140  0.27790  0.29163  1.0000 0.1208370569
C   C137      1.0  0.52870  0.17570  0.67321  1.0000 -0.0598409702
C   C138      1.0  0.97130  0.82430  0.17321  1.0000 -0.0598409702
C   C139      1.0  0.47130  0.67570  0.82679  1.0000 -0.0598409702
C   C140      1.0  0.02870  0.32430  0.32679  1.0000 -0.0598409702
C   C141      1.0  0.51560  0.15270  0.69823  1.0000 -0.0782943152
C   C142      1.0  0.98440  0.84730  0.19823  1.0000 -0.0782943152
C   C143      1.0  0.48440  0.65270  0.80177  1.0000 -0.0782943152
C   C144      1.0  0.01560  0.34730  0.30177  1.0000 -0.0782943152
C   C145      1.0  0.74940  0.11330  0.76410  1.0000 0.1208370569
C   C146      1.0  0.75060  0.88670  0.26410  1.0000 0.1208370569
C   C147      1.0  0.25060  0.61330  0.73590  1.0000 0.1208370569
C   C148      1.0  0.24940  0.38670  0.23590  1.0000 0.1208370569
C   C149      1.0  0.60890  0.09300  0.79580  1.0000 -0.0598409702
C   C150      1.0  0.89110  0.90700  0.29580  1.0000 -0.0598409702
C   C151      1.0  0.39110  0.59300  0.70420  1.0000 -0.0598409702
C   C152      1.0  0.10890  0.40700  0.20420  1.0000 -0.0598409702
C   C153      1.0  0.71740  0.06400  0.79540  1.0000 -0.0695882397
C   C154      1.0  0.78260  0.93600  0.29540  1.0000 -0.0695882397
C   C155      1.0  0.28260  0.56400  0.70460  1.0000 -0.0695882397
C   C156      1.0  0.21740  0.43600  0.20460  1.0000 -0.0695882397
C   C157      1.0  0.97700  0.95950  0.78291  1.0000 0.1282458768
C   C158      1.0  0.52300  0.04050  0.28291  1.0000 0.1282458768
C   C159      1.0  0.02300  0.45950  0.71709  1.0000 0.1282458768
C   C160      1.0  0.47700  0.54050  0.21709  1.0000 0.1282458768
C   C161      1.0  0.04190  0.95560  0.82590  1.0000 -0.0695882397
C   C162      1.0  0.45810  0.04440  0.32590  1.0000 -0.0695882397
C   C163      1.0  0.95810  0.45560  0.67410  1.0000 -0.0695882397
C   C164      1.0  0.54190  0.54440  0.17410  1.0000 -0.0695882397
C   C165      1.0  0.06480  0.99740  0.81580  1.0000 -0.0598409702
C   C166      1.0  0.43520  0.00260  0.31580  1.0000 -0.0598409702
C   C167      1.0  0.93520  0.49740  0.68420  1.0000 -0.0598409702
C   C168      1.0  0.56480  0.50260  0.18420  1.0000 -0.0598409702
C   C169      1.0  0.10050  0.03110  0.70426  1.0000 0.1208370569
C   C170      1.0  0.39950  0.96890  0.20426  1.0000 0.1208370569
C   C171      1.0  0.89950  0.53110  0.79574  1.0000 0.1208370569
C   C172      1.0  0.60050  0.46890  0.29574  1.0000 0.1208370569
C   C173      1.0  0.91280  0.03500  0.67750  1.0000 -0.1007895778
C   C174      1.0  0.58720  0.96500  0.17750  1.0000 -0.1007895778
C   C175      1.0  0.08720  0.53500  0.82250  1.0000 -0.1007895778
C   C176      1.0  0.41280  0.46500  0.32250  1.0000 -0.1007895778
C   C177      1.0  0.88170  0.04720  0.70580  1.0000 -0.0428794615
C   C178      1.0  0.61830  0.95280  0.20580  1.0000 -0.0428794615
C   C179      1.0  0.11830  0.54720  0.79420  1.0000 -0.0428794615
C   C180      1.0  0.38170  0.45280  0.29420  1.0000 -0.0428794615
C   C181      1.0  0.18130  0.82070  0.82583  1.0000 0.1282458768
C   C182      1.0  0.31870  0.17930  0.32583  1.0000 0.1282458768
C   C183      1.0  0.81870  0.32070  0.67417  1.0000 0.1282458768
C   C184      1.0  0.68130  0.67930  0.17417  1.0000 0.1282458768
C   C185      1.0  0.01070  0.80790  0.85310  1.0000 -0.0695882397
C   C186      1.0  0.48930  0.19210  0.35310  1.0000 -0.0695882397
C   C187      1.0  0.98930  0.30790  0.64690  1.0000 -0.0695882397
C   C188      1.0  0.51070  0.69210  0.14690  1.0000 -0.0695882397
C   C189      1.0  0.12470  0.78500  0.86300  1.0000 -0.0598409702
C   C190      1.0  0.37530  0.21500  0.36300  1.0000 -0.0598409702
C   C191      1.0  0.87530  0.28500  0.63700  1.0000 -0.0598409702
C   C192      1.0  0.62470  0.71500  0.13700  1.0000 -0.0598409702
C   C193      1.0  0.66870  0.82050  0.81994  1.0000 0.1103496503
C   C194      1.0  0.83130  0.17950  0.31994  1.0000 0.1103496503
C   C195      1.0  0.33130  0.32050  0.68006  1.0000 0.1103496503
C   C196      1.0  0.16870  0.67950  0.18006  1.0000 0.1103496503
C   C197      1.0  0.65150  0.88700  0.83504  1.0000 -0.0695882397
C   C198      1.0  0.84850  0.11300  0.33504  1.0000 -0.0695882397
C   C199      1.0  0.34850  0.38700  0.66496  1.0000 -0.0695882397
C   C200      1.0  0.15150  0.61300  0.16496  1.0000 -0.0695882397
C   C201      1.0  0.53880  0.86510  0.84471  1.0000 -0.0894296925
C   C202      1.0  0.96120  0.13490  0.34471  1.0000 -0.0894296925
C   C203      1.0  0.46120  0.36510  0.65529  1.0000 -0.0894296925
C   C204      1.0  0.03880  0.63490  0.15529  1.0000 -0.0894296925
C   C205      1.0  0.40730  0.73280  0.90708  1.0000 0.1103496503
C   C206      1.0  0.09270  0.26720  0.40708  1.0000 0.1103496503
C   C207      1.0  0.59270  0.23280  0.59292  1.0000 0.1103496503
C   C208      1.0  0.90730  0.76720  0.09292  1.0000 0.1103496503
C   C209      1.0  0.55030  0.77190  0.93290  1.0000 -0.0782943152
C   C210      1.0  0.94970  0.22810  0.43290  1.0000 -0.0782943152
C   C211      1.0  0.44970  0.27190  0.56710  1.0000 -0.0782943152
C   C212      1.0  0.05030  0.72810  0.06710  1.0000 -0.0782943152
C   C213      1.0  0.57040  0.78260  0.90472  1.0000 -0.0695882397
C   C214      1.0  0.92960  0.21740  0.40472  1.0000 -0.0695882397
C   C215      1.0  0.42960  0.28260  0.59528  1.0000 -0.0695882397
C   C216      1.0  0.07040  0.71740  0.09528  1.0000 -0.0695882397
C   C217      1.0  0.09300  0.75950  0.99520  1.0000 0.175643551
C   C218      1.0  0.40700  0.24050  0.49520  1.0000 0.175643551
C   C219      1.0  0.90700  0.25950  0.50480  1.0000 0.175643551
C   C220      1.0  0.59300  0.74050  0.00480  1.0000 0.175643551
C   C221      1.0  0.05220  0.73010  0.95640  1.0000 -0.0598409702
C   C222      1.0  0.44780  0.26990  0.45640  1.0000 -0.0598409702
C   C223      1.0  0.94780  0.23010  0.54360  1.0000 -0.0598409702
C   C224      1.0  0.55220  0.76990  0.04360  1.0000 -0.0598409702
C   C225      1.0  0.93050  0.74430  0.96900  1.0000 -0.0894296925
C   C226      1.0  0.56950  0.25570  0.46900  1.0000 -0.0894296925
C   C227      1.0  0.06950  0.24430  0.53100  1.0000 -0.0894296925
C   C228      1.0  0.43050  0.75570  0.03100  1.0000 -0.0894296925
C   C229      1.0  0.34840  0.62320  0.95020  1.0000 0.1428388235
C   C230      1.0  0.15160  0.37680  0.45020  1.0000 0.1428388235
C   C231      1.0  0.65160  0.12320  0.54980  1.0000 0.1428388235
C   C232      1.0  0.84840  0.87680  0.04980  1.0000 0.1428388235
C   C233      1.0  0.24410  0.63060  0.98740  1.0000 -0.0428794615
C   C234      1.0  0.25590  0.36940  0.48740  1.0000 -0.0428794615
C   C235      1.0  0.75590  0.13060  0.51260  1.0000 -0.0428794615
C   C236      1.0  0.74410  0.86940  0.01260  1.0000 -0.0428794615
C   C237      1.0  0.22630  0.58720  0.97860  1.0000 -0.0695882397
C   C238      1.0  0.27370  0.41280  0.47860  1.0000 -0.0695882397
C   C239      1.0  0.77370  0.08720  0.52140  1.0000 -0.0695882397
C   C240      1.0  0.72630  0.91280  0.02140  1.0000 -0.0695882397
N   N1        1.0  0.47310  0.00114  0.10947  1.0000 -0.2824866858
N   N2        1.0  0.02690  0.99886  0.60947  1.0000 -0.2824866858
N   N3        1.0  0.52690  0.50114  0.39053  1.0000 -0.2824866858
N   N4        1.0  0.97310  0.49886  0.89053  1.0000 -0.2824866858
N   N5        1.0  0.66210  0.99408  0.08088  1.0000 -0.2907589412
N   N6        1.0  0.83790  0.00592  0.58088  1.0000 -0.2907589412
N   N7        1.0  0.33790  0.49408  0.41912  1.0000 -0.2907589412
N   N8        1.0  0.16210  0.50592  0.91912  1.0000 -0.2907589412
N   N9        1.0  0.16270  0.96648  0.12901  1.0000 -0.2824866858
N   N10       1.0  0.33730  0.03352  0.62901  1.0000 -0.2824866858
N   N11       1.0  0.83730  0.46648  0.37099  1.0000 -0.2824866858
N   N12       1.0  0.66270  0.53352  0.87099  1.0000 -0.2824866858
N   N13       1.0  0.97270  0.95759  0.10093  1.0000 -0.2907589412
N   N14       1.0  0.52730  0.04241  0.60093  1.0000 -0.2907589412
N   N15       1.0  0.02730  0.45759  0.39907  1.0000 -0.2907589412
N   N16       1.0  0.47270  0.54241  0.89907  1.0000 -0.2907589412
N   N17       1.0  0.95010  0.01429  0.04294  1.0000 -0.2907589412
N   N18       1.0  0.54990  0.98571  0.54294  1.0000 -0.2907589412
N   N19       1.0  0.04990  0.51429  0.45706  1.0000 -0.2907589412
N   N20       1.0  0.45010  0.48571  0.95706  1.0000 -0.2907589412
N   N21       1.0  0.04930  0.07738  0.02744  1.0000 -0.2907589412
N   N22       1.0  0.45070  0.92262  0.52744  1.0000 -0.2907589412
N   N23       1.0  0.95070  0.57738  0.47256  1.0000 -0.2907589412
N   N24       1.0  0.54930  0.42262  0.97256  1.0000 -0.2907589412
N   N25       1.0  0.06020  0.16076  0.98400  1.0000 -0.2987116487
N   N26       1.0  0.43980  0.83924  0.48400  1.0000 -0.2987116487
N   N27       1.0  0.93980  0.66076  0.51600  1.0000 -0.2987116487
N   N28       1.0  0.56020  0.33924  0.01600  1.0000 -0.2987116487
N   N29       1.0  0.06700  0.20577  0.94544  1.0000 -0.2987116487
N   N30       1.0  0.43300  0.79423  0.44544  1.0000 -0.2987116487
N   N31       1.0  0.93300  0.70577  0.55456  1.0000 -0.2987116487
N   N32       1.0  0.56700  0.29423  0.05456  1.0000 -0.2987116487
N   N33       1.0  0.96220  0.30956  0.94158  1.0000 -0.2907589412
N   N34       1.0  0.53780  0.69044  0.44158  1.0000 -0.2907589412
N   N35       1.0  0.03780  0.80956  0.55842  1.0000 -0.2907589412
N   N36       1.0  0.46220  0.19044  0.05842  1.0000 -0.2907589412
N   N37       1.0  0.77960  0.34544  0.95996  1.0000 -0.2652141575
N   N38       1.0  0.72040  0.65456  0.45996  1.0000 -0.2652141575
N   N39       1.0  0.22040  0.84544  0.54004  1.0000 -0.2652141575
N   N40       1.0  0.27960  0.15456  0.04004  1.0000 -0.2652141575
N   N41       1.0  0.27690  0.29035  0.92843  1.0000 -0.2907589412
N   N42       1.0  0.22310  0.70965  0.42843  1.0000 -0.2907589412
N   N43       1.0  0.72310  0.79035  0.57157  1.0000 -0.2907589412
N   N44       1.0  0.77690  0.20965  0.07157  1.0000 -0.2907589412
N   N45       1.0  0.45600  0.32741  0.94762  1.0000 -0.2907589412
N   N46       1.0  0.04400  0.67259  0.44762  1.0000 -0.2907589412
N   N47       1.0  0.54400  0.82741  0.55238  1.0000 -0.2907589412
N   N48       1.0  0.95600  0.17259  0.05238  1.0000 -0.2907589412
N   N49       1.0  0.03950  0.25763  0.88266  1.0000 -0.2824866858
N   N50       1.0  0.46050  0.74237  0.38266  1.0000 -0.2824866858
N   N51       1.0  0.96050  0.75763  0.61734  1.0000 -0.2824866858
N   N52       1.0  0.53950  0.24237  0.11734  1.0000 -0.2824866858
N   N53       1.0  0.94690  0.27954  0.84066  1.0000 -0.2907589412
N   N54       1.0  0.55310  0.72046  0.34066  1.0000 -0.2907589412
N   N55       1.0  0.05310  0.77954  0.65934  1.0000 -0.2907589412
N   N56       1.0  0.44690  0.22046  0.15934  1.0000 -0.2907589412
N   N57       1.0  0.97640  0.33004  0.78053  1.0000 -0.2907589412
N   N58       1.0  0.52360  0.66996  0.28053  1.0000 -0.2907589412
N   N59       1.0  0.02360  0.83004  0.71947  1.0000 -0.2907589412
N   N60       1.0  0.47640  0.16996  0.21947  1.0000 -0.2907589412
N   N61       1.0  0.06480  0.34879  0.73716  1.0000 -0.2987116487
N   N62       1.0  0.43520  0.65121  0.23716  1.0000 -0.2987116487
N   N63       1.0  0.93520  0.84879  0.76284  1.0000 -0.2987116487
N   N64       1.0  0.56480  0.15121  0.26284  1.0000 -0.2987116487
N   N65       1.0  0.78130  0.37114  0.83293  1.0000 -0.2907589412
N   N66       1.0  0.71870  0.62886  0.33293  1.0000 -0.2907589412
N   N67       1.0  0.21870  0.87114  0.66707  1.0000 -0.2907589412
N   N68       1.0  0.28130  0.12886  0.16707  1.0000 -0.2907589412
N   N69       1.0  0.77780  0.44054  0.85003  1.0000 -0.2907589412
N   N70       1.0  0.72220  0.55946  0.35003  1.0000 -0.2907589412
N   N71       1.0  0.22220  0.94054  0.64997  1.0000 -0.2907589412
N   N72       1.0  0.27780  0.05946  0.14997  1.0000 -0.2907589412
N   N73       1.0  0.67400  0.28549  0.79786  1.0000 -0.2907589412
N   N74       1.0  0.82600  0.71451  0.29786  1.0000 -0.2907589412
N   N75       1.0  0.32600  0.78549  0.70214  1.0000 -0.2907589412
N   N76       1.0  0.17400  0.21451  0.20214  1.0000 -0.2907589412
N   N77       1.0  0.54230  0.22954  0.78157  1.0000 -0.2824866858
N   N78       1.0  0.95770  0.77046  0.28157  1.0000 -0.2824866858
N   N79       1.0  0.45770  0.72954  0.71843  1.0000 -0.2824866858
N   N80       1.0  0.04230  0.27046  0.21843  1.0000 -0.2824866858
N   N81       1.0  0.31010  0.14891  0.77508  1.0000 -0.2824866858
N   N82       1.0  0.18990  0.85109  0.27508  1.0000 -0.2824866858
N   N83       1.0  0.68990  0.64891  0.72492  1.0000 -0.2824866858
N   N84       1.0  0.81010  0.35109  0.22492  1.0000 -0.2824866858
N   N85       1.0  0.13170  0.10166  0.77614  1.0000 -0.2907589412
N   N86       1.0  0.36830  0.89834  0.27614  1.0000 -0.2907589412
N   N87       1.0  0.86830  0.60166  0.72386  1.0000 -0.2907589412
N   N88       1.0  0.63170  0.39834  0.22386  1.0000 -0.2907589412
N   N89       1.0  0.51860  0.18237  0.72070  1.0000 -0.2824866858
N   N90       1.0  0.98140  0.81763  0.22070  1.0000 -0.2824866858
N   N91       1.0  0.48140  0.68237  0.77930  1.0000 -0.2824866858
N   N92       1.0  0.01860  0.31763  0.27930  1.0000 -0.2824866858
N   N93       1.0  0.54090  0.21976  0.67904  1.0000 -0.2907589412
N   N94       1.0  0.95910  0.78024  0.17904  1.0000 -0.2907589412
N   N95       1.0  0.45910  0.71976  0.82096  1.0000 -0.2907589412
N   N96       1.0  0.04090  0.28024  0.32096  1.0000 -0.2907589412
N   N97       1.0  0.62710  0.12411  0.77541  1.0000 -0.2987116487
N   N98       1.0  0.87290  0.87589  0.27541  1.0000 -0.2987116487
N   N99       1.0  0.37290  0.62411  0.72459  1.0000 -0.2987116487
N   N100      1.0  0.12710  0.37589  0.22459  1.0000 -0.2987116487
N   N101      1.0  0.80790  0.07768  0.77477  1.0000 -0.2824866858
N   N102      1.0  0.69210  0.92232  0.27477  1.0000 -0.2824866858
N   N103      1.0  0.19210  0.57768  0.72523  1.0000 -0.2824866858
N   N104      1.0  0.30790  0.42232  0.22523  1.0000 -0.2824866858
N   N105      1.0  0.02200  0.00020  0.78837  1.0000 -0.2907589412
N   N106      1.0  0.47800  0.99980  0.28837  1.0000 -0.2907589412
N   N107      1.0  0.97800  0.50020  0.71163  1.0000 -0.2907589412
N   N108      1.0  0.52200  0.49980  0.21163  1.0000 -0.2907589412
N   N109      1.0  0.98820  0.93112  0.80399  1.0000 -0.2907589412
N   N110      1.0  0.51180  0.06888  0.30399  1.0000 -0.2907589412
N   N111      1.0  0.01180  0.43112  0.69601  1.0000 -0.2907589412
N   N112      1.0  0.48820  0.56888  0.19601  1.0000 -0.2907589412
N   N113      1.0  0.99940  0.04420  0.72191  1.0000 -0.2907589412
N   N114      1.0  0.50060  0.95580  0.22191  1.0000 -0.2907589412
N   N115      1.0  0.00060  0.54420  0.77809  1.0000 -0.2907589412
N   N116      1.0  0.49940  0.45580  0.27809  1.0000 -0.2907589412
N   N117      1.0  0.06180  0.02699  0.67655  1.0000 -0.3113086421
N   N118      1.0  0.43820  0.97301  0.17655  1.0000 -0.3113086421
N   N119      1.0  0.93820  0.52699  0.82345  1.0000 -0.3113086421
N   N120      1.0  0.56180  0.47301  0.32345  1.0000 -0.3113086421
N   N121      1.0  0.04940  0.83095  0.82940  1.0000 -0.2824866858
N   N122      1.0  0.45060  0.16905  0.32940  1.0000 -0.2824866858
N   N123      1.0  0.95060  0.33095  0.67060  1.0000 -0.2824866858
N   N124      1.0  0.54940  0.66905  0.17060  1.0000 -0.2824866858
N   N125      1.0  0.23310  0.79322  0.84552  1.0000 -0.2824866858
N   N126      1.0  0.26690  0.20678  0.34552  1.0000 -0.2824866858
N   N127      1.0  0.76690  0.29322  0.65448  1.0000 -0.2824866858
N   N128      1.0  0.73310  0.70678  0.15448  1.0000 -0.2824866858
N   N129      1.0  0.73540  0.85931  0.81919  1.0000 -0.2907589412
N   N130      1.0  0.76460  0.14069  0.31919  1.0000 -0.2907589412
N   N131      1.0  0.26460  0.35931  0.68081  1.0000 -0.2907589412
N   N132      1.0  0.23540  0.64069  0.18081  1.0000 -0.2907589412
N   N133      1.0  0.54750  0.82140  0.83506  1.0000 -0.3113086421
N   N134      1.0  0.95250  0.17860  0.33506  1.0000 -0.3113086421
N   N135      1.0  0.45250  0.32140  0.66494  1.0000 -0.3113086421
N   N136      1.0  0.04750  0.67860  0.16494  1.0000 -0.3113086421
N   N137      1.0  0.47650  0.75790  0.88821  1.0000 -0.2824866858
N   N138      1.0  0.02350  0.24210  0.38821  1.0000 -0.2824866858
N   N139      1.0  0.52350  0.25790  0.61179  1.0000 -0.2824866858
N   N140      1.0  0.97650  0.74210  0.11179  1.0000 -0.2824866858
N   N141      1.0  0.44650  0.73990  0.93515  1.0000 -0.318184388
N   N142      1.0  0.05350  0.26010  0.43515  1.0000 -0.318184388
N   N143      1.0  0.55350  0.23990  0.56485  1.0000 -0.318184388
N   N144      1.0  0.94650  0.76010  0.06485  1.0000 -0.318184388
N   N145      1.0  0.16240  0.74490  0.97282  1.0000 -0.2987116487
N   N146      1.0  0.33760  0.25510  0.47282  1.0000 -0.2987116487
N   N147      1.0  0.83760  0.24490  0.52718  1.0000 -0.2987116487
N   N148      1.0  0.66240  0.75510  0.02718  1.0000 -0.2987116487
N   N149      1.0  0.96370  0.76560  0.99542  1.0000 -0.2987116487
N   N150      1.0  0.53630  0.23440  0.49542  1.0000 -0.2987116487
N   N151      1.0  0.03630  0.26560  0.50458  1.0000 -0.2987116487
N   N152      1.0  0.46370  0.73440  0.00458  1.0000 -0.2987116487
N   N153      1.0  0.31690  0.65420  0.96878  1.0000 -0.2907589412
N   N154      1.0  0.18310  0.34580  0.46878  1.0000 -0.2907589412
N   N155      1.0  0.68310  0.15420  0.53122  1.0000 -0.2907589412
N   N156      1.0  0.81690  0.84580  0.03122  1.0000 -0.2907589412
N   N157      1.0  0.31660  0.58320  0.95596  1.0000 -0.2907589412
N   N158      1.0  0.18340  0.41680  0.45596  1.0000 -0.2907589412
N   N159      1.0  0.68340  0.08320  0.54404  1.0000 -0.2824866858
N   N160      1.0  0.81660  0.91680  0.04404  1.0000 -0.2907589412
