# DDEC6 charges by PACMAN v1.1 (https://github.com/mtap-research/PACMAN-charge/)
data_2015[Zn][nan]3[FSR]29
_chemical_formula_sum              "Zn8 H52 C68 N12 O36"
_cell_length_a       14.0003
_cell_length_b       12.1692
_cell_length_c       17.2897
_cell_angle_alpha    90
_cell_angle_beta     125.292
_cell_angle_gamma    90

_symmetry_space_group_name_H-M    "P 1"
_symmetry_Int_Tables_number       1

loop_
  _symmetry_equiv_pos_as_xyz
  'x, y, z'

loop_
  _atom_site_type_symbol
  _atom_site_label
  _atom_site_symmetry_multiplicity
  _atom_site_fract_x
  _atom_site_fract_y
  _atom_site_fract_z
  _atom_site_occupancy
  _atom_site_charge
Zn  Zn1       1.0  0.69266  0.52140  0.34229  1.0000 0.8877280906
Zn  Zn2       1.0  0.30734  0.02140  0.15771  1.0000 0.8877280906
Zn  Zn3       1.0  0.30734  0.47860  0.65771  1.0000 0.8877280906
Zn  Zn4       1.0  0.69266  0.97860  0.84229  1.0000 0.8877280906
Zn  Zn5       1.0  0.62058  0.74271  0.42519  1.0000 0.8877280906
Zn  Zn6       1.0  0.37942  0.24271  0.07481  1.0000 0.8877280906
Zn  Zn7       1.0  0.37942  0.25729  0.57481  1.0000 0.8877280906
Zn  Zn8       1.0  0.62058  0.75729  0.92519  1.0000 0.8877280906
H   H1        1.0  0.63930  0.43620  0.62440  1.0000 0.1309887551
H   H2        1.0  0.36070  0.93620  0.87560  1.0000 0.1309887551
H   H3        1.0  0.36070  0.56380  0.37560  1.0000 0.1309887551
H   H4        1.0  0.63930  0.06380  0.12440  1.0000 0.1309887551
H   H5        1.0  0.64360  0.54010  0.74110  1.0000 0.1309887551
H   H6        1.0  0.35640  0.04010  0.75890  1.0000 0.1309887551
H   H7        1.0  0.35640  0.45990  0.25890  1.0000 0.1309887551
H   H8        1.0  0.64360  0.95990  0.24110  1.0000 0.1309887551
H   H9        1.0  0.61480  0.81530  0.59840  1.0000 0.1188821078
H   H10       1.0  0.38520  0.31530  0.90160  1.0000 0.1188821078
H   H11       1.0  0.38520  0.18470  0.40160  1.0000 0.1188821078
H   H12       1.0  0.61480  0.68470  0.09840  1.0000 0.1188821078
H   H13       1.0  0.77710  0.16540  0.25400  1.0000 0.1381536148
H   H14       1.0  0.22290  0.66540  0.24600  1.0000 0.1381536148
H   H15       1.0  0.22290  0.83460  0.74600  1.0000 0.1381536148
H   H16       1.0  0.77710  0.33460  0.75400  1.0000 0.1381536148
H   H17       1.0  0.98360  0.16990  0.35680  1.0000 0.1381536148
H   H18       1.0  0.01640  0.66990  0.14320  1.0000 0.1381536148
H   H19       1.0  0.01640  0.83010  0.64320  1.0000 0.1309887551
H   H20       1.0  0.98360  0.33010  0.85680  1.0000 0.1381536148
H   H21       1.0  0.96040  0.47690  0.43200  1.0000 0.1100163304
H   H22       1.0  0.03960  0.97690  0.06800  1.0000 0.1100163304
H   H23       1.0  0.03960  0.52310  0.56800  1.0000 0.1100163304
H   H24       1.0  0.96040  0.02310  0.93200  1.0000 0.1100163304
H   H25       1.0  0.62050  0.97040  0.37270  1.0000 0.1027101197
H   H26       1.0  0.37950  0.47040  0.12730  1.0000 0.1027101197
H   H27       1.0  0.37950  0.02960  0.62730  1.0000 0.1027101197
H   H28       1.0  0.62050  0.52960  0.87270  1.0000 0.1027101197
H   H29       1.0  0.75160  0.11580  0.60160  1.0000 0.1381536148
H   H30       1.0  0.24840  0.61580  0.89840  1.0000 0.1381536148
H   H31       1.0  0.24840  0.88420  0.39840  1.0000 0.1381536148
H   H32       1.0  0.75160  0.38420  0.10160  1.0000 0.1381536148
H   H33       1.0  0.63090  0.18230  0.54770  1.0000 0.1381536148
H   H34       1.0  0.36910  0.68230  0.95230  1.0000 0.1381536148
H   H35       1.0  0.36910  0.81770  0.45230  1.0000 0.1381536148
H   H36       1.0  0.63090  0.31770  0.04770  1.0000 0.1381536148
H   H37       1.0  0.63310  0.05420  0.56950  1.0000 0.1381536148
H   H38       1.0  0.36690  0.55420  0.93050  1.0000 0.1381536148
H   H39       1.0  0.36690  0.94580  0.43050  1.0000 0.1381536148
H   H40       1.0  0.63310  0.44580  0.06950  1.0000 0.1381536148
H   H41       1.0  0.62550  0.14840  0.34570  1.0000 0.1309887551
H   H42       1.0  0.37450  0.64840  0.15430  1.0000 0.1309887551
H   H43       1.0  0.37450  0.85160  0.65430  1.0000 0.1309887551
H   H44       1.0  0.62550  0.35160  0.84570  1.0000 0.1309887551
H   H45       1.0  0.61040  0.23670  0.40650  1.0000 0.1381536148
H   H46       1.0  0.38960  0.73670  0.09350  1.0000 0.1381536148
H   H47       1.0  0.38960  0.76330  0.59350  1.0000 0.1381536148
H   H48       1.0  0.61040  0.26330  0.90650  1.0000 0.1381536148
H   H49       1.0  0.73810  0.19470  0.44270  1.0000 0.1381536148
H   H50       1.0  0.26190  0.69470  0.05730  1.0000 0.1381536148
H   H51       1.0  0.26190  0.80530  0.55730  1.0000 0.1381536148
H   H52       1.0  0.73810  0.30530  0.94270  1.0000 0.1381536148
C   C1        1.0  0.62738  0.56910  0.54698  1.0000 0.1027101197
C   C2        1.0  0.37262  0.06910  0.95302  1.0000 0.1027101197
C   C3        1.0  0.37262  0.43090  0.45302  1.0000 0.1027101197
C   C4        1.0  0.62738  0.93090  0.04698  1.0000 0.1027101197
C   C5        1.0  0.63570  0.51410  0.62100  1.0000 -0.1464663267
C   C6        1.0  0.36430  0.01410  0.87900  1.0000 -0.1464663267
C   C7        1.0  0.36430  0.48590  0.37900  1.0000 -0.1464663267
C   C8        1.0  0.63570  0.98590  0.12100  1.0000 -0.1464663267
C   C9        1.0  0.63840  0.57560  0.68990  1.0000 -0.0415248263
C   C10       1.0  0.36160  0.07560  0.81010  1.0000 -0.0415248263
C   C11       1.0  0.36160  0.42440  0.31010  1.0000 -0.0415248263
C   C12       1.0  0.63840  0.92440  0.18990  1.0000 -0.0415248263
C   C13       1.0  0.63338  0.68920  0.68318  1.0000 -0.0613640805
C   C14       1.0  0.36662  0.18920  0.81682  1.0000 -0.0613640805
C   C15       1.0  0.36662  0.31080  0.31682  1.0000 -0.0613640805
C   C16       1.0  0.63338  0.81080  0.18318  1.0000 -0.0613640805
C   C17       1.0  0.62094  0.73760  0.60454  1.0000 0.0900399901
C   C18       1.0  0.37906  0.23760  0.89546  1.0000 0.0900399901
C   C19       1.0  0.37906  0.26240  0.39546  1.0000 0.0900399901
C   C20       1.0  0.62094  0.76240  0.10454  1.0000 0.0900399901
C   C21       1.0  0.63410  0.50830  0.47380  1.0000 0.5297557817
C   C22       1.0  0.36590  0.00830  0.02620  1.0000 0.5297557817
C   C23       1.0  0.36590  0.49170  0.52620  1.0000 0.5297557817
C   C24       1.0  0.63410  0.99170  0.97380  1.0000 0.5297557817
C   C25       1.0  0.64090  0.76100  0.75740  1.0000 0.5919101045
C   C26       1.0  0.35910  0.26100  0.74260  1.0000 0.5919101045
C   C27       1.0  0.35910  0.23900  0.24260  1.0000 0.5919101045
C   C28       1.0  0.64090  0.73900  0.25740  1.0000 0.5919101045
C   C29       1.0  0.75311  0.31660  0.29091  1.0000 0.1100163304
C   C30       1.0  0.24689  0.81660  0.20909  1.0000 0.1100163304
C   C31       1.0  0.24689  0.68340  0.70909  1.0000 0.1100163304
C   C32       1.0  0.75311  0.18340  0.79091  1.0000 0.1100163304
C   C33       1.0  0.81620  0.22760  0.29300  1.0000 -0.1409752413
C   C34       1.0  0.18380  0.72760  0.20700  1.0000 -0.1409752413
C   C35       1.0  0.18380  0.77240  0.70700  1.0000 -0.1409752413
C   C36       1.0  0.81620  0.27240  0.79300  1.0000 -0.1409752413
C   C37       1.0  0.93870  0.23060  0.35360  1.0000 -0.0542331941
C   C38       1.0  0.06130  0.73060  0.14640  1.0000 -0.0542331941
C   C39       1.0  0.06130  0.76940  0.64640  1.0000 -0.0542331941
C   C40       1.0  0.93870  0.26940  0.85360  1.0000 -0.0542331941
C   C41       1.0  0.99350  0.32310  0.40870  1.0000 -0.0613640805
C   C42       1.0  0.00650  0.82310  0.09130  1.0000 -0.0613640805
C   C43       1.0  0.00650  0.67690  0.59130  1.0000 -0.0613640805
C   C44       1.0  0.99350  0.17690  0.90870  1.0000 -0.0613640805
C   C45       1.0  0.92330  0.41100  0.39820  1.0000 0.0900399901
C   C46       1.0  0.07670  0.91100  0.10180  1.0000 0.0900399901
C   C47       1.0  0.07670  0.58900  0.60180  1.0000 0.0900399901
C   C48       1.0  0.92330  0.08900  0.89820  1.0000 0.0900399901
C   C49       1.0  0.62039  0.32140  0.23239  1.0000 0.540075715
C   C50       1.0  0.37961  0.82140  0.26761  1.0000 0.540075715
C   C51       1.0  0.37961  0.67860  0.76761  1.0000 0.540075715
C   C52       1.0  0.62039  0.17860  0.73239  1.0000 0.540075715
C   C53       1.0  0.12500  0.33190  0.48180  1.0000 0.5919101045
C   C54       1.0  0.87500  0.83190  0.01820  1.0000 0.5919101045
C   C55       1.0  0.87500  0.66810  0.51820  1.0000 0.5919101045
C   C56       1.0  0.12500  0.16810  0.98180  1.0000 0.5919101045
C   C57       1.0  0.63110  0.98250  0.43150  1.0000 0.3110477582
C   C58       1.0  0.36890  0.48250  0.06850  1.0000 0.3110477582
C   C59       1.0  0.36890  0.01750  0.56850  1.0000 0.3110477582
C   C60       1.0  0.63110  0.51750  0.93150  1.0000 0.3110477582
C   C61       1.0  0.66720  0.11140  0.55260  1.0000 -0.3341772526
C   C62       1.0  0.33280  0.61140  0.94740  1.0000 -0.3341772526
C   C63       1.0  0.33280  0.88860  0.44740  1.0000 -0.3341772526
C   C64       1.0  0.66720  0.38860  0.05260  1.0000 -0.3341772526
C   C65       1.0  0.65590  0.17340  0.40990  1.0000 -0.3506728306
C   C66       1.0  0.34410  0.67340  0.09010  1.0000 -0.3506728306
C   C67       1.0  0.34410  0.82660  0.59010  1.0000 -0.3506728306
C   C68       1.0  0.65590  0.32660  0.90990  1.0000 -0.3506728306
N   N1        1.0  0.61737  0.67905  0.53773  1.0000 -0.2398293658
N   N2        1.0  0.38263  0.17905  0.96227  1.0000 -0.2398293658
N   N3        1.0  0.38263  0.32095  0.46227  1.0000 -0.2398293658
N   N4        1.0  0.61737  0.82095  0.03773  1.0000 -0.2398293658
N   N5        1.0  0.80629  0.40750  0.34298  1.0000 -0.2569830164
N   N6        1.0  0.19371  0.90750  0.15702  1.0000 -0.2569830164
N   N7        1.0  0.19371  0.59250  0.65702  1.0000 -0.2569830164
N   N8        1.0  0.80629  0.09250  0.84298  1.0000 -0.2569830164
N   N9        1.0  0.64657  0.08460  0.46187  1.0000 0.0440171615
N   N10       1.0  0.35343  0.58460  0.03813  1.0000 0.0440171615
N   N11       1.0  0.35343  0.91540  0.53813  1.0000 0.0440171615
N   N12       1.0  0.64657  0.41540  0.96187  1.0000 0.0440171615
O   O1        1.0  0.61295  0.56795  0.40317  1.0000 -0.5699952065
O   O2        1.0  0.38705  0.06795  0.09683  1.0000 -0.5699952065
O   O3        1.0  0.38705  0.43205  0.59683  1.0000 -0.5699952065
O   O4        1.0  0.61295  0.93205  0.90317  1.0000 -0.5699952065
O   O5        1.0  0.66034  0.41115  0.48497  1.0000 -0.4969115003
O   O6        1.0  0.33966  0.91115  0.01503  1.0000 -0.4969115003
O   O7        1.0  0.33966  0.58885  0.51503  1.0000 -0.4969115003
O   O8        1.0  0.66034  0.08885  0.98497  1.0000 -0.4969115003
O   O9        1.0  0.64873  0.71376  0.82510  1.0000 -0.5485683277
O   O10       1.0  0.35127  0.21376  0.67490  1.0000 -0.5485683277
O   O11       1.0  0.35127  0.28624  0.17490  1.0000 -0.5485683277
O   O12       1.0  0.64873  0.78624  0.32510  1.0000 -0.5485683277
O   O13       1.0  0.64164  0.86364  0.74525  1.0000 -0.5485683277
O   O14       1.0  0.35836  0.36364  0.75475  1.0000 -0.5485683277
O   O15       1.0  0.35836  0.13636  0.25475  1.0000 -0.5485683277
O   O16       1.0  0.64164  0.63636  0.24525  1.0000 -0.5485683277
O   O17       1.0  0.57823  0.40174  0.24931  1.0000 -0.5276600564
O   O18       1.0  0.42177  0.90174  0.25069  1.0000 -0.5276600564
O   O19       1.0  0.42177  0.59826  0.75069  1.0000 -0.5276600564
O   O20       1.0  0.57823  0.09826  0.74931  1.0000 -0.5276600564
O   O21       1.0  0.56443  0.24611  0.17303  1.0000 -0.5276600564
O   O22       1.0  0.43557  0.74611  0.32697  1.0000 -0.5276600564
O   O23       1.0  0.43557  0.75389  0.82697  1.0000 -0.5276600564
O   O24       1.0  0.56443  0.25389  0.67303  1.0000 -0.5276600564
O   O25       1.0  0.18938  0.26643  0.47712  1.0000 -0.5276600564
O   O26       1.0  0.81062  0.76643  0.02288  1.0000 -0.5276600564
O   O27       1.0  0.81062  0.73357  0.52288  1.0000 -0.5276600564
O   O28       1.0  0.18938  0.23357  0.97712  1.0000 -0.5276600564
O   O29       1.0  0.15535  0.40680  0.54281  1.0000 -0.5699952065
O   O30       1.0  0.84465  0.90680  0.95719  1.0000 -0.5699952065
O   O31       1.0  0.84465  0.59320  0.45719  1.0000 -0.5699952065
O   O32       1.0  0.15535  0.09320  0.04281  1.0000 -0.5699952065
O   O33       1.0  0.62933  0.90057  0.47387  1.0000 -0.4622291967
O   O34       1.0  0.37067  0.40057  0.02613  1.0000 -0.4622291967
O   O35       1.0  0.37067  0.09943  0.52613  1.0000 -0.4622291967
O   O36       1.0  0.62933  0.59943  0.97387  1.0000 -0.4622291967
