# DDEC6 charges by PACMAN v1.1 (https://github.com/mtap-research/PACMAN-charge/)
data_2015[Tb][pcu]3[FSR]1
_chemical_formula_sum              "Tb4 H24 C48 O44"
_cell_length_a       10.64
_cell_length_b       11.239
_cell_length_c       15.232
_cell_angle_alpha    99.351
_cell_angle_beta     99.511
_cell_angle_gamma    92.482

_symmetry_space_group_name_H-M    "P 1"
_symmetry_Int_Tables_number       1

loop_
  _symmetry_equiv_pos_as_xyz
  'x, y, z'

loop_
  _atom_site_type_symbol
  _atom_site_label
  _atom_site_symmetry_multiplicity
  _atom_site_fract_x
  _atom_site_fract_y
  _atom_site_fract_z
  _atom_site_occupancy
  _atom_site_charge
Tb  Tb1       1.0  0.39703  0.76232  0.86819  1.0000 1.9903008197
Tb  Tb2       1.0  0.29005  0.69310  0.59436  1.0000 2.0078511093
Tb  Tb3       1.0  0.60297  0.23768  0.13181  1.0000 1.9903008197
Tb  Tb4       1.0  0.70995  0.30690  0.40564  1.0000 2.0078511093
H   H1        1.0  0.72200  0.78290  0.84230  1.0000 0.1482279826
H   H2        1.0  0.96230  0.66667  0.62240  1.0000 0.1482279826
H   H3        1.0  0.65490  0.66400  0.54680  1.0000 0.3526154611
H   H4        1.0  0.28420  0.54740  0.27460  1.0000 0.1482279826
H   H5        1.0  0.36550  0.91450  0.18680  1.0000 0.1482279826
H   H6        1.0  0.37620  0.93290  0.40550  1.0000 0.3526154611
H   H7        1.0  0.26370  0.53370  0.05460  1.0000 0.3526154611
H   H8        1.0  0.03270  0.80710  0.91680  1.0000 0.3697152291
H   H9        1.0  0.34160  0.15360  0.86520  1.0000 0.1482279826
H   H10       1.0  0.34890  0.01520  0.57100  1.0000 0.3697152291
H   H11       1.0  0.32990  0.29890  0.59750  1.0000 0.1482279826
H   H12       1.0  0.36450  0.45100  0.88720  1.0000 0.3526154611
H   H13       1.0  0.27800  0.21710  0.15770  1.0000 0.1482279826
H   H14       1.0  0.03770  0.33340  0.37760  1.0000 0.1482279826
H   H15       1.0  0.34510  0.33600  0.45320  1.0000 0.3526154611
H   H16       1.0  0.71580  0.45260  0.72540  1.0000 0.1482279826
H   H17       1.0  0.63450  0.08550  0.81320  1.0000 0.1482279826
H   H18       1.0  0.62380  0.06710  0.59450  1.0000 0.3526154611
H   H19       1.0  0.73630  0.46630  0.94540  1.0000 0.3526154611
H   H20       1.0  0.96730  0.19290  0.08320  1.0000 0.3697152291
H   H21       1.0  0.65840  0.84640  0.13480  1.0000 0.1482279826
H   H22       1.0  0.65110  0.98480  0.42900  1.0000 0.3697152291
H   H23       1.0  0.67010  0.70110  0.40250  1.0000 0.1482279826
H   H24       1.0  0.63550  0.54900  0.11280  1.0000 0.3526154611
C   C1        1.0  0.35770  0.48590  0.73090  1.0000 0.632323191
C   C2        1.0  0.56750  0.72480  0.68520  1.0000 0.6394628737
C   C3        1.0  0.70990  0.72680  0.70860  1.0000 -0.1303595636
C   C4        1.0  0.77090  0.76020  0.79780  1.0000 -0.1970917579
C   C5        1.0  0.90230  0.76070  0.82270  1.0000 0.2491746549
C   C6        1.0  0.78520  0.69290  0.64240  1.0000 0.2343644131
C   C7        1.0  0.91400  0.69190  0.66667  1.0000 -0.1926131766
C   C8        1.0  0.32190  0.71880  0.41780  1.0000 0.5613416587
C   C9        1.0  0.32490  0.72640  0.32160  1.0000 -0.1303595636
C   C10       1.0  0.30170  0.62090  0.25700  1.0000 -0.1681203876
C   C11       1.0  0.30440  0.62480  0.16700  1.0000 0.2393238623
C   C12       1.0  0.32950  0.73550  0.14040  1.0000 -0.1303595636
C   C13       1.0  0.35010  0.84070  0.20470  1.0000 -0.1926131766
C   C14       1.0  0.34820  0.83710  0.29410  1.0000 0.2393238623
C   C15       1.0  0.34530  0.74020  0.04580  1.0000 0.5613416587
C   C16       1.0  0.11840  0.73050  0.77860  1.0000 0.6488651786
C   C17       1.0  0.97630  0.72750  0.75600  1.0000 -0.1303595636
C   C18       1.0  0.32380  0.96920  0.73270  1.0000 0.6488651786
C   C19       1.0  0.32620  0.09980  0.72950  1.0000 -0.1681203876
C   C20       1.0  0.34030  0.18280  0.81140  1.0000 -0.1926131766
C   C21       1.0  0.35200  0.30550  0.81350  1.0000 0.2393238623
C   C22       1.0  0.32030  0.14550  0.64920  1.0000 0.2596317385
C   C23       1.0  0.33230  0.27000  0.65150  1.0000 -0.1847316917
C   C24       1.0  0.34750  0.35260  0.73170  1.0000 -0.1350506391
C   C25       1.0  0.64230  0.51410  0.26910  1.0000 0.632323191
C   C26       1.0  0.43250  0.27520  0.31480  1.0000 0.6394628737
C   C27       1.0  0.29010  0.27320  0.29140  1.0000 -0.1303595636
C   C28       1.0  0.22910  0.23980  0.20220  1.0000 -0.1970917579
C   C29       1.0  0.09770  0.23930  0.17730  1.0000 0.2491746549
C   C30       1.0  0.21480  0.30710  0.35760  1.0000 0.2343644131
C   C31       1.0  0.08600  0.30810  0.33333  1.0000 -0.1926131766
C   C32       1.0  0.67810  0.28120  0.58220  1.0000 0.5613416587
C   C33       1.0  0.67510  0.27360  0.67840  1.0000 -0.1303595636
C   C34       1.0  0.69830  0.37910  0.74300  1.0000 -0.1681203876
C   C35       1.0  0.69560  0.37520  0.83300  1.0000 0.2393238623
C   C36       1.0  0.67050  0.26450  0.85960  1.0000 -0.1303595636
C   C37       1.0  0.64990  0.15930  0.79530  1.0000 -0.1926131766
C   C38       1.0  0.65180  0.16290  0.70590  1.0000 0.2393238623
C   C39       1.0  0.65470  0.25980  0.95420  1.0000 0.5613416587
C   C40       1.0  0.88160  0.26950  0.22140  1.0000 0.6488651786
C   C41       1.0  0.02370  0.27250  0.24400  1.0000 -0.1303595636
C   C42       1.0  0.67620  0.03080  0.26730  1.0000 0.6488651786
C   C43       1.0  0.67380  0.90020  0.27050  1.0000 -0.1681203876
C   C44       1.0  0.65970  0.81720  0.18860  1.0000 -0.1926131766
C   C45       1.0  0.64800  0.69450  0.18650  1.0000 0.2393238623
C   C46       1.0  0.67970  0.85450  0.35080  1.0000 0.2596317385
C   C47       1.0  0.66770  0.73000  0.34850  1.0000 -0.1847316917
C   C48       1.0  0.65250  0.64740  0.26830  1.0000 -0.1350506391
O   O1        1.0  0.36800  0.55470  0.80700  1.0000 -0.6301131394
O   O2        1.0  0.35580  0.52070  0.65790  1.0000 -0.5805492546
O   O3        1.0  0.29630  0.61780  0.43980  1.0000 -0.5698995735
O   O4        1.0  0.30930  0.89720  0.65760  1.0000 -0.6301131394
O   O5        1.0  0.33770  0.93470  0.80810  1.0000 -0.6089728918
O   O6        1.0  0.18380  0.70340  0.71840  1.0000 -0.6641353514
O   O7        1.0  0.56610  0.91880  0.92560  1.0000 -0.0883538309
O   O8        1.0  0.51630  0.69790  0.60220  1.0000 -0.6089728918
O   O9        1.0  0.50050  0.74710  0.74540  1.0000 -0.6717978861
O   O10       1.0  0.73240  0.65940  0.55310  1.0000 -0.4101928022
O   O11       1.0  0.36920  0.94580  0.35350  1.0000 -0.4286681409
O   O12       1.0  0.27980  0.51850  0.10590  1.0000 -0.3985664244
O   O13       1.0  0.34410  0.81340  0.47690  1.0000 -0.5805492546
O   O14       1.0  0.13460  0.51650  0.53950  1.0000 -0.0213761484
O   O15       1.0  0.95500  0.79540  0.91190  1.0000 -0.4359501149
O   O16       1.0  0.17050  0.76160  0.86080  1.0000 -0.6034871485
O   O17       1.0  0.09140  0.76340  0.52240  1.0000 -0.3324256088
O   O18       1.0  0.30710  0.07430  0.56700  1.0000 -0.3914203193
O   O19       1.0  0.36470  0.38060  0.89510  1.0000 -0.3985664244
O   O20       1.0  0.32500  0.64330  0.98740  1.0000 -0.5698995735
O   O21       1.0  0.38040  0.83710  0.02300  1.0000 -0.5364970114
O   O22       1.0  0.58340  0.67670  0.93700  1.0000 -0.08182653
O   O23       1.0  0.63200  0.44530  0.19300  1.0000 -0.6301131394
O   O24       1.0  0.64420  0.47930  0.34210  1.0000 -0.5805492546
O   O25       1.0  0.70370  0.38220  0.56020  1.0000 -0.5698995735
O   O26       1.0  0.69070  0.10280  0.34240  1.0000 -0.6301131394
O   O27       1.0  0.66230  0.06530  0.19190  1.0000 -0.6089728918
O   O28       1.0  0.81620  0.29660  0.28160  1.0000 -0.6641353514
O   O29       1.0  0.43390  0.08120  0.07440  1.0000 -0.0883538309
O   O30       1.0  0.48370  0.30210  0.39780  1.0000 -0.6089728918
O   O31       1.0  0.49950  0.25290  0.25460  1.0000 -0.6717978861
O   O32       1.0  0.26760  0.34060  0.44690  1.0000 -0.4101928022
O   O33       1.0  0.63080  0.05420  0.64650  1.0000 -0.4286681409
O   O34       1.0  0.72020  0.48150  0.89410  1.0000 -0.3985664244
O   O35       1.0  0.65590  0.18660  0.52310  1.0000 -0.5805492546
O   O36       1.0  0.86540  0.48350  0.46050  1.0000 -0.0213761484
O   O37       1.0  0.04500  0.20460  0.08810  1.0000 -0.4359501149
O   O38       1.0  0.82950  0.23840  0.13920  1.0000 -0.6034871485
O   O39       1.0  0.90860  0.23660  0.47760  1.0000 -0.3324256088
O   O40       1.0  0.69290  0.92570  0.43300  1.0000 -0.3914203193
O   O41       1.0  0.63530  0.61940  0.10490  1.0000 -0.3985664244
O   O42       1.0  0.67500  0.35670  0.01260  1.0000 -0.5698995735
O   O43       1.0  0.61960  0.16290  0.97700  1.0000 -0.5364970114
O   O44       1.0  0.41660  0.32330  0.06300  1.0000 -0.0738828327
