# DDEC6 charges by PACMAN v1.1 (https://github.com/mtap-research/PACMAN-charge/)
data_2015[Co][nan]3[FSR]1
_chemical_formula_sum              "Co8 H144 C212 N32 O32"
_cell_length_a       21.523
_cell_length_b       21.523
_cell_length_c       20.156
_cell_angle_alpha    73.0112
_cell_angle_beta     106.989
_cell_angle_gamma    140.984

_symmetry_space_group_name_H-M    "P 1"
_symmetry_Int_Tables_number       1

loop_
  _symmetry_equiv_pos_as_xyz
  'x, y, z'

loop_
  _atom_site_type_symbol
  _atom_site_label
  _atom_site_symmetry_multiplicity
  _atom_site_fract_x
  _atom_site_fract_y
  _atom_site_fract_z
  _atom_site_occupancy
  _atom_site_charge
Co  Co1       1.0  0.11821  0.95117  0.12090  1.0000 0.7923057916
Co  Co2       1.0  0.95117  0.11821  0.37910  1.0000 0.7923057916
Co  Co3       1.0  0.88179  0.04883  0.87910  1.0000 0.7923057916
Co  Co4       1.0  0.04883  0.88179  0.62090  1.0000 0.7923057916
Co  Co5       1.0  0.56677  0.12447  0.32855  1.0000 0.8163977953
Co  Co6       1.0  0.12447  0.56677  0.17145  1.0000 0.8163977953
Co  Co7       1.0  0.43323  0.87553  0.67145  1.0000 0.8163977953
Co  Co8       1.0  0.87553  0.43323  0.82855  1.0000 0.8163977953
H   H1        1.0  0.08650  0.92930  0.36960  1.0000 0.1189844794
H   H2        1.0  0.92930  0.08650  0.13040  1.0000 0.1189844794
H   H3        1.0  0.91350  0.07070  0.63040  1.0000 0.1189844794
H   H4        1.0  0.07070  0.91350  0.86960  1.0000 0.1189844794
H   H5        1.0  0.08890  0.75890  0.51570  1.0000 0.1189844794
H   H6        1.0  0.75890  0.08890  0.98430  1.0000 0.1189844794
H   H7        1.0  0.91110  0.24110  0.48430  1.0000 0.1189844794
H   H8        1.0  0.24110  0.91110  0.01570  1.0000 0.1189844794
H   H9        1.0  0.11270  0.72510  0.43310  1.0000 0.1097567117
H   H10       1.0  0.72510  0.11270  0.06690  1.0000 0.1097567117
H   H11       1.0  0.88730  0.27490  0.56690  1.0000 0.1097567117
H   H12       1.0  0.27490  0.88730  0.93310  1.0000 0.1097567117
H   H13       1.0  0.12830  0.79770  0.31890  1.0000 0.1097567117
H   H14       1.0  0.79770  0.12830  0.18110  1.0000 0.1097567117
H   H15       1.0  0.87170  0.20230  0.68110  1.0000 0.1097567117
H   H16       1.0  0.20230  0.87170  0.81890  1.0000 0.1097567117
H   H17       1.0  0.95180  0.89820  0.16930  1.0000 0.1189844794
H   H18       1.0  0.89820  0.95180  0.33070  1.0000 0.1189844794
H   H19       1.0  0.04820  0.10180  0.83070  1.0000 0.1189844794
H   H20       1.0  0.10180  0.04820  0.66930  1.0000 0.1189844794
H   H21       1.0  0.75210  0.69110  0.04040  1.0000 0.1189844794
H   H22       1.0  0.69110  0.75210  0.45960  1.0000 0.1189844794
H   H23       1.0  0.24790  0.30890  0.95960  1.0000 0.1189844794
H   H24       1.0  0.30890  0.24790  0.54040  1.0000 0.1189844794
H   H25       1.0  0.91310  0.77090  0.03330  1.0000 0.1301241677
H   H26       1.0  0.77090  0.91310  0.46670  1.0000 0.1301241677
H   H27       1.0  0.08690  0.22910  0.96670  1.0000 0.1301241677
H   H28       1.0  0.22910  0.08690  0.53330  1.0000 0.1301241677
H   H29       1.0  0.84810  0.90710  0.15740  1.0000 0.1391078102
H   H30       1.0  0.90710  0.84810  0.34260  1.0000 0.1391078102
H   H31       1.0  0.15190  0.09290  0.84260  1.0000 0.1391078102
H   H32       1.0  0.09290  0.15190  0.65740  1.0000 0.1391078102
H   H33       1.0  0.72840  0.87980  0.18020  1.0000 0.1189844794
H   H34       1.0  0.87980  0.72840  0.31980  1.0000 0.1189844794
H   H35       1.0  0.27160  0.12020  0.81980  1.0000 0.1189844794
H   H36       1.0  0.12020  0.27160  0.68020  1.0000 0.1189844794
H   H37       1.0  0.51640  0.60220  0.13010  1.0000 0.1097567117
H   H38       1.0  0.60220  0.51640  0.36990  1.0000 0.1097567117
H   H39       1.0  0.48360  0.39780  0.86990  1.0000 0.1097567117
H   H40       1.0  0.39780  0.48360  0.63010  1.0000 0.1097567117
H   H41       1.0  0.63570  0.62830  0.10940  1.0000 0.1189844794
H   H42       1.0  0.62830  0.63570  0.39060  1.0000 0.1189844794
H   H43       1.0  0.36430  0.37170  0.89060  1.0000 0.1189844794
H   H44       1.0  0.37170  0.36430  0.60940  1.0000 0.1189844794
H   H45       1.0  0.12040  0.28580  0.28660  1.0000 0.1301241677
H   H46       1.0  0.28580  0.12040  0.21340  1.0000 0.1301241677
H   H47       1.0  0.87960  0.71420  0.71340  1.0000 0.1301241677
H   H48       1.0  0.71420  0.87960  0.78660  1.0000 0.1301241677
H   H49       1.0  0.31650  0.42210  0.44970  1.0000 0.1301241677
H   H50       1.0  0.42210  0.31650  0.05030  1.0000 0.1301241677
H   H51       1.0  0.68350  0.57790  0.55030  1.0000 0.1301241677
H   H52       1.0  0.57790  0.68350  0.94970  1.0000 0.1301241677
H   H53       1.0  0.15660  0.25940  0.49020  1.0000 0.1189844794
H   H54       1.0  0.25940  0.15660  0.00980  1.0000 0.1189844794
H   H55       1.0  0.84340  0.74060  0.50980  1.0000 0.1189844794
H   H56       1.0  0.74060  0.84340  0.99020  1.0000 0.1189844794
H   H57       1.0  0.22650  0.47390  0.24840  1.0000 0.1301241677
H   H58       1.0  0.47390  0.22650  0.25160  1.0000 0.1301241677
H   H59       1.0  0.77350  0.52610  0.75160  1.0000 0.1301241677
H   H60       1.0  0.52610  0.77350  0.74840  1.0000 0.1301241677
H   H61       1.0  0.33880  0.60900  0.17100  1.0000 0.1189844794
H   H62       1.0  0.60900  0.33880  0.32900  1.0000 0.1189844794
H   H63       1.0  0.66120  0.39100  0.82900  1.0000 0.1189844794
H   H64       1.0  0.39100  0.66120  0.67100  1.0000 0.1189844794
H   H65       1.0  0.53270  0.61230  0.26220  1.0000 0.1097567117
H   H66       1.0  0.61230  0.53270  0.23780  1.0000 0.1097567117
H   H67       1.0  0.46730  0.38770  0.73780  1.0000 0.1097567117
H   H68       1.0  0.38770  0.46730  0.76220  1.0000 0.1097567117
H   H69       1.0  0.42230  0.48010  0.34210  1.0000 0.1301241677
H   H70       1.0  0.48010  0.42230  0.15790  1.0000 0.1301241677
H   H71       1.0  0.57770  0.51990  0.65790  1.0000 0.1301241677
H   H72       1.0  0.51990  0.57770  0.84210  1.0000 0.1301241677
H   H73       1.0  0.51310  0.96910  0.26450  1.0000 0.1097567117
H   H74       1.0  0.96910  0.51310  0.23550  1.0000 0.1097567117
H   H75       1.0  0.48690  0.03090  0.73550  1.0000 0.1097567117
H   H76       1.0  0.03090  0.48690  0.76450  1.0000 0.1097567117
H   H77       1.0  0.76390  0.17950  0.37360  1.0000 0.1391078102
H   H78       1.0  0.17950  0.76390  0.12640  1.0000 0.1391078102
H   H79       1.0  0.23610  0.82050  0.62640  1.0000 0.1391078102
H   H80       1.0  0.82050  0.23610  0.87360  1.0000 0.1391078102
H   H81       1.0  0.77880  0.09320  0.33720  1.0000 0.1391078102
H   H82       1.0  0.09320  0.77880  0.16280  1.0000 0.1391078102
H   H83       1.0  0.22120  0.90680  0.66280  1.0000 0.1391078102
H   H84       1.0  0.90680  0.22120  0.83720  1.0000 0.1391078102
H   H85       1.0  0.53380  0.93640  0.16970  1.0000 0.1301241677
H   H86       1.0  0.93640  0.53380  0.33030  1.0000 0.1301241677
H   H87       1.0  0.46620  0.06360  0.83030  1.0000 0.1301241677
H   H88       1.0  0.06360  0.46620  0.66970  1.0000 0.1301241677
H   H89       1.0  0.48950  0.82230  0.11780  1.0000 0.1189844794
H   H90       1.0  0.82230  0.48950  0.38220  1.0000 0.1189844794
H   H91       1.0  0.51050  0.17770  0.88220  1.0000 0.1189844794
H   H92       1.0  0.17770  0.51050  0.61780  1.0000 0.1189844794
H   H93       1.0  0.63530  0.80210  0.27940  1.0000 0.1097567117
H   H94       1.0  0.80210  0.63530  0.22060  1.0000 0.1097567117
H   H95       1.0  0.36470  0.19790  0.72060  1.0000 0.1097567117
H   H96       1.0  0.19790  0.36470  0.77940  1.0000 0.1097567117
H   H97       1.0  0.67590  0.91270  0.33280  1.0000 0.1301241677
H   H98       1.0  0.91270  0.67590  0.16720  1.0000 0.1301241677
H   H99       1.0  0.32410  0.08730  0.66720  1.0000 0.1301241677
H   H100      1.0  0.08730  0.32410  0.83280  1.0000 0.1301241677
H   H101      1.0  0.51210  0.86270  0.82780  1.0000 0.1189844794
H   H102      1.0  0.86270  0.51210  0.67220  1.0000 0.1189844794
H   H103      1.0  0.48790  0.13730  0.17220  1.0000 0.1189844794
H   H104      1.0  0.13730  0.48790  0.32780  1.0000 0.1189844794
H   H105      1.0  0.25390  0.64430  0.72950  1.0000 0.1301241677
H   H106      1.0  0.64430  0.25390  0.77050  1.0000 0.1301241677
H   H107      1.0  0.74610  0.35570  0.27050  1.0000 0.1301241677
H   H108      1.0  0.35570  0.74610  0.22950  1.0000 0.1301241677
H   H109      1.0  0.25200  0.57800  0.85100  1.0000 0.1301241677
H   H110      1.0  0.57800  0.25200  0.64900  1.0000 0.1301241677
H   H111      1.0  0.74800  0.42200  0.14900  1.0000 0.1301241677
H   H112      1.0  0.42200  0.74800  0.35100  1.0000 0.1301241677
H   H113      1.0  0.55790  0.86430  0.93770  1.0000 0.1301241677
H   H114      1.0  0.86430  0.55790  0.56230  1.0000 0.1301241677
H   H115      1.0  0.44210  0.13570  0.06230  1.0000 0.1301241677
H   H116      1.0  0.13570  0.44210  0.43770  1.0000 0.1301241677
H   H117      1.0  0.60480  0.86120  0.05530  1.0000 0.1189844794
H   H118      1.0  0.86120  0.60480  0.44470  1.0000 0.1189844794
H   H119      1.0  0.39520  0.13880  0.94470  1.0000 0.1189844794
H   H120      1.0  0.13880  0.39520  0.55530  1.0000 0.1189844794
H   H121      1.0  0.35470  0.57030  0.08160  1.0000 0.1189844794
H   H122      1.0  0.57030  0.35470  0.41840  1.0000 0.1189844794
H   H123      1.0  0.64530  0.42970  0.91840  1.0000 0.1189844794
H   H124      1.0  0.42970  0.64530  0.58160  1.0000 0.1189844794
H   H125      1.0  0.30800  0.57180  0.96270  1.0000 0.1301241677
H   H126      1.0  0.57180  0.30800  0.53730  1.0000 0.1301241677
H   H127      1.0  0.69200  0.42820  0.03730  1.0000 0.1301241677
H   H128      1.0  0.42820  0.69200  0.46270  1.0000 0.1301241677
H   H129      1.0  0.60490  0.10430  0.54770  1.0000 0.1391078102
H   H130      1.0  0.10430  0.60490  0.95230  1.0000 0.1391078102
H   H131      1.0  0.39510  0.89570  0.45230  1.0000 0.1391078102
H   H132      1.0  0.89570  0.39510  0.04770  1.0000 0.1391078102
H   H133      1.0  0.79540  0.27700  0.70120  1.0000 0.1097567117
H   H134      1.0  0.27700  0.79540  0.79880  1.0000 0.1097567117
H   H135      1.0  0.20460  0.72300  0.29880  1.0000 0.1097567117
H   H136      1.0  0.72300  0.20460  0.20120  1.0000 0.1097567117
H   H137      1.0  0.89060  0.41360  0.62340  1.0000 0.1097567117
H   H138      1.0  0.41360  0.89060  0.87660  1.0000 0.1097567117
H   H139      1.0  0.10940  0.58640  0.37660  1.0000 0.1097567117
H   H140      1.0  0.58640  0.10940  0.12340  1.0000 0.1097567117
H   H141      1.0  0.84540  0.39760  0.50310  1.0000 0.1189844794
H   H142      1.0  0.39760  0.84540  0.99690  1.0000 0.1189844794
H   H143      1.0  0.15460  0.60240  0.49690  1.0000 0.1189844794
H   H144      1.0  0.60240  0.15460  0.00310  1.0000 0.1189844794
C   C1        1.0  0.11639  0.91621  0.25868  1.0000 0.5360046716
C   C2        1.0  0.91621  0.11639  0.24132  1.0000 0.5360046716
C   C3        1.0  0.88361  0.08379  0.74132  1.0000 0.5360046716
C   C4        1.0  0.08379  0.88361  0.75868  1.0000 0.5360046716
C   C5        1.0  0.10908  0.87052  0.33287  1.0000 -0.0204722979
C   C6        1.0  0.87052  0.10908  0.16713  1.0000 -0.0204722979
C   C7        1.0  0.89092  0.12948  0.66713  1.0000 -0.0204722979
C   C8        1.0  0.12948  0.89092  0.83287  1.0000 -0.0204722979
C   C9        1.0  0.09255  0.88885  0.38244  1.0000 -0.1283227956
C   C10       1.0  0.88885  0.09255  0.11756  1.0000 -0.1283227956
C   C11       1.0  0.90745  0.11115  0.61756  1.0000 -0.1283227956
C   C12       1.0  0.11115  0.90745  0.88244  1.0000 -0.1283227956
C   C13       1.0  0.08499  0.84693  0.45094  1.0000 -0.0204722979
C   C14       1.0  0.84693  0.08499  0.04906  1.0000 -0.0204722979
C   C15       1.0  0.91501  0.15307  0.54906  1.0000 -0.0204722979
C   C16       1.0  0.15307  0.91501  0.95094  1.0000 -0.0204722979
C   C17       1.0  0.06714  0.86766  0.50356  1.0000 0.5360046716
C   C18       1.0  0.86766  0.06714  0.99644  1.0000 0.5360046716
C   C19       1.0  0.93286  0.13234  0.49644  1.0000 0.5360046716
C   C20       1.0  0.13234  0.93286  0.00356  1.0000 0.5360046716
C   C21       1.0  0.09339  0.78661  0.46963  1.0000 -0.1113393662
C   C22       1.0  0.78661  0.09339  0.03037  1.0000 -0.1113393662
C   C23       1.0  0.90661  0.21339  0.53037  1.0000 -0.1113393662
C   C24       1.0  0.21339  0.90661  0.96963  1.0000 -0.1113393662
C   C25       1.0  0.10842  0.76698  0.42045  1.0000 -0.0944461489
C   C26       1.0  0.76698  0.10842  0.07955  1.0000 -0.0944461489
C   C27       1.0  0.89158  0.23302  0.57955  1.0000 -0.0944461489
C   C28       1.0  0.23302  0.89158  0.92045  1.0000 -0.0944461489
C   C29       1.0  0.11708  0.80992  0.35192  1.0000 -0.0978188274
C   C30       1.0  0.80992  0.11708  0.14808  1.0000 -0.0978188274
C   C31       1.0  0.88292  0.19008  0.64808  1.0000 -0.0978188274
C   C32       1.0  0.19008  0.88292  0.85192  1.0000 -0.0978188274
C   C33       1.0  0.92272  0.85768  0.13552  1.0000 0.1301241677
C   C34       1.0  0.85768  0.92272  0.36448  1.0000 0.1301241677
C   C35       1.0  0.07728  0.14232  0.86448  1.0000 0.1301241677
C   C36       1.0  0.14232  0.07728  0.63552  1.0000 0.1301241677
C   C37       1.0  0.81190  0.74290  0.06491  1.0000 -0.1113393662
C   C38       1.0  0.74290  0.81190  0.43509  1.0000 -0.1113393662
C   C39       1.0  0.18810  0.25710  0.93509  1.0000 -0.1113393662
C   C40       1.0  0.25710  0.18810  0.56491  1.0000 -0.1113393662
C   C41       1.0  0.90071  0.78729  0.06130  1.0000 -0.0290526954
C   C42       1.0  0.78729  0.90071  0.43870  1.0000 -0.0290526954
C   C43       1.0  0.09929  0.21271  0.93870  1.0000 -0.0290526954
C   C44       1.0  0.21271  0.09929  0.56130  1.0000 -0.0290526954
C   C45       1.0  0.75316  0.77104  0.13023  1.0000 0.1484136673
C   C46       1.0  0.77104  0.75316  0.36977  1.0000 0.1484136673
C   C47       1.0  0.24684  0.22896  0.86977  1.0000 0.1484136673
C   C48       1.0  0.22896  0.24684  0.63023  1.0000 0.1484136673
C   C49       1.0  0.78124  0.84576  0.15185  1.0000 -0.1699984159
C   C50       1.0  0.84576  0.78124  0.34815  1.0000 -0.1699984159
C   C51       1.0  0.21876  0.15424  0.84815  1.0000 -0.1699984159
C   C52       1.0  0.15424  0.21876  0.65185  1.0000 -0.1699984159
C   C53       1.0  0.70920  0.82920  0.16542  1.0000 -0.1283227956
C   C54       1.0  0.82920  0.70920  0.33458  1.0000 -0.1283227956
C   C55       1.0  0.29080  0.17080  0.83458  1.0000 -0.1283227956
C   C56       1.0  0.17080  0.29080  0.66542  1.0000 -0.1283227956
C   C57       1.0  0.60949  0.73851  0.15731  1.0000 0.0569700301
C   C58       1.0  0.73851  0.60949  0.34269  1.0000 0.0569700301
C   C59       1.0  0.39051  0.26149  0.84269  1.0000 0.0569700301
C   C60       1.0  0.26149  0.39051  0.65731  1.0000 0.0569700301
C   C61       1.0  0.58314  0.66366  0.13581  1.0000 -0.1404775687
C   C62       1.0  0.66366  0.58314  0.36419  1.0000 -0.1404775687
C   C63       1.0  0.41686  0.33634  0.86419  1.0000 -0.1404775687
C   C64       1.0  0.33634  0.41686  0.63581  1.0000 -0.1404775687
C   C65       1.0  0.65421  0.67915  0.12292  1.0000 -0.1871577931
C   C66       1.0  0.67915  0.65421  0.37708  1.0000 -0.1871577931
C   C67       1.0  0.34579  0.32085  0.87708  1.0000 -0.1871577931
C   C68       1.0  0.32085  0.34579  0.62292  1.0000 -0.1871577931
C   C69       1.0  0.52488  0.71960  0.16011  1.0000 -0.0084971261
C   C70       1.0  0.71960  0.52488  0.33989  1.0000 -0.0084971261
C   C71       1.0  0.47512  0.28040  0.83989  1.0000 -0.0084971261
C   C72       1.0  0.28040  0.47512  0.66011  1.0000 -0.0084971261
C   C73       1.0  0.14913  0.29867  0.33253  1.0000 0.1189844794
C   C74       1.0  0.29867  0.14913  0.16747  1.0000 0.1189844794
C   C75       1.0  0.85087  0.70133  0.66747  1.0000 0.1189844794
C   C76       1.0  0.70133  0.85087  0.83253  1.0000 0.1189844794
C   C77       1.0  0.25795  0.37465  0.42207  1.0000 -0.1190587727
C   C78       1.0  0.37465  0.25795  0.07793  1.0000 -0.1190587727
C   C79       1.0  0.74205  0.62535  0.57793  1.0000 -0.1190587727
C   C80       1.0  0.62535  0.74205  0.92207  1.0000 -0.1190587727
C   C81       1.0  0.16908  0.28472  0.44384  1.0000 -0.0204722979
C   C82       1.0  0.28472  0.16908  0.05616  1.0000 -0.0204722979
C   C83       1.0  0.83092  0.71528  0.55616  1.0000 -0.0204722979
C   C84       1.0  0.71528  0.83092  0.94384  1.0000 -0.0204722979
C   C85       1.0  0.31379  0.46401  0.30234  1.0000 0.1484136673
C   C86       1.0  0.46401  0.31379  0.19766  1.0000 0.1484136673
C   C87       1.0  0.68621  0.53599  0.69766  1.0000 0.1484136673
C   C88       1.0  0.53599  0.68621  0.80234  1.0000 0.1484136673
C   C89       1.0  0.28838  0.50202  0.25146  1.0000 -0.1699984159
C   C90       1.0  0.50202  0.28838  0.24854  1.0000 -0.1699984159
C   C91       1.0  0.71162  0.49798  0.74854  1.0000 -0.1699984159
C   C92       1.0  0.49798  0.71162  0.75146  1.0000 -0.1699984159
C   C93       1.0  0.35554  0.58246  0.20473  1.0000 -0.1190587727
C   C94       1.0  0.58246  0.35554  0.29527  1.0000 -0.1190587727
C   C95       1.0  0.64446  0.41754  0.79527  1.0000 -0.1190587727
C   C96       1.0  0.41754  0.64446  0.70473  1.0000 -0.1190587727
C   C97       1.0  0.44773  0.62415  0.20762  1.0000 0.0569700301
C   C98       1.0  0.62415  0.44773  0.29238  1.0000 0.0569700301
C   C99       1.0  0.55227  0.37585  0.79238  1.0000 0.0569700301
C   C100      1.0  0.37585  0.55227  0.70762  1.0000 0.0569700301
C   C101      1.0  0.47119  0.58501  0.25920  1.0000 -0.1404775687
C   C102      1.0  0.58501  0.47119  0.24080  1.0000 -0.1404775687
C   C103      1.0  0.52881  0.41499  0.74080  1.0000 -0.1404775687
C   C104      1.0  0.41499  0.52881  0.75920  1.0000 -0.1404775687
C   C105      1.0  0.40485  0.50515  0.30722  1.0000 -0.1871577931
C   C106      1.0  0.50515  0.40485  0.19278  1.0000 -0.1871577931
C   C107      1.0  0.59515  0.49485  0.69278  1.0000 -0.1871577931
C   C108      1.0  0.49485  0.59515  0.80722  1.0000 -0.1871577931
C   C109      1.0  0.57717  0.01083  0.28738  1.0000 0.0923633518
C   C110      1.0  0.01083  0.57717  0.21262  1.0000 0.0923633518
C   C111      1.0  0.42283  0.98917  0.71262  1.0000 0.0923633518
C   C112      1.0  0.98917  0.42283  0.78738  1.0000 0.0923633518
C   C113      1.0  0.71501  0.12599  0.34707  1.0000 -0.0204722979
C   C114      1.0  0.12599  0.71501  0.15293  1.0000 -0.0204722979
C   C115      1.0  0.28499  0.87401  0.65293  1.0000 -0.0204722979
C   C116      1.0  0.87401  0.28499  0.84707  1.0000 -0.0204722979
C   C117      1.0  0.72385  0.07895  0.32721  1.0000 -0.0768810568
C   C118      1.0  0.07895  0.72385  0.17279  1.0000 -0.0768810568
C   C119      1.0  0.27615  0.92105  0.67279  1.0000 -0.0768810568
C   C120      1.0  0.92105  0.27615  0.82721  1.0000 -0.0768810568
C   C121      1.0  0.60975  0.93589  0.25605  1.0000 0.1484136673
C   C122      1.0  0.93589  0.60975  0.24395  1.0000 0.1484136673
C   C123      1.0  0.39025  0.06411  0.74395  1.0000 0.1484136673
C   C124      1.0  0.06411  0.39025  0.75605  1.0000 0.1484136673
C   C125      1.0  0.55393  0.90907  0.19184  1.0000 -0.1699984159
C   C126      1.0  0.90907  0.55393  0.30816  1.0000 -0.1699984159
C   C127      1.0  0.44607  0.09093  0.80816  1.0000 -0.1699984159
C   C128      1.0  0.09093  0.44607  0.69184  1.0000 -0.1699984159
C   C129      1.0  0.52830  0.84130  0.16066  1.0000 -0.1283227956
C   C130      1.0  0.84130  0.52830  0.33934  1.0000 -0.1283227956
C   C131      1.0  0.47170  0.15870  0.83934  1.0000 -0.1283227956
C   C132      1.0  0.15870  0.47170  0.66066  1.0000 -0.1283227956
C   C133      1.0  0.55931  0.80109  0.19187  1.0000 0.0569700301
C   C134      1.0  0.80109  0.55931  0.30813  1.0000 0.0569700301
C   C135      1.0  0.44069  0.19891  0.80813  1.0000 0.0569700301
C   C136      1.0  0.19891  0.44069  0.69187  1.0000 0.0569700301
C   C137      1.0  0.61462  0.82898  0.25705  1.0000 -0.1404775687
C   C138      1.0  0.82898  0.61462  0.24295  1.0000 -0.1404775687
C   C139      1.0  0.38538  0.17102  0.74295  1.0000 -0.1404775687
C   C140      1.0  0.17102  0.38538  0.75705  1.0000 -0.1404775687
C   C141      1.0  0.63940  0.89540  0.28914  1.0000 -0.1606683938
C   C142      1.0  0.89540  0.63940  0.21086  1.0000 -0.1606683938
C   C143      1.0  0.36060  0.10460  0.71086  1.0000 -0.1606683938
C   C144      1.0  0.10460  0.36060  0.78914  1.0000 -0.1606683938
C   C145      1.0  0.44781  0.80019  0.81818  1.0000 0.0959404239
C   C146      1.0  0.80019  0.44781  0.68182  1.0000 0.0959404239
C   C147      1.0  0.55219  0.19981  0.18182  1.0000 0.0959404239
C   C148      1.0  0.19981  0.55219  0.31818  1.0000 0.0959404239
C   C149      1.0  0.30596  0.68004  0.76465  1.0000 -0.0204722979
C   C150      1.0  0.68004  0.30596  0.73535  1.0000 -0.0204722979
C   C151      1.0  0.69404  0.31996  0.23535  1.0000 -0.0204722979
C   C152      1.0  0.31996  0.69404  0.26465  1.0000 -0.0204722979
C   C153      1.0  0.30429  0.64291  0.83168  1.0000 -0.0978188274
C   C154      1.0  0.64291  0.30429  0.66832  1.0000 -0.0978188274
C   C155      1.0  0.69571  0.35709  0.16832  1.0000 -0.0978188274
C   C156      1.0  0.35709  0.69571  0.33168  1.0000 -0.0978188274
C   C157      1.0  0.42631  0.71769  0.93916  1.0000 0.1568018625
C   C158      1.0  0.71769  0.42631  0.56084  1.0000 0.1568018625
C   C159      1.0  0.57369  0.28231  0.06084  1.0000 0.1568018625
C   C160      1.0  0.28231  0.57369  0.43916  1.0000 0.1568018625
C   C161      1.0  0.51651  0.80489  0.96658  1.0000 -0.1771233214
C   C162      1.0  0.80489  0.51651  0.53342  1.0000 -0.1771233214
C   C163      1.0  0.48349  0.19511  0.03342  1.0000 -0.1771233214
C   C164      1.0  0.19511  0.48349  0.46658  1.0000 -0.1771233214
C   C165      1.0  0.54398  0.80242  0.03713  1.0000 -0.1283227956
C   C166      1.0  0.80242  0.54398  0.46287  1.0000 -0.1283227956
C   C167      1.0  0.45602  0.19758  0.96287  1.0000 -0.1283227956
C   C168      1.0  0.19758  0.45602  0.53713  1.0000 -0.1283227956
C   C169      1.0  0.48445  0.71575  0.08237  1.0000 0.0569700301
C   C170      1.0  0.71575  0.48445  0.41763  1.0000 0.0569700301
C   C171      1.0  0.51555  0.28425  0.91763  1.0000 0.0569700301
C   C172      1.0  0.28425  0.51555  0.58237  1.0000 0.0569700301
C   C173      1.0  0.39615  0.63005  0.05300  1.0000 -0.1283227956
C   C174      1.0  0.63005  0.39615  0.44700  1.0000 -0.1283227956
C   C175      1.0  0.60385  0.36995  0.94700  1.0000 -0.1283227956
C   C176      1.0  0.36995  0.60385  0.55300  1.0000 -0.1283227956
C   C177      1.0  0.36743  0.63077  0.98151  1.0000 -0.1699984159
C   C178      1.0  0.63077  0.36743  0.51849  1.0000 -0.1699984159
C   C179      1.0  0.63257  0.36923  0.01849  1.0000 -0.1699984159
C   C180      1.0  0.36923  0.63257  0.48151  1.0000 -0.1699984159
C   C181      1.0  0.68688  0.23432  0.43741  1.0000 0.5360046716
C   C182      1.0  0.23432  0.68688  0.06259  1.0000 0.5360046716
C   C183      1.0  0.31312  0.76568  0.56259  1.0000 0.5360046716
C   C184      1.0  0.76568  0.31312  0.93741  1.0000 0.5360046716
C   C185      1.0  0.71936  0.24984  0.51303  1.0000 -0.0204722979
C   C186      1.0  0.24984  0.71936  0.98697  1.0000 -0.0204722979
C   C187      1.0  0.28064  0.75016  0.48697  1.0000 -0.0204722979
C   C188      1.0  0.75016  0.28064  0.01303  1.0000 -0.0204722979
C   C189      1.0  0.66308  0.16672  0.56257  1.0000 -0.1190587727
C   C190      1.0  0.16672  0.66308  0.93743  1.0000 -0.1190587727
C   C191      1.0  0.33692  0.83328  0.43743  1.0000 -0.1190587727
C   C192      1.0  0.83328  0.33692  0.06257  1.0000 -0.1190587727
C   C193      1.0  0.69254  0.17586  0.63337  1.0000 -0.0204722979
C   C194      1.0  0.17586  0.69254  0.86663  1.0000 -0.0204722979
C   C195      1.0  0.30746  0.82414  0.36663  1.0000 -0.0204722979
C   C196      1.0  0.82414  0.30746  0.13337  1.0000 -0.0204722979
C   C197      1.0  0.63245  0.08595  0.68510  1.0000 0.5509553643
C   C198      1.0  0.08595  0.63245  0.81490  1.0000 0.5509553643
C   C199      1.0  0.36755  0.91405  0.31490  1.0000 0.5509553643
C   C200      1.0  0.91405  0.36755  0.18510  1.0000 0.5509553643
C   C201      1.0  0.77688  0.26972  0.65376  1.0000 -0.0978188274
C   C202      1.0  0.26972  0.77688  0.84624  1.0000 -0.0978188274
C   C203      1.0  0.22312  0.73028  0.34624  1.0000 -0.0978188274
C   C204      1.0  0.73028  0.22312  0.15376  1.0000 -0.0978188274
C   C205      1.0  0.83366  0.35154  0.60770  1.0000 -0.1190587727
C   C206      1.0  0.35154  0.83366  0.89230  1.0000 -0.1190587727
C   C207      1.0  0.16634  0.64846  0.39230  1.0000 -0.1190587727
C   C208      1.0  0.64846  0.16634  0.10770  1.0000 -0.1190587727
C   C209      1.0  0.80574  0.34206  0.53530  1.0000 -0.1190587727
C   C210      1.0  0.34206  0.80574  0.96470  1.0000 -0.1190587727
C   C211      1.0  0.19426  0.65794  0.46470  1.0000 -0.1190587727
C   C212      1.0  0.65794  0.19426  0.03530  1.0000 -0.1190587727
N   N1        1.0  0.97157  0.86107  0.10509  1.0000 -0.2900903916
N   N2        1.0  0.86107  0.97157  0.39491  1.0000 -0.2900903916
N   N3        1.0  0.02843  0.13893  0.89491  1.0000 -0.2900903916
N   N4        1.0  0.13893  0.02843  0.60509  1.0000 -0.2900903916
N   N5        1.0  0.82646  0.78934  0.11229  1.0000 0.0023086746
N   N6        1.0  0.78934  0.82646  0.38771  1.0000 0.0023086746
N   N7        1.0  0.17354  0.21066  0.88771  1.0000 0.0023086746
N   N8        1.0  0.21066  0.17354  0.61229  1.0000 0.0023086746
N   N9        1.0  0.10041  0.23693  0.38732  1.0000 -0.2900903916
N   N10       1.0  0.23693  0.10041  0.11268  1.0000 -0.2900903916
N   N11       1.0  0.89959  0.76307  0.61268  1.0000 -0.2900903916
N   N12       1.0  0.76307  0.89959  0.88732  1.0000 -0.2900903916
N   N13       1.0  0.24318  0.38068  0.35039  1.0000 0.0086628294
N   N14       1.0  0.38068  0.24318  0.14961  1.0000 0.0086628294
N   N15       1.0  0.75682  0.61932  0.64961  1.0000 0.0086628294
N   N16       1.0  0.61932  0.75682  0.85039  1.0000 0.0086628294
N   N17       1.0  0.62199  0.08287  0.32212  1.0000 -0.3187221197
N   N18       1.0  0.08287  0.62199  0.17788  1.0000 -0.3187221197
N   N19       1.0  0.37801  0.91713  0.67788  1.0000 -0.3187221197
N   N20       1.0  0.91713  0.37801  0.82212  1.0000 -0.3187221197
N   N21       1.0  0.63526  0.00526  0.28914  1.0000 0.0023086746
N   N22       1.0  0.00526  0.63526  0.21086  1.0000 0.0023086746
N   N23       1.0  0.36474  0.99474  0.71086  1.0000 0.0023086746
N   N24       1.0  0.99474  0.36474  0.78914  1.0000 0.0023086746
N   N25       1.0  0.39619  0.77861  0.75616  1.0000 -0.3054308875
N   N26       1.0  0.77861  0.39619  0.74384  1.0000 -0.3054308875
N   N27       1.0  0.60381  0.22139  0.24384  1.0000 -0.3054308875
N   N28       1.0  0.22139  0.60381  0.25616  1.0000 -0.3054308875
N   N29       1.0  0.39535  0.72017  0.86571  1.0000 0.0023086746
N   N30       1.0  0.72017  0.39535  0.63429  1.0000 0.0023086746
N   N31       1.0  0.60465  0.27983  0.13429  1.0000 0.0023086746
N   N32       1.0  0.27983  0.60465  0.36571  1.0000 0.0023086746
O   O1        1.0  0.13395  0.89905  0.21551  1.0000 -0.5424581278
O   O2        1.0  0.89905  0.13395  0.28449  1.0000 -0.5424581278
O   O3        1.0  0.86605  0.10095  0.78449  1.0000 -0.5424581278
O   O4        1.0  0.10095  0.86605  0.71551  1.0000 -0.5424581278
O   O5        1.0  0.10555  0.96737  0.24114  1.0000 -0.5577566831
O   O6        1.0  0.96737  0.10555  0.25886  1.0000 -0.5577566831
O   O7        1.0  0.89445  0.03263  0.75886  1.0000 -0.5577566831
O   O8        1.0  0.03263  0.89445  0.74114  1.0000 -0.5577566831
O   O9        1.0  0.08580  0.85006  0.56824  1.0000 -0.5424581278
O   O10       1.0  0.85006  0.08580  0.93176  1.0000 -0.5424581278
O   O11       1.0  0.91420  0.14994  0.43176  1.0000 -0.5424581278
O   O12       1.0  0.14994  0.91420  0.06824  1.0000 -0.5424581278
O   O13       1.0  0.03607  0.90057  0.48492  1.0000 -0.5507392792
O   O14       1.0  0.90057  0.03607  0.01508  1.0000 -0.5507392792
O   O15       1.0  0.96393  0.09943  0.51508  1.0000 -0.5507392792
O   O16       1.0  0.09943  0.96393  0.98492  1.0000 -0.5507392792
O   O17       1.0  0.59529  0.15571  0.42160  1.0000 -0.5159076361
O   O18       1.0  0.15571  0.59529  0.07840  1.0000 -0.5159076361
O   O19       1.0  0.40471  0.84429  0.57840  1.0000 -0.5159076361
O   O20       1.0  0.84429  0.40471  0.92160  1.0000 -0.5159076361
O   O21       1.0  0.74708  0.29172  0.39463  1.0000 -0.5306179432
O   O22       1.0  0.29172  0.74708  0.10537  1.0000 -0.5306179432
O   O23       1.0  0.25292  0.70828  0.60537  1.0000 -0.5306179432
O   O24       1.0  0.70828  0.25292  0.89463  1.0000 -0.5306179432
O   O25       1.0  0.57371  0.00243  0.66300  1.0000 -0.5577566831
O   O26       1.0  0.00243  0.57371  0.83700  1.0000 -0.5577566831
O   O27       1.0  0.42629  0.99757  0.33700  1.0000 -0.5577566831
O   O28       1.0  0.99757  0.42629  0.16300  1.0000 -0.5577566831
O   O29       1.0  0.64345  0.09515  0.74629  1.0000 -0.5424581278
O   O30       1.0  0.09515  0.64345  0.75371  1.0000 -0.5424581278
O   O31       1.0  0.35655  0.90485  0.25371  1.0000 -0.5424581278
O   O32       1.0  0.90485  0.35655  0.24629  1.0000 -0.5424581278
