# DDEC6 charges by PACMAN v1.1 (https://github.com/mtap-research/PACMAN-charge/)
data_2015[Zn][nan]3[FSR]20
_chemical_formula_sum              "Zn8 H72 C80 N8 O36"
_cell_length_a       15.023
_cell_length_b       10.1643
_cell_length_c       18.196
_cell_angle_alpha    90
_cell_angle_beta     114.233
_cell_angle_gamma    90

_symmetry_space_group_name_H-M    "P 1"
_symmetry_Int_Tables_number       1

loop_
  _symmetry_equiv_pos_as_xyz
  'x, y, z'

loop_
  _atom_site_type_symbol
  _atom_site_label
  _atom_site_symmetry_multiplicity
  _atom_site_fract_x
  _atom_site_fract_y
  _atom_site_fract_z
  _atom_site_occupancy
  _atom_site_charge
Zn  Zn1       1.0  0.88850  0.72264  0.76345  1.0000 0.8729002084
Zn  Zn2       1.0  0.11150  0.22264  0.73655  1.0000 0.8729002084
Zn  Zn3       1.0  0.11150  0.27736  0.23655  1.0000 0.8729002084
Zn  Zn4       1.0  0.88850  0.77736  0.26345  1.0000 0.8729002084
Zn  Zn5       1.0  0.15583  0.94975  0.95334  1.0000 0.8386473264
Zn  Zn6       1.0  0.84417  0.44975  0.54666  1.0000 0.8386473264
Zn  Zn7       1.0  0.84417  0.05025  0.04666  1.0000 0.8386473264
Zn  Zn8       1.0  0.15583  0.55025  0.45334  1.0000 0.8386473264
H   H1        1.0  0.76150  0.29360  0.78370  1.0000 0.0922039048
H   H2        1.0  0.23850  0.79360  0.71630  1.0000 0.0922039048
H   H3        1.0  0.23850  0.70640  0.21630  1.0000 0.0922039048
H   H4        1.0  0.76150  0.20640  0.28370  1.0000 0.0922039048
H   H5        1.0  0.86920  0.16820  0.75350  1.0000 0.1113943428
H   H6        1.0  0.13080  0.66820  0.74650  1.0000 0.1113943428
H   H7        1.0  0.13080  0.83180  0.24650  1.0000 0.1113943428
H   H8        1.0  0.86920  0.33180  0.25350  1.0000 0.1113943428
H   H9        1.0  0.01210  0.35070  0.85080  1.0000 0.1113943428
H   H10       1.0  0.98790  0.85070  0.64920  1.0000 0.1113943428
H   H11       1.0  0.98790  0.64930  0.14920  1.0000 0.1113943428
H   H12       1.0  0.01210  0.14930  0.35080  1.0000 0.1113943428
H   H13       1.0  0.92000  0.37280  0.92220  1.0000 0.1178383403
H   H14       1.0  0.08000  0.87280  0.57780  1.0000 0.1178383403
H   H15       1.0  0.08000  0.62720  0.07780  1.0000 0.1178383403
H   H16       1.0  0.92000  0.12720  0.42220  1.0000 0.1178383403
H   H17       1.0  0.68880  0.79010  0.75330  1.0000 0.1113943428
H   H18       1.0  0.31120  0.29010  0.74670  1.0000 0.1113943428
H   H19       1.0  0.31120  0.20990  0.24670  1.0000 0.1113943428
H   H20       1.0  0.68880  0.70990  0.25330  1.0000 0.1113943428
H   H21       1.0  0.56440  0.93440  0.68860  1.0000 0.1375923481
H   H22       1.0  0.43560  0.43440  0.81140  1.0000 0.1375923481
H   H23       1.0  0.43560  0.06560  0.31140  1.0000 0.1375923481
H   H24       1.0  0.56440  0.56560  0.18860  1.0000 0.1375923481
H   H25       1.0  0.71970  0.08260  0.57620  1.0000 0.1593797858
H   H26       1.0  0.28030  0.58260  0.92380  1.0000 0.1593797858
H   H27       1.0  0.28030  0.91740  0.42380  1.0000 0.1593797858
H   H28       1.0  0.71970  0.41740  0.07620  1.0000 0.1593797858
H   H29       1.0  0.83950  0.93360  0.64290  1.0000 0.1178383403
H   H30       1.0  0.16050  0.43360  0.85710  1.0000 0.1178383403
H   H31       1.0  0.16050  0.06640  0.35710  1.0000 0.1178383403
H   H32       1.0  0.83950  0.56640  0.14290  1.0000 0.1178383403
H   H33       1.0  0.30490  0.44620  0.40420  1.0000 0.1178383403
H   H34       1.0  0.69510  0.94620  0.09580  1.0000 0.1178383403
H   H35       1.0  0.69510  0.55380  0.59580  1.0000 0.1178383403
H   H36       1.0  0.30490  0.05380  0.90420  1.0000 0.1178383403
H   H37       1.0  0.45160  0.33840  0.45460  1.0000 0.1375923481
H   H38       1.0  0.54840  0.83840  0.04540  1.0000 0.1375923481
H   H39       1.0  0.54840  0.66160  0.54540  1.0000 0.1375923481
H   H40       1.0  0.45160  0.16160  0.95460  1.0000 0.1375923481
H   H41       1.0  0.45490  0.36600  0.67370  1.0000 0.1375923481
H   H42       1.0  0.54510  0.86600  0.82630  1.0000 0.1375923481
H   H43       1.0  0.54510  0.63400  0.32630  1.0000 0.1375923481
H   H44       1.0  0.45490  0.13400  0.17370  1.0000 0.1375923481
H   H45       1.0  0.30800  0.47130  0.61870  1.0000 0.1113943428
H   H46       1.0  0.69200  0.97130  0.88130  1.0000 0.1113943428
H   H47       1.0  0.69200  0.52870  0.38130  1.0000 0.1113943428
H   H48       1.0  0.30800  0.02870  0.11870  1.0000 0.1113943428
H   H49       1.0  0.48590  0.09030  0.58500  1.0000 0.1178383403
H   H50       1.0  0.51410  0.59030  0.91500  1.0000 0.1178383403
H   H51       1.0  0.51410  0.90970  0.41500  1.0000 0.1178383403
H   H52       1.0  0.48590  0.40970  0.08500  1.0000 0.1178383403
H   H53       1.0  0.52960  0.11690  0.52170  1.0000 0.1113943428
H   H54       1.0  0.47040  0.61690  0.97830  1.0000 0.1113943428
H   H55       1.0  0.47040  0.88310  0.47830  1.0000 0.1113943428
H   H56       1.0  0.52960  0.38310  0.02170  1.0000 0.1113943428
H   H57       1.0  0.58980  0.26030  0.66480  1.0000 0.1375923481
H   H58       1.0  0.41020  0.76030  0.83520  1.0000 0.1375923481
H   H59       1.0  0.41020  0.73970  0.33520  1.0000 0.1375923481
H   H60       1.0  0.58980  0.23970  0.16480  1.0000 0.1375923481
H   H61       1.0  0.61180  0.29470  0.58970  1.0000 0.1375923481
H   H62       1.0  0.38820  0.79470  0.91030  1.0000 0.1375923481
H   H63       1.0  0.38820  0.70530  0.41030  1.0000 0.1375923481
H   H64       1.0  0.61180  0.20530  0.08970  1.0000 0.1375923481
H   H65       1.0  0.93400  0.79200  0.92500  1.0000 0.3596348371
H   H66       1.0  0.06600  0.29200  0.57500  1.0000 0.3596348371
H   H67       1.0  0.06600  0.20800  0.07500  1.0000 0.3596348371
H   H68       1.0  0.93400  0.70800  0.42500  1.0000 0.3596348371
H   H69       1.0  0.86000  0.87800  0.88200  1.0000 0.3475938271
H   H70       1.0  0.14000  0.37800  0.61800  1.0000 0.3475938271
H   H71       1.0  0.14000  0.12200  0.11800  1.0000 0.3475938271
H   H72       1.0  0.86000  0.62200  0.38200  1.0000 0.3475938271
C   C1        1.0  0.82533  0.33500  0.79810  1.0000 -0.1369873043
C   C2        1.0  0.17467  0.83500  0.70190  1.0000 -0.1369873043
C   C3        1.0  0.17467  0.66500  0.20190  1.0000 -0.1369873043
C   C4        1.0  0.82533  0.16500  0.29810  1.0000 -0.1369873043
C   C5        1.0  0.89111  0.25980  0.76443  1.0000 -0.1543663834
C   C6        1.0  0.10889  0.75980  0.73557  1.0000 -0.1543663834
C   C7        1.0  0.10889  0.74020  0.23557  1.0000 -0.1558821742
C   C8        1.0  0.89111  0.24020  0.26443  1.0000 -0.1558821742
C   C9        1.0  0.97654  0.26900  0.84879  1.0000 -0.1558821742
C   C10       1.0  0.02346  0.76900  0.65121  1.0000 -0.1558821742
C   C11       1.0  0.02346  0.73100  0.15121  1.0000 -0.1558821742
C   C12       1.0  0.97654  0.23100  0.34879  1.0000 -0.1558821742
C   C13       1.0  0.90148  0.29770  0.88511  1.0000 -0.1369873043
C   C14       1.0  0.09852  0.79770  0.61489  1.0000 -0.1369873043
C   C15       1.0  0.09852  0.70230  0.11489  1.0000 -0.1369873043
C   C16       1.0  0.90148  0.20230  0.38511  1.0000 -0.1369873043
C   C17       1.0  0.81880  0.48150  0.78142  1.0000 0.5956703629
C   C18       1.0  0.18120  0.98150  0.71858  1.0000 0.5956703629
C   C19       1.0  0.18120  0.51850  0.21858  1.0000 0.5956703629
C   C20       1.0  0.81880  0.01850  0.28142  1.0000 0.5956703629
C   C21       1.0  0.90263  0.31540  0.69255  1.0000 0.6154324617
C   C22       1.0  0.09737  0.81540  0.80745  1.0000 0.6154324617
C   C23       1.0  0.09737  0.68460  0.30745  1.0000 0.6154324617
C   C24       1.0  0.90263  0.18460  0.19255  1.0000 0.6154324617
C   C25       1.0  0.04941  0.15930  0.87586  1.0000 0.6080581452
C   C26       1.0  0.95059  0.65930  0.62414  1.0000 0.6080581452
C   C27       1.0  0.95059  0.84070  0.12414  1.0000 0.6080581452
C   C28       1.0  0.04941  0.34070  0.37586  1.0000 0.6080581452
C   C29       1.0  0.86955  0.17930  0.91868  1.0000 0.6080581452
C   C30       1.0  0.13045  0.67930  0.58132  1.0000 0.6080581452
C   C31       1.0  0.13045  0.82070  0.08132  1.0000 0.6080581452
C   C32       1.0  0.86955  0.32070  0.41868  1.0000 0.6080581452
C   C33       1.0  0.69500  0.84940  0.71670  1.0000 0.0922039048
C   C34       1.0  0.30500  0.34940  0.78330  1.0000 0.0922039048
C   C35       1.0  0.30500  0.15060  0.28330  1.0000 0.0922039048
C   C36       1.0  0.69500  0.65060  0.21670  1.0000 0.0922039048
C   C37       1.0  0.61980  0.93600  0.67790  1.0000 -0.2118780558
C   C38       1.0  0.38020  0.43600  0.82210  1.0000 -0.2118780558
C   C39       1.0  0.38020  0.06400  0.32210  1.0000 -0.2118780558
C   C40       1.0  0.61980  0.56400  0.17790  1.0000 -0.2118780558
C   C41       1.0  0.62650  0.02530  0.62300  1.0000 0.1669870969
C   C42       1.0  0.37350  0.52530  0.87700  1.0000 0.1669870969
C   C43       1.0  0.37350  0.97470  0.37700  1.0000 0.1669870969
C   C44       1.0  0.62650  0.47470  0.12300  1.0000 0.1669870969
C   C45       1.0  0.71090  0.02330  0.61150  1.0000 -0.1993047763
C   C46       1.0  0.28910  0.52330  0.88850  1.0000 -0.1993047763
C   C47       1.0  0.28910  0.97670  0.38850  1.0000 -0.1993047763
C   C48       1.0  0.71090  0.47670  0.11150  1.0000 -0.1993047763
C   C49       1.0  0.78320  0.93330  0.65230  1.0000 0.0922039048
C   C50       1.0  0.21680  0.43330  0.84770  1.0000 0.0922039048
C   C51       1.0  0.21680  0.06670  0.34770  1.0000 0.0922039048
C   C52       1.0  0.78320  0.56670  0.15230  1.0000 0.0922039048
C   C53       1.0  0.33510  0.42930  0.45922  1.0000 0.0922039048
C   C54       1.0  0.66490  0.92930  0.04078  1.0000 0.0922039048
C   C55       1.0  0.66490  0.57070  0.54078  1.0000 0.0922039048
C   C56       1.0  0.33510  0.07070  0.95922  1.0000 0.0922039048
C   C57       1.0  0.42330  0.36420  0.48920  1.0000 -0.2118780558
C   C58       1.0  0.57670  0.86420  0.01080  1.0000 -0.2118780558
C   C59       1.0  0.57670  0.63580  0.51080  1.0000 -0.2118780558
C   C60       1.0  0.42330  0.13580  0.98920  1.0000 -0.2118780558
C   C61       1.0  0.47000  0.33710  0.57090  1.0000 0.1593797858
C   C62       1.0  0.53000  0.83710  0.92910  1.0000 0.1593797858
C   C63       1.0  0.53000  0.66290  0.42910  1.0000 0.1593797858
C   C64       1.0  0.47000  0.16290  0.07090  1.0000 0.1593797858
C   C65       1.0  0.42540  0.38010  0.61830  1.0000 -0.1993047763
C   C66       1.0  0.57460  0.88010  0.88170  1.0000 -0.1993047763
C   C67       1.0  0.57460  0.61990  0.38170  1.0000 -0.1993047763
C   C68       1.0  0.42540  0.11990  0.11830  1.0000 -0.1993047763
C   C69       1.0  0.33710  0.44420  0.58490  1.0000 0.0773688983
C   C70       1.0  0.66290  0.94420  0.91510  1.0000 0.0773688983
C   C71       1.0  0.66290  0.55580  0.41510  1.0000 0.0773688983
C   C72       1.0  0.33710  0.05580  0.08490  1.0000 0.0773688983
C   C73       1.0  0.54370  0.11990  0.57870  1.0000 -0.2410702427
C   C74       1.0  0.45630  0.61990  0.92130  1.0000 -0.2410702427
C   C75       1.0  0.45630  0.88010  0.42130  1.0000 -0.2410702427
C   C76       1.0  0.54370  0.38010  0.07870  1.0000 -0.2410702427
C   C77       1.0  0.56370  0.25740  0.60640  1.0000 -0.2410702427
C   C78       1.0  0.43630  0.75740  0.89360  1.0000 -0.2410702427
C   C79       1.0  0.43630  0.74260  0.39360  1.0000 -0.2410702427
C   C80       1.0  0.56370  0.24260  0.10640  1.0000 -0.2410702427
N   N1        1.0  0.77652  0.84690  0.70408  1.0000 -0.2319416051
N   N2        1.0  0.22348  0.34690  0.79592  1.0000 -0.2319416051
N   N3        1.0  0.22348  0.15310  0.29592  1.0000 -0.2319416051
N   N4        1.0  0.77652  0.65310  0.20408  1.0000 -0.2319416051
N   N5        1.0  0.29136  0.46910  0.50610  1.0000 -0.2319416051
N   N6        1.0  0.70864  0.96910  0.99390  1.0000 -0.2319416051
N   N7        1.0  0.70864  0.53090  0.49390  1.0000 -0.2319416051
N   N8        1.0  0.29136  0.03090  0.00610  1.0000 -0.2319416051
O   O1        1.0  0.90077  0.54401  0.80757  1.0000 -0.5620044563
O   O2        1.0  0.09923  0.04401  0.69243  1.0000 -0.5620044563
O   O3        1.0  0.09923  0.45599  0.19243  1.0000 -0.5620044563
O   O4        1.0  0.90077  0.95599  0.30757  1.0000 -0.5620044563
O   O5        1.0  0.73969  0.53490  0.74388  1.0000 -0.588790143
O   O6        1.0  0.26031  0.03490  0.75612  1.0000 -0.588790143
O   O7        1.0  0.26031  0.46510  0.25612  1.0000 -0.588790143
O   O8        1.0  0.73969  0.96510  0.24388  1.0000 -0.588790143
O   O9        1.0  0.98535  0.32085  0.69040  1.0000 -0.5620044563
O   O10       1.0  0.01465  0.82085  0.80960  1.0000 -0.5620044563
O   O11       1.0  0.01465  0.67915  0.30960  1.0000 -0.5620044563
O   O12       1.0  0.98535  0.17915  0.19040  1.0000 -0.5620044563
O   O13       1.0  0.82595  0.35472  0.63505  1.0000 -0.536814103
O   O14       1.0  0.17405  0.85472  0.86495  1.0000 -0.536814103
O   O15       1.0  0.17405  0.64528  0.36495  1.0000 -0.536814103
O   O16       1.0  0.82595  0.14528  0.13505  1.0000 -0.536814103
O   O17       1.0  0.05619  0.08783  0.93472  1.0000 -0.5207843874
O   O18       1.0  0.94381  0.58783  0.56528  1.0000 -0.5207843874
O   O19       1.0  0.94381  0.91217  0.06528  1.0000 -0.5207843874
O   O20       1.0  0.05619  0.41217  0.43472  1.0000 -0.5207843874
O   O21       1.0  0.10395  0.14307  0.83976  1.0000 -0.5753963981
O   O22       1.0  0.89605  0.64307  0.66024  1.0000 -0.57229644
O   O23       1.0  0.89605  0.85693  0.16024  1.0000 -0.5753963981
O   O24       1.0  0.10395  0.35693  0.33976  1.0000 -0.5753963981
O   O25       1.0  0.88206  0.19105  0.99248  1.0000 -0.57229644
O   O26       1.0  0.11794  0.69105  0.50752  1.0000 -0.57229644
O   O27       1.0  0.11794  0.80895  0.00752  1.0000 -0.57229644
O   O28       1.0  0.88206  0.30895  0.49248  1.0000 -0.57229644
O   O29       1.0  0.83245  0.08220  0.87657  1.0000 -0.57229644
O   O30       1.0  0.16755  0.58220  0.62343  1.0000 -0.57229644
O   O31       1.0  0.16755  0.91780  0.12343  1.0000 -0.57229644
O   O32       1.0  0.83245  0.41780  0.37657  1.0000 -0.57229644
O   O33       1.0  0.88430  0.80400  0.88335  1.0000 -0.6512310599
O   O34       1.0  0.11570  0.30400  0.61665  1.0000 -0.6512310599
O   O35       1.0  0.11570  0.19600  0.11665  1.0000 -0.6512310599
O   O36       1.0  0.88430  0.69600  0.38335  1.0000 -0.6512310599
