# DDEC6 charges by PACMAN v1.1 (https://github.com/mtap-research/PACMAN-charge/)
data_2015[TbCu][nan]3[FSR]1
_chemical_formula_sum              "Tb8 Cu12 H156 C168 N24 O144"
_cell_length_a       13.934
_cell_length_b       30.722
_cell_length_c       22.9711
_cell_angle_alpha    90
_cell_angle_beta     118.131
_cell_angle_gamma    90

_symmetry_space_group_name_H-M    "P 1"
_symmetry_Int_Tables_number       1

loop_
  _symmetry_equiv_pos_as_xyz
  'x, y, z'

loop_
  _atom_site_type_symbol
  _atom_site_label
  _atom_site_symmetry_multiplicity
  _atom_site_fract_x
  _atom_site_fract_y
  _atom_site_fract_z
  _atom_site_occupancy
  _atom_site_charge
Tb  Tb1       1.0  0.14343  0.31033  0.10445  1.0000 1.9538415695
Tb  Tb2       1.0  0.85657  0.81033  0.39555  1.0000 1.9538415695
Tb  Tb3       1.0  0.85657  0.68967  0.89555  1.0000 1.9538415695
Tb  Tb4       1.0  0.14343  0.18967  0.60445  1.0000 1.9538415695
Tb  Tb5       1.0  0.14896  0.05070  0.12524  1.0000 1.9766334617
Tb  Tb6       1.0  0.85104  0.55070  0.37476  1.0000 1.9766334617
Tb  Tb7       1.0  0.85104  0.94930  0.87476  1.0000 1.9766334617
Tb  Tb8       1.0  0.14896  0.44930  0.62524  1.0000 1.9766334617
Cu  Cu1       1.0  0.76268  0.34232  0.25795  1.0000 0.7791171907
Cu  Cu2       1.0  0.23732  0.84232  0.24205  1.0000 0.7791171907
Cu  Cu3       1.0  0.23732  0.65768  0.74205  1.0000 0.7749114358
Cu  Cu4       1.0  0.76268  0.15768  0.75795  1.0000 0.7791171907
Cu  Cu5       1.0  0.22841  0.52191  0.22003  1.0000 0.7630932057
Cu  Cu6       1.0  0.77159  0.02191  0.27997  1.0000 0.7630932057
Cu  Cu7       1.0  0.77159  0.47809  0.77997  1.0000 0.7630932057
Cu  Cu8       1.0  0.22841  0.97809  0.72003  1.0000 0.7630932057
Cu  Cu9       1.0  0.36167  0.18444  0.38826  1.0000 0.7791171907
Cu  Cu10      1.0  0.63833  0.68444  0.11174  1.0000 0.7791171907
Cu  Cu11      1.0  0.63833  0.81556  0.61174  1.0000 0.7791171907
Cu  Cu12      1.0  0.36167  0.31556  0.88826  1.0000 0.7791171907
H   H1        1.0  0.97400  0.35100  0.98900  1.0000 0.3899188724
H   H2        1.0  0.02600  0.85100  0.51100  1.0000 0.3899188724
H   H3        1.0  0.02600  0.64900  0.01100  1.0000 0.3899188724
H   H4        1.0  0.97400  0.14900  0.48900  1.0000 0.3899188724
H   H5        1.0  0.05500  0.38400  0.02200  1.0000 0.3786571318
H   H6        1.0  0.94500  0.88400  0.47800  1.0000 0.3786571318
H   H7        1.0  0.94500  0.61600  0.97800  1.0000 0.3786571318
H   H8        1.0  0.05500  0.11600  0.52200  1.0000 0.3786571318
H   H9        1.0  0.22700  0.39240  0.08900  1.0000 0.3899188724
H   H10       1.0  0.77300  0.89240  0.41100  1.0000 0.3899188724
H   H11       1.0  0.77300  0.60760  0.91100  1.0000 0.3899188724
H   H12       1.0  0.22700  0.10760  0.58900  1.0000 0.3899188724
H   H13       1.0  0.30200  0.36200  0.08300  1.0000 0.3990864504
H   H14       1.0  0.69800  0.86200  0.41700  1.0000 0.3990864504
H   H15       1.0  0.69800  0.63800  0.91700  1.0000 0.3990864504
H   H16       1.0  0.30200  0.13800  0.58300  1.0000 0.3990864504
H   H17       1.0  0.10300  0.21900  0.13300  1.0000 0.3990864504
H   H18       1.0  0.89700  0.71900  0.36700  1.0000 0.3990864504
H   H19       1.0  0.89700  0.78100  0.86700  1.0000 0.3990864504
H   H20       1.0  0.10300  0.28100  0.63300  1.0000 0.3990864504
H   H21       1.0  0.20800  0.23000  0.18800  1.0000 0.3990864504
H   H22       1.0  0.79200  0.73000  0.31200  1.0000 0.3990864504
H   H23       1.0  0.79200  0.77000  0.81200  1.0000 0.3990864504
H   H24       1.0  0.20800  0.27000  0.68800  1.0000 0.3990864504
H   H25       1.0  0.91240  0.33150  0.20500  1.0000 0.1076216372
H   H26       1.0  0.08760  0.83150  0.29500  1.0000 0.1076216372
H   H27       1.0  0.08760  0.66850  0.79500  1.0000 0.1076216372
H   H28       1.0  0.91240  0.16850  0.70500  1.0000 0.1076216372
H   H29       1.0  0.53450  0.32100  0.19440  1.0000 0.1011979427
H   H30       1.0  0.46550  0.82100  0.30560  1.0000 0.1011979427
H   H31       1.0  0.46550  0.67900  0.80560  1.0000 0.1011979427
H   H32       1.0  0.53450  0.17900  0.69440  1.0000 0.1011979427
H   H33       1.0  0.92780  0.48090  0.23000  1.0000 0.1288507213
H   H34       1.0  0.07220  0.98090  0.27000  1.0000 0.1288507213
H   H35       1.0  0.07220  0.51910  0.77000  1.0000 0.1288507213
H   H36       1.0  0.92780  0.01910  0.73000  1.0000 0.1288507213
H   H37       1.0  0.65160  0.24430  0.38980  1.0000 0.1380568349
H   H38       1.0  0.34840  0.74430  0.11020  1.0000 0.1380568349
H   H39       1.0  0.34840  0.75570  0.61020  1.0000 0.1380568349
H   H40       1.0  0.65160  0.25570  0.88980  1.0000 0.1380568349
H   H41       1.0  0.81970  0.43870  0.25960  1.0000 0.1288507213
H   H42       1.0  0.18030  0.93870  0.24040  1.0000 0.1288507213
H   H43       1.0  0.18030  0.56130  0.74040  1.0000 0.1288507213
H   H44       1.0  0.81970  0.06130  0.75960  1.0000 0.1288507213
H   H45       1.0  0.77320  0.28150  0.36490  1.0000 0.1380568349
H   H46       1.0  0.22680  0.78150  0.13510  1.0000 0.1380568349
H   H47       1.0  0.22680  0.71850  0.63510  1.0000 0.1380568349
H   H48       1.0  0.77320  0.21850  0.86490  1.0000 0.1380568349
H   H49       1.0  0.68820  0.29790  0.16780  1.0000 0.3519262994
H   H50       1.0  0.31180  0.79790  0.33220  1.0000 0.3519262994
H   H51       1.0  0.31180  0.70210  0.83220  1.0000 0.3519262994
H   H52       1.0  0.68820  0.20210  0.66780  1.0000 0.3519262994
H   H53       1.0  0.71170  0.33120  0.13230  1.0000 0.3729469999
H   H54       1.0  0.28830  0.83120  0.36770  1.0000 0.3729469999
H   H55       1.0  0.28830  0.66880  0.86770  1.0000 0.3729469999
H   H56       1.0  0.71170  0.16880  0.63230  1.0000 0.3729469999
H   H57       1.0  0.45200  0.16130  0.51400  1.0000 0.3786571318
H   H58       1.0  0.54800  0.66130  0.98600  1.0000 0.3786571318
H   H59       1.0  0.54800  0.83870  0.48600  1.0000 0.3786571318
H   H60       1.0  0.45200  0.33870  0.01400  1.0000 0.3786571318
H   H61       1.0  0.46700  0.20770  0.52500  1.0000 0.3899188724
H   H62       1.0  0.53300  0.70770  0.97500  1.0000 0.3899188724
H   H63       1.0  0.53300  0.79230  0.47500  1.0000 0.3899188724
H   H64       1.0  0.46700  0.29230  0.02500  1.0000 0.3899188724
H   H65       1.0  0.36370  0.10630  0.31120  1.0000 0.1288507213
H   H66       1.0  0.63630  0.60630  0.18880  1.0000 0.1288507213
H   H67       1.0  0.63630  0.89370  0.68880  1.0000 0.1288507213
H   H68       1.0  0.36370  0.39370  0.81120  1.0000 0.1288507213
H   H69       1.0  0.59620  0.17410  0.45230  1.0000 0.1076216372
H   H70       1.0  0.40380  0.67410  0.04770  1.0000 0.1076216372
H   H71       1.0  0.40380  0.82590  0.54770  1.0000 0.1076216372
H   H72       1.0  0.59620  0.32590  0.95230  1.0000 0.1076216372
H   H73       1.0  0.22430  0.25270  0.29440  1.0000 0.1200334752
H   H74       1.0  0.77570  0.75270  0.20560  1.0000 0.1200334752
H   H75       1.0  0.77570  0.74730  0.70560  1.0000 0.1200334752
H   H76       1.0  0.22430  0.24730  0.79440  1.0000 0.1200334752
H   H77       1.0  0.23690  0.20580  0.45750  1.0000 0.1076216372
H   H78       1.0  0.76310  0.70580  0.04250  1.0000 0.1076216372
H   H79       1.0  0.76310  0.79420  0.54250  1.0000 0.1076216372
H   H80       1.0  0.23690  0.29420  0.95750  1.0000 0.1076216372
H   H81       1.0  0.07190  0.29400  0.27260  1.0000 0.1380568349
H   H82       1.0  0.92810  0.79400  0.22740  1.0000 0.1380568349
H   H83       1.0  0.92810  0.70600  0.72740  1.0000 0.1380568349
H   H84       1.0  0.07190  0.20600  0.77260  1.0000 0.1380568349
H   H85       1.0  0.49020  0.06670  0.29450  1.0000 0.1288507213
H   H86       1.0  0.50980  0.56670  0.20550  1.0000 0.1288507213
H   H87       1.0  0.50980  0.93330  0.70550  1.0000 0.1288507213
H   H88       1.0  0.49020  0.43330  0.79450  1.0000 0.1288507213
H   H89       1.0  0.09010  0.12060  0.41090  1.0000 0.1380568349
H   H90       1.0  0.90990  0.62060  0.08910  1.0000 0.1380568349
H   H91       1.0  0.90990  0.87940  0.58910  1.0000 0.1380568349
H   H92       1.0  0.09010  0.37940  0.91090  1.0000 0.1380568349
H   H93       1.0  0.93020  0.08400  0.38790  1.0000 0.1288507213
H   H94       1.0  0.06980  0.58400  0.11210  1.0000 0.1288507213
H   H95       1.0  0.06980  0.91600  0.61210  1.0000 0.1288507213
H   H96       1.0  0.93020  0.41600  0.88790  1.0000 0.1288507213
H   H97       1.0  0.90670  0.03910  0.22060  1.0000 0.1076216372
H   H98       1.0  0.09330  0.53910  0.27940  1.0000 0.1076216372
H   H99       1.0  0.09330  0.96090  0.77940  1.0000 0.1076216372
H   H100      1.0  0.90670  0.46090  0.72060  1.0000 0.1076216372
H   H101      1.0  0.65800  0.06300  0.17400  1.0000 0.3729469999
H   H102      1.0  0.34200  0.56300  0.32600  1.0000 0.3729469999
H   H103      1.0  0.34200  0.93700  0.82600  1.0000 0.3729469999
H   H104      1.0  0.65800  0.43700  0.67400  1.0000 0.3729469999
H   H105      1.0  0.66300  0.01980  0.15100  1.0000 0.3729469999
H   H106      1.0  0.33700  0.51980  0.34900  1.0000 0.3729469999
H   H107      1.0  0.33700  0.98020  0.84900  1.0000 0.3729469999
H   H108      1.0  0.66300  0.48020  0.65100  1.0000 0.3729469999
H   H109      1.0  0.19600  0.13100  0.20200  1.0000 0.3899188724
H   H110      1.0  0.80400  0.63100  0.29800  1.0000 0.3899188724
H   H111      1.0  0.80400  0.86900  0.79800  1.0000 0.3899188724
H   H112      1.0  0.19600  0.36900  0.70200  1.0000 0.3899188724
H   H113      1.0  0.02400  0.09100  0.03600  1.0000 0.3589768136
H   H114      1.0  0.97600  0.59100  0.46400  1.0000 0.3589768136
H   H115      1.0  0.97600  0.90900  0.96400  1.0000 0.3589768136
H   H116      1.0  0.02400  0.40900  0.53600  1.0000 0.3589768136
H   H117      1.0  0.93300  0.08100  0.04700  1.0000 0.3786571318
H   H118      1.0  0.06700  0.58100  0.45300  1.0000 0.3786571318
H   H119      1.0  0.06700  0.91900  0.95300  1.0000 0.3786571318
H   H120      1.0  0.93300  0.41900  0.54700  1.0000 0.3786571318
H   H121      1.0  0.03600  0.96530  0.10800  1.0000 0.4116725684
H   H122      1.0  0.96400  0.46530  0.39200  1.0000 0.4116725684
H   H123      1.0  0.96400  0.03470  0.89200  1.0000 0.4116725684
H   H124      1.0  0.03600  0.53470  0.60800  1.0000 0.4116725684
H   H125      1.0  0.97000  0.99900  0.11600  1.0000 0.3899188724
H   H126      1.0  0.03000  0.49900  0.38400  1.0000 0.3899188724
H   H127      1.0  0.03000  0.00100  0.88400  1.0000 0.3899188724
H   H128      1.0  0.97000  0.50100  0.61600  1.0000 0.3899188724
H   H129      1.0  0.19640  0.00900  0.02900  1.0000 0.3786571318
H   H130      1.0  0.80360  0.50900  0.47100  1.0000 0.3786571318
H   H131      1.0  0.80360  0.99100  0.97100  1.0000 0.3786571318
H   H132      1.0  0.19640  0.49100  0.52900  1.0000 0.3786571318
H   H133      1.0  0.09400  0.98900  0.01400  1.0000 0.3899188724
H   H134      1.0  0.90600  0.48900  0.48600  1.0000 0.3899188724
H   H135      1.0  0.90600  0.01100  0.98600  1.0000 0.3899188724
H   H136      1.0  0.09400  0.51100  0.51400  1.0000 0.3899188724
H   H137      1.0  0.25800  0.08400  0.06800  1.0000 0.3786571318
H   H138      1.0  0.74200  0.58400  0.43200  1.0000 0.3786571318
H   H139      1.0  0.74200  0.91600  0.93200  1.0000 0.3786571318
H   H140      1.0  0.25800  0.41600  0.56800  1.0000 0.3786571318
H   H141      1.0  0.18400  0.12090  0.04200  1.0000 0.4116725684
H   H142      1.0  0.81600  0.62090  0.45800  1.0000 0.4116725684
H   H143      1.0  0.81600  0.87910  0.95800  1.0000 0.4116725684
H   H144      1.0  0.18400  0.37910  0.54200  1.0000 0.4116725684
H   H145      1.0  0.53560  0.03090  0.21990  1.0000 0.1076216372
H   H146      1.0  0.46440  0.53090  0.28010  1.0000 0.1076216372
H   H147      1.0  0.46440  0.96910  0.78010  1.0000 0.1076216372
H   H148      1.0  0.53560  0.46910  0.71990  1.0000 0.1076216372
H   H149      1.0  0.72000  0.92730  0.29470  1.0000 0.1288507213
H   H150      1.0  0.28000  0.42730  0.20530  1.0000 0.1288507213
H   H151      1.0  0.28000  0.07270  0.70530  1.0000 0.1288507213
H   H152      1.0  0.72000  0.57270  0.79470  1.0000 0.1288507213
H   H153      1.0  0.56900  0.88480  0.27000  1.0000 0.1380568349
H   H154      1.0  0.43100  0.38480  0.23000  1.0000 0.1380568349
H   H155      1.0  0.43100  0.11520  0.73000  1.0000 0.1380568349
H   H156      1.0  0.56900  0.61520  0.77000  1.0000 0.1380568349
C   C1        1.0  0.05430  0.36010  0.17040  1.0000 0.5585714106
C   C2        1.0  0.94570  0.86010  0.32960  1.0000 0.5585714106
C   C3        1.0  0.94570  0.63990  0.82960  1.0000 0.5585714106
C   C4        1.0  0.05430  0.13990  0.67040  1.0000 0.5585714106
C   C5        1.0  0.36250  0.29190  0.19840  1.0000 0.569006048
C   C6        1.0  0.63750  0.79190  0.30160  1.0000 0.569006048
C   C7        1.0  0.63750  0.70810  0.80160  1.0000 0.569006048
C   C8        1.0  0.36250  0.20810  0.69840  1.0000 0.569006048
C   C9        1.0  0.98760  0.38550  0.19430  1.0000 -0.0590213737
C   C10       1.0  0.01240  0.88550  0.30570  1.0000 -0.0590213737
C   C11       1.0  0.01240  0.61450  0.80570  1.0000 -0.0590213737
C   C12       1.0  0.98760  0.11450  0.69430  1.0000 -0.0590213737
C   C13       1.0  0.48060  0.28580  0.24770  1.0000 -0.0505008897
C   C14       1.0  0.51940  0.78580  0.25230  1.0000 -0.0505008897
C   C15       1.0  0.51940  0.71420  0.75230  1.0000 -0.0505008897
C   C16       1.0  0.48060  0.21420  0.74770  1.0000 -0.0505008897
C   C17       1.0  0.99190  0.43080  0.20150  1.0000 0.040000786
C   C18       1.0  0.00810  0.93080  0.29850  1.0000 0.040000786
C   C19       1.0  0.00810  0.56920  0.79850  1.0000 0.040000786
C   C20       1.0  0.99190  0.06920  0.70150  1.0000 0.040000786
C   C21       1.0  0.91760  0.36210  0.21140  1.0000 0.0492330483
C   C22       1.0  0.08240  0.86210  0.28860  1.0000 0.0492330483
C   C23       1.0  0.08240  0.63790  0.78860  1.0000 0.0492330483
C   C24       1.0  0.91760  0.13790  0.71140  1.0000 0.0492330483
C   C25       1.0  0.55790  0.30590  0.23490  1.0000 0.0293829703
C   C26       1.0  0.44210  0.80590  0.26510  1.0000 0.0293829703
C   C27       1.0  0.44210  0.69410  0.76510  1.0000 0.0293829703
C   C28       1.0  0.55790  0.19410  0.73490  1.0000 0.0293829703
C   C29       1.0  0.51490  0.26180  0.30560  1.0000 0.0126769343
C   C30       1.0  0.48510  0.76180  0.19440  1.0000 0.0126769343
C   C31       1.0  0.48510  0.73820  0.69440  1.0000 0.0126769343
C   C32       1.0  0.51490  0.23820  0.80560  1.0000 0.0126769343
C   C33       1.0  0.92730  0.45010  0.22540  1.0000 -0.1641897237
C   C34       1.0  0.07270  0.95010  0.27460  1.0000 -0.1641897237
C   C35       1.0  0.07270  0.54990  0.77460  1.0000 -0.1641897237
C   C36       1.0  0.92730  0.04990  0.72540  1.0000 -0.1641897237
C   C37       1.0  0.06200  0.45950  0.18410  1.0000 0.569006048
C   C38       1.0  0.93800  0.95950  0.31590  1.0000 0.569006048
C   C39       1.0  0.93800  0.54050  0.81590  1.0000 0.569006048
C   C40       1.0  0.06200  0.04050  0.68410  1.0000 0.569006048
C   C41       1.0  0.62570  0.26030  0.34980  1.0000 -0.1338865137
C   C42       1.0  0.37430  0.76030  0.15020  1.0000 -0.1338865137
C   C43       1.0  0.37430  0.73970  0.65020  1.0000 -0.1338865137
C   C44       1.0  0.62570  0.23970  0.84980  1.0000 -0.1338865137
C   C45       1.0  0.43410  0.23530  0.31710  1.0000 0.5585714106
C   C46       1.0  0.56590  0.73530  0.18290  1.0000 0.5585714106
C   C47       1.0  0.56590  0.76470  0.68290  1.0000 0.5585714106
C   C48       1.0  0.43410  0.26470  0.81710  1.0000 0.5585714106
C   C49       1.0  0.86220  0.42480  0.24270  1.0000 0.1011979427
C   C50       1.0  0.13780  0.92480  0.25730  1.0000 0.1011979427
C   C51       1.0  0.13780  0.57520  0.75730  1.0000 0.1011979427
C   C52       1.0  0.86220  0.07520  0.74270  1.0000 0.1011979427
C   C53       1.0  0.69780  0.28240  0.33440  1.0000 0.1076216372
C   C54       1.0  0.30220  0.78240  0.16560  1.0000 0.1076216372
C   C55       1.0  0.30220  0.71760  0.66560  1.0000 0.1076216372
C   C56       1.0  0.69780  0.21760  0.83440  1.0000 0.1076216372
C   C57       1.0  0.96700  0.30450  0.34200  1.0000 0.569006048
C   C58       1.0  0.03300  0.80450  0.15800  1.0000 0.569006048
C   C59       1.0  0.03300  0.69550  0.65800  1.0000 0.569006048
C   C60       1.0  0.96700  0.19550  0.84200  1.0000 0.569006048
C   C61       1.0  0.06060  0.27430  0.35440  1.0000 0.0293829703
C   C62       1.0  0.93940  0.77430  0.14560  1.0000 0.0293829703
C   C63       1.0  0.93940  0.72570  0.64560  1.0000 0.0293829703
C   C64       1.0  0.06060  0.22570  0.85440  1.0000 0.0293829703
C   C65       1.0  0.19060  0.12950  0.33450  1.0000 0.5507290834
C   C66       1.0  0.80940  0.62950  0.16550  1.0000 0.5507290834
C   C67       1.0  0.80940  0.87050  0.66550  1.0000 0.5507290834
C   C68       1.0  0.19060  0.37050  0.83450  1.0000 0.5507290834
C   C69       1.0  0.43900  0.11250  0.33750  1.0000 0.1011979427
C   C70       1.0  0.56100  0.61250  0.16250  1.0000 0.1011979427
C   C71       1.0  0.56100  0.88750  0.66250  1.0000 0.1011979427
C   C72       1.0  0.43900  0.38750  0.83750  1.0000 0.1011979427
C   C73       1.0  0.57490  0.15190  0.41990  1.0000 0.040000786
C   C74       1.0  0.42510  0.65190  0.08010  1.0000 0.040000786
C   C75       1.0  0.42510  0.84810  0.58010  1.0000 0.040000786
C   C76       1.0  0.57490  0.34810  0.91990  1.0000 0.040000786
C   C77       1.0  0.19500  0.25130  0.32420  1.0000 0.0914965296
C   C78       1.0  0.80500  0.75130  0.17580  1.0000 0.0914965296
C   C79       1.0  0.80500  0.74870  0.67580  1.0000 0.0914965296
C   C80       1.0  0.19500  0.24870  0.82420  1.0000 0.0914965296
C   C81       1.0  0.20270  0.22380  0.41960  1.0000 0.0492330483
C   C82       1.0  0.79730  0.72380  0.08040  1.0000 0.0492330483
C   C83       1.0  0.79730  0.77620  0.58040  1.0000 0.0492330483
C   C84       1.0  0.20270  0.27620  0.91960  1.0000 0.0492330483
C   C85       1.0  0.10410  0.27610  0.31080  1.0000 -0.1505717909
C   C86       1.0  0.89590  0.77610  0.18920  1.0000 -0.1505717909
C   C87       1.0  0.89590  0.72390  0.68920  1.0000 -0.1505717909
C   C88       1.0  0.10410  0.22390  0.81080  1.0000 -0.1505717909
C   C89       1.0  0.11110  0.24760  0.40970  1.0000 -0.0692489417
C   C90       1.0  0.88890  0.74760  0.09030  1.0000 -0.0692489417
C   C91       1.0  0.88890  0.75240  0.59030  1.0000 -0.0692489417
C   C92       1.0  0.11110  0.25240  0.90970  1.0000 -0.0692489417
C   C93       1.0  0.09720  0.10160  0.32780  1.0000 0.0194437756
C   C94       1.0  0.90280  0.60160  0.17220  1.0000 0.0194437756
C   C95       1.0  0.90280  0.89840  0.67220  1.0000 0.0194437756
C   C96       1.0  0.09720  0.39840  0.82780  1.0000 0.0194437756
C   C97       1.0  0.51410  0.08870  0.32740  1.0000 -0.1505717909
C   C98       1.0  0.48590  0.58870  0.17260  1.0000 -0.1505717909
C   C99       1.0  0.48590  0.91130  0.67260  1.0000 -0.1505717909
C   C100      1.0  0.51410  0.41130  0.82740  1.0000 -0.1505717909
C   C101      1.0  0.65510  0.12930  0.41320  1.0000 -0.0590213737
C   C102      1.0  0.34490  0.62930  0.08680  1.0000 -0.0590213737
C   C103      1.0  0.34490  0.87070  0.58680  1.0000 -0.0590213737
C   C104      1.0  0.65510  0.37070  0.91320  1.0000 -0.0590213737
C   C105      1.0  0.06840  0.24170  0.45860  1.0000 0.5884609544
C   C106      1.0  0.93160  0.74170  0.04140  1.0000 0.5884609544
C   C107      1.0  0.93160  0.75830  0.54140  1.0000 0.5884609544
C   C108      1.0  0.06840  0.25830  0.95860  1.0000 0.5884609544
C   C109      1.0  0.05410  0.10400  0.37160  1.0000 -0.1439041174
C   C110      1.0  0.94590  0.60400  0.12840  1.0000 -0.1439041174
C   C111      1.0  0.94590  0.89600  0.62840  1.0000 -0.1439041174
C   C112      1.0  0.05410  0.39600  0.87160  1.0000 -0.1439041174
C   C113      1.0  0.04180  0.07580  0.27120  1.0000 -0.0505008897
C   C114      1.0  0.95820  0.57580  0.22880  1.0000 -0.0505008897
C   C115      1.0  0.95820  0.92420  0.72880  1.0000 -0.0505008897
C   C116      1.0  0.04180  0.42420  0.77120  1.0000 -0.0505008897
C   C117      1.0  0.62450  0.09690  0.36540  1.0000 0.0194437756
C   C118      1.0  0.37550  0.59690  0.13460  1.0000 0.0194437756
C   C119      1.0  0.37550  0.90310  0.63460  1.0000 0.0194437756
C   C120      1.0  0.62450  0.40310  0.86540  1.0000 0.0194437756
C   C121      1.0  0.77230  0.14290  0.45570  1.0000 0.5507290834
C   C122      1.0  0.22770  0.64290  0.04430  1.0000 0.5507290834
C   C123      1.0  0.22770  0.85710  0.54430  1.0000 0.5507290834
C   C124      1.0  0.77230  0.35710  0.95570  1.0000 0.5507290834
C   C125      1.0  0.95850  0.08210  0.35760  1.0000 0.1076216372
C   C126      1.0  0.04150  0.58210  0.14240  1.0000 0.1076216372
C   C127      1.0  0.04150  0.91790  0.64240  1.0000 0.1076216372
C   C128      1.0  0.95850  0.41790  0.85760  1.0000 0.1076216372
C   C129      1.0  0.94540  0.05550  0.26000  1.0000 0.0492330483
C   C130      1.0  0.05460  0.55550  0.24000  1.0000 0.0492330483
C   C131      1.0  0.05460  0.94450  0.74000  1.0000 0.0492330483
C   C132      1.0  0.94540  0.44450  0.76000  1.0000 0.0492330483
C   C133      1.0  0.08220  0.06850  0.22180  1.0000 0.569006048
C   C134      1.0  0.91780  0.56850  0.27820  1.0000 0.569006048
C   C135      1.0  0.91780  0.93150  0.77820  1.0000 0.569006048
C   C136      1.0  0.08220  0.43150  0.72180  1.0000 0.569006048
C   C137      1.0  0.70540  0.06920  0.35600  1.0000 0.5585714106
C   C138      1.0  0.29460  0.56920  0.14400  1.0000 0.5585714106
C   C139      1.0  0.29460  0.93080  0.64400  1.0000 0.5585714106
C   C140      1.0  0.70540  0.43080  0.85600  1.0000 0.5585714106
C   C141      1.0  0.34230  0.00170  0.18740  1.0000 0.569006048
C   C142      1.0  0.65770  0.50170  0.31260  1.0000 0.569006048
C   C143      1.0  0.65770  0.99830  0.81260  1.0000 0.569006048
C   C144      1.0  0.34230  0.49830  0.68740  1.0000 0.569006048
C   C145      1.0  0.54240  0.00080  0.23090  1.0000 0.0492330483
C   C146      1.0  0.45760  0.50080  0.26910  1.0000 0.0492330483
C   C147      1.0  0.45760  0.99920  0.76910  1.0000 0.0492330483
C   C148      1.0  0.54240  0.49920  0.73090  1.0000 0.0492330483
C   C149      1.0  0.65000  0.94040  0.27400  1.0000 0.1011979427
C   C150      1.0  0.35000  0.44040  0.22600  1.0000 0.1011979427
C   C151      1.0  0.35000  0.05960  0.72600  1.0000 0.1011979427
C   C152      1.0  0.65000  0.55960  0.77400  1.0000 0.1011979427
C   C153      1.0  0.44840  0.97740  0.21590  1.0000 -0.0692489417
C   C154      1.0  0.55160  0.47740  0.28410  1.0000 -0.0692489417
C   C155      1.0  0.55160  0.02260  0.78410  1.0000 -0.0692489417
C   C156      1.0  0.44840  0.52260  0.71590  1.0000 -0.0692489417
C   C157      1.0  0.56010  0.91500  0.25940  1.0000 -0.1505717909
C   C158      1.0  0.43990  0.41500  0.24060  1.0000 -0.1505717909
C   C159      1.0  0.43990  0.08500  0.74060  1.0000 -0.1505717909
C   C160      1.0  0.56010  0.58500  0.75940  1.0000 -0.1505717909
C   C161      1.0  0.45690  0.93310  0.22950  1.0000 0.040000786
C   C162      1.0  0.54310  0.43310  0.27050  1.0000 0.040000786
C   C163      1.0  0.54310  0.06690  0.77050  1.0000 0.040000786
C   C164      1.0  0.45690  0.56690  0.72950  1.0000 0.040000786
C   C165      1.0  0.35870  0.90390  0.20890  1.0000 0.569006048
C   C166      1.0  0.64130  0.40390  0.29110  1.0000 0.569006048
C   C167      1.0  0.64130  0.09610  0.79110  1.0000 0.569006048
C   C168      1.0  0.35870  0.59610  0.70890  1.0000 0.569006048
N   N1        1.0  0.85740  0.38112  0.23630  1.0000 -0.2359392842
N   N2        1.0  0.14260  0.88112  0.26370  1.0000 -0.2359392842
N   N3        1.0  0.14260  0.61888  0.76370  1.0000 -0.2359392842
N   N4        1.0  0.85740  0.11888  0.73630  1.0000 -0.2359392842
N   N5        1.0  0.66520  0.30488  0.27810  1.0000 -0.2294777906
N   N6        1.0  0.33480  0.80488  0.22190  1.0000 -0.2294777906
N   N7        1.0  0.33480  0.69512  0.72190  1.0000 -0.2294777906
N   N8        1.0  0.66520  0.19512  0.77810  1.0000 -0.2294777906
N   N9        1.0  0.46830  0.14374  0.38260  1.0000 -0.2294777906
N   N10       1.0  0.53170  0.64374  0.11740  1.0000 -0.2294777906
N   N11       1.0  0.53170  0.85626  0.61740  1.0000 -0.2294777906
N   N12       1.0  0.46830  0.35626  0.88260  1.0000 -0.2294777906
N   N13       1.0  0.24420  0.22541  0.37760  1.0000 -0.2294777906
N   N14       1.0  0.75580  0.72541  0.12240  1.0000 -0.2294777906
N   N15       1.0  0.75580  0.77459  0.62240  1.0000 -0.2294777906
N   N16       1.0  0.24420  0.27459  0.87760  1.0000 -0.2294777906
N   N17       1.0  0.90460  0.05806  0.30230  1.0000 -0.2132445401
N   N18       1.0  0.09540  0.55806  0.19770  1.0000 -0.2132445401
N   N19       1.0  0.09540  0.94194  0.69770  1.0000 -0.2132445401
N   N20       1.0  0.90460  0.44194  0.80230  1.0000 -0.2132445401
N   N21       1.0  0.64210  0.98330  0.25990  1.0000 -0.2359392842
N   N22       1.0  0.35790  0.48330  0.24010  1.0000 -0.2359392842
N   N23       1.0  0.35790  0.01670  0.74010  1.0000 -0.2359392842
N   N24       1.0  0.64210  0.51670  0.75990  1.0000 -0.2359392842
O   O1        1.0  0.04510  0.31916  0.16710  1.0000 -0.6011843657
O   O2        1.0  0.95490  0.81916  0.33290  1.0000 -0.6011843657
O   O3        1.0  0.95490  0.68084  0.83290  1.0000 -0.6011843657
O   O4        1.0  0.04510  0.18084  0.66710  1.0000 -0.6011843657
O   O5        1.0  0.11660  0.38001  0.15430  1.0000 -0.6011843657
O   O6        1.0  0.88340  0.88001  0.34570  1.0000 -0.6011843657
O   O7        1.0  0.88340  0.61999  0.84570  1.0000 -0.6011843657
O   O8        1.0  0.11660  0.11999  0.65430  1.0000 -0.6011843657
O   O9        1.0  0.29980  0.30887  0.21780  1.0000 -0.6189931309
O   O10       1.0  0.70020  0.80887  0.28220  1.0000 -0.6189931309
O   O11       1.0  0.70020  0.69113  0.78220  1.0000 -0.6189931309
O   O12       1.0  0.29980  0.19113  0.71780  1.0000 -0.6189931309
O   O13       1.0  0.33060  0.28250  0.13900  1.0000 -0.6011843657
O   O14       1.0  0.66940  0.78250  0.36100  1.0000 -0.6011843657
O   O15       1.0  0.66940  0.71750  0.86100  1.0000 -0.6011843657
O   O16       1.0  0.33060  0.21750  0.63900  1.0000 -0.6011843657
O   O17       1.0  0.03950  0.35720  0.01350  1.0000 -0.7721486803
O   O18       1.0  0.96050  0.85720  0.48650  1.0000 -0.7721486803
O   O19       1.0  0.96050  0.64280  0.98650  1.0000 -0.7721486803
O   O20       1.0  0.03950  0.14280  0.51350  1.0000 -0.7721486803
O   O21       1.0  0.25890  0.36780  0.09900  1.0000 -0.7721486803
O   O22       1.0  0.74110  0.86780  0.40100  1.0000 -0.7822872823
O   O23       1.0  0.74110  0.63220  0.90100  1.0000 -0.7721486803
O   O24       1.0  0.25890  0.13220  0.59900  1.0000 -0.7721486803
O   O25       1.0  0.15530  0.23746  0.14920  1.0000 -0.757875686
O   O26       1.0  0.84470  0.73746  0.35080  1.0000 -0.757875686
O   O27       1.0  0.84470  0.76254  0.85080  1.0000 -0.757875686
O   O28       1.0  0.15530  0.26254  0.64920  1.0000 -0.757875686
O   O29       1.0  0.96230  0.27970  0.04770  1.0000 0.1076216372
O   O30       1.0  0.03770  0.77970  0.45230  1.0000 0.1011979427
O   O31       1.0  0.03770  0.72030  0.95230  1.0000 0.1011979427
O   O32       1.0  0.96230  0.22030  0.54770  1.0000 0.1011979427
O   O33       1.0  0.13600  0.27130  0.01530  1.0000 -0.6680543101
O   O34       1.0  0.86400  0.77130  0.48470  1.0000 -0.6680543101
O   O35       1.0  0.86400  0.72870  0.98470  1.0000 -0.6680543101
O   O36       1.0  0.13600  0.22870  0.51530  1.0000 -0.6680543101
O   O37       1.0  0.15100  0.47132  0.23230  1.0000 -0.552043068
O   O38       1.0  0.84900  0.97132  0.26770  1.0000 -0.552043068
O   O39       1.0  0.84900  0.52868  0.76770  1.0000 -0.552043068
O   O40       1.0  0.15100  0.02868  0.73230  1.0000 -0.552043068
O   O41       1.0  0.02820  0.47205  0.12680  1.0000 -0.4953640079
O   O42       1.0  0.97180  0.97205  0.37320  1.0000 -0.4953640079
O   O43       1.0  0.97180  0.52795  0.87320  1.0000 -0.4953640079
O   O44       1.0  0.02820  0.02795  0.62680  1.0000 -0.4949958897
O   O45       1.0  0.36030  0.21636  0.26890  1.0000 -0.5425688064
O   O46       1.0  0.63970  0.71636  0.23110  1.0000 -0.5425688064
O   O47       1.0  0.63970  0.78364  0.73110  1.0000 -0.5425688064
O   O48       1.0  0.36030  0.28364  0.76890  1.0000 -0.5425688064
O   O49       1.0  0.44830  0.23319  0.37600  1.0000 -0.5425688064
O   O50       1.0  0.55170  0.73319  0.12400  1.0000 -0.5425688064
O   O51       1.0  0.55170  0.76681  0.62400  1.0000 -0.5425688064
O   O52       1.0  0.44830  0.26681  0.87600  1.0000 -0.5425688064
O   O53       1.0  0.87710  0.29664  0.29260  1.0000 -0.552043068
O   O54       1.0  0.12290  0.79664  0.20740  1.0000 -0.552043068
O   O55       1.0  0.12290  0.70336  0.70740  1.0000 -0.552043068
O   O56       1.0  0.87710  0.20336  0.79260  1.0000 -0.552043068
O   O57       1.0  0.67590  0.32410  0.15210  1.0000 -0.6815076745
O   O58       1.0  0.32410  0.82410  0.34790  1.0000 -0.6815076745
O   O59       1.0  0.32410  0.67590  0.84790  1.0000 -0.6815076745
O   O60       1.0  0.67590  0.17590  0.65210  1.0000 -0.6815076745
O   O61       1.0  0.66320  0.39221  0.24590  1.0000 -0.5425688064
O   O62       1.0  0.33680  0.89221  0.25410  1.0000 -0.5425688064
O   O63       1.0  0.33680  0.60779  0.75410  1.0000 -0.5425688064
O   O64       1.0  0.66320  0.10779  0.74590  1.0000 -0.5425688064
O   O65       1.0  0.26750  0.13593  0.39170  1.0000 -0.5425688064
O   O66       1.0  0.73250  0.63593  0.10830  1.0000 -0.5425688064
O   O67       1.0  0.73250  0.86407  0.60830  1.0000 -0.5425688064
O   O68       1.0  0.26750  0.36407  0.89170  1.0000 -0.5425688064
O   O69       1.0  0.18260  0.14582  0.28260  1.0000 -0.5329948341
O   O70       1.0  0.81740  0.64582  0.21740  1.0000 -0.5329948341
O   O71       1.0  0.81740  0.85418  0.71740  1.0000 -0.5329948341
O   O72       1.0  0.18260  0.35418  0.78260  1.0000 -0.5329948341
O   O73       1.0  0.45160  0.18660  0.49820  1.0000 -0.6931661046
O   O74       1.0  0.54840  0.68660  0.00180  1.0000 -0.6931661046
O   O75       1.0  0.54840  0.81340  0.50180  1.0000 -0.6931661046
O   O76       1.0  0.45160  0.31340  0.99820  1.0000 -0.6931661046
O   O77       1.0  0.98930  0.33670  0.37920  1.0000 -0.5600745356
O   O78       1.0  0.01070  0.83670  0.12080  1.0000 -0.5600745356
O   O79       1.0  0.01070  0.66330  0.62080  1.0000 -0.5600745356
O   O80       1.0  0.98930  0.16330  0.87920  1.0000 -0.5600745356
O   O81       1.0  0.97010  0.24990  0.43960  1.0000 -0.4846886075
O   O82       1.0  0.02990  0.74990  0.06040  1.0000 -0.4846886075
O   O83       1.0  0.02990  0.75010  0.56040  1.0000 -0.4846886075
O   O84       1.0  0.97010  0.25010  0.93960  1.0000 -0.4846886075
O   O85       1.0  0.80110  0.15370  0.51410  1.0000 -0.552043068
O   O86       1.0  0.19890  0.65370  0.98590  1.0000 -0.552043068
O   O87       1.0  0.19890  0.84630  0.48590  1.0000 -0.552043068
O   O88       1.0  0.80110  0.34630  0.01410  1.0000 -0.552043068
O   O89       1.0  0.83140  0.14370  0.42820  1.0000 -0.5425688064
O   O90       1.0  0.16860  0.64370  0.07180  1.0000 -0.5425688064
O   O91       1.0  0.16860  0.85630  0.57180  1.0000 -0.5425688064
O   O92       1.0  0.83140  0.35630  0.92820  1.0000 -0.5425688064
O   O93       1.0  0.17290  0.05032  0.24020  1.0000 -0.5881586349
O   O94       1.0  0.82710  0.55032  0.25980  1.0000 -0.5881586349
O   O95       1.0  0.82710  0.94968  0.75980  1.0000 -0.5881586349
O   O96       1.0  0.17290  0.44968  0.74020  1.0000 -0.5881586349
O   O97       1.0  0.02150  0.07840  0.16250  1.0000 -0.6189931309
O   O98       1.0  0.97850  0.57840  0.33750  1.0000 -0.6189931309
O   O99       1.0  0.97850  0.92160  0.83750  1.0000 -0.6189931309
O   O100      1.0  0.02150  0.42160  0.66250  1.0000 -0.6189931309
O   O101      1.0  0.69770  0.07074  0.29870  1.0000 -0.5600745356
O   O102      1.0  0.30230  0.57074  0.20130  1.0000 -0.5600745356
O   O103      1.0  0.30230  0.92926  0.70130  1.0000 -0.5600745356
O   O104      1.0  0.69770  0.42926  0.79870  1.0000 -0.5600745356
O   O105      1.0  0.76970  0.04590  0.40090  1.0000 -0.5117313987
O   O106      1.0  0.23030  0.54590  0.09910  1.0000 -0.5117313987
O   O107      1.0  0.23030  0.95410  0.59910  1.0000 -0.5117313987
O   O108      1.0  0.76970  0.45410  0.90090  1.0000 -0.5117313987
O   O109      1.0  0.69630  0.04270  0.17180  1.0000 -0.663270024
O   O110      1.0  0.30370  0.54270  0.32820  1.0000 -0.663270024
O   O111      1.0  0.30370  0.95730  0.82820  1.0000 -0.663270024
O   O112      1.0  0.69630  0.45730  0.67180  1.0000 -0.663270024
O   O113      1.0  0.34240  0.04152  0.17420  1.0000 -0.6252882159
O   O114      1.0  0.65760  0.54152  0.32580  1.0000 -0.6252882159
O   O115      1.0  0.65760  0.95848  0.82580  1.0000 -0.6252882159
O   O116      1.0  0.34240  0.45848  0.67420  1.0000 -0.6252882159
O   O117      1.0  0.25700  0.98266  0.17810  1.0000 -0.5773167884
O   O118      1.0  0.74300  0.48266  0.32190  1.0000 -0.5773167884
O   O119      1.0  0.74300  0.01734  0.82190  1.0000 -0.5773167884
O   O120      1.0  0.25700  0.51734  0.67810  1.0000 -0.5773167884
O   O121      1.0  0.21070  0.12167  0.17250  1.0000 -0.8899330473
O   O122      1.0  0.78930  0.62167  0.32750  1.0000 -0.8899330473
O   O123      1.0  0.78930  0.87833  0.82750  1.0000 -0.8899330473
O   O124      1.0  0.21070  0.37833  0.67250  1.0000 -0.8899330473
O   O125      1.0  0.97810  0.07270  0.03450  1.0000 -0.7721486803
O   O126      1.0  0.02190  0.57270  0.46550  1.0000 -0.7721486803
O   O127      1.0  0.02190  0.92730  0.96550  1.0000 -0.7721486803
O   O128      1.0  0.97810  0.42730  0.53450  1.0000 -0.7721486803
O   O129      1.0  0.02870  0.99201  0.11520  1.0000 -0.7721486803
O   O130      1.0  0.97130  0.49201  0.38480  1.0000 -0.7721486803
O   O131      1.0  0.97130  0.00799  0.88480  1.0000 -0.7721486803
O   O132      1.0  0.02870  0.50799  0.61520  1.0000 -0.7721486803
O   O133      1.0  0.14270  0.00730  0.03660  1.0000 -0.7822872823
O   O134      1.0  0.85730  0.50730  0.46340  1.0000 -0.7822872823
O   O135      1.0  0.85730  0.99270  0.96340  1.0000 -0.7822872823
O   O136      1.0  0.14270  0.49270  0.53660  1.0000 -0.7850835597
O   O137      1.0  0.19550  0.09510  0.05650  1.0000 -0.757875686
O   O138      1.0  0.80450  0.59510  0.44350  1.0000 -0.757875686
O   O139      1.0  0.80450  0.90490  0.94350  1.0000 -0.757875686
O   O140      1.0  0.19550  0.40490  0.55650  1.0000 -0.757875686
O   O141      1.0  0.31140  0.89090  0.15090  1.0000 -0.5199938988
O   O142      1.0  0.68860  0.39090  0.34910  1.0000 -0.5199938988
O   O143      1.0  0.68860  0.10910  0.84910  1.0000 -0.5199938988
O   O144      1.0  0.31140  0.60910  0.65090  1.0000 -0.5199938988
