# DDEC6 charges by PACMAN v1.1 (https://github.com/mtap-research/PACMAN-charge/)
data_2015[Cd][pcu]3[FSR]7
_chemical_formula_sum              "Cd2 H48 C64 N4 O12"
_cell_length_a       10.128
_cell_length_b       12.648
_cell_length_c       15.467
_cell_angle_alpha    106.916
_cell_angle_beta     104.122
_cell_angle_gamma    104.247

_symmetry_space_group_name_H-M    "P 1"
_symmetry_Int_Tables_number       1

loop_
  _symmetry_equiv_pos_as_xyz
  'x, y, z'

loop_
  _atom_site_type_symbol
  _atom_site_label
  _atom_site_symmetry_multiplicity
  _atom_site_fract_x
  _atom_site_fract_y
  _atom_site_fract_z
  _atom_site_occupancy
  _atom_site_charge
Cd  Cd1       1.0  0.53107  0.03352  0.14654  1.0000 0.8728043582
Cd  Cd2       1.0  0.46893  0.96648  0.85346  1.0000 0.8728043582
H   H1        1.0  0.06890  0.83950  0.20590  1.0000 0.1195508201
H   H2        1.0  0.93110  0.16050  0.79410  1.0000 0.1195508201
H   H3        1.0  0.70210  0.00650  0.45490  1.0000 0.1195508201
H   H4        1.0  0.29790  0.99350  0.54510  1.0000 0.1195508201
H   H5        1.0  0.00420  0.89970  0.85150  1.0000 0.1195508201
H   H6        1.0  0.99580  0.10030  0.14850  1.0000 0.1195508201
H   H7        1.0  0.45950  0.76590  0.00550  1.0000 0.1098696493
H   H8        1.0  0.54050  0.23410  0.99450  1.0000 0.1098696493
H   H9        1.0  0.83330  0.23930  0.20250  1.0000 0.1098696493
H   H10       1.0  0.16670  0.76070  0.79750  1.0000 0.1098696493
H   H11       1.0  0.86510  0.81690  0.24950  1.0000 0.1195508201
H   H12       1.0  0.13490  0.18310  0.75050  1.0000 0.1195508201
H   H13       1.0  0.07520  0.32700  0.27140  1.0000 0.1195508201
H   H14       1.0  0.92480  0.67300  0.72860  1.0000 0.1195508201
H   H15       1.0  0.29910  0.01520  0.40180  1.0000 0.1195508201
H   H16       1.0  0.70090  0.98480  0.59820  1.0000 0.1195508201
H   H17       1.0  0.21620  0.90100  0.13000  1.0000 0.1098696493
H   H18       1.0  0.78380  0.09900  0.87000  1.0000 0.1098696493
H   H19       1.0  0.21280  0.12430  0.12230  1.0000 0.1195508201
H   H20       1.0  0.78720  0.87570  0.87770  1.0000 0.1195508201
H   H21       1.0  0.27580  0.58410  0.92930  1.0000 0.1195508201
H   H22       1.0  0.72420  0.41590  0.07070  1.0000 0.1195508201
H   H23       1.0  0.47820  0.27130  0.24090  1.0000 0.1098696493
H   H24       1.0  0.52180  0.72870  0.75910  1.0000 0.1098696493
H   H25       1.0  0.62990  0.57690  0.98410  1.0000 0.1442663815
H   H26       1.0  0.37010  0.42310  0.01590  1.0000 0.1442663815
H   H27       1.0  0.82220  0.55990  0.32270  1.0000 0.1195508201
H   H28       1.0  0.17780  0.44010  0.67730  1.0000 0.1195508201
H   H29       1.0  0.83710  0.59880  0.94410  1.0000 0.1098696493
H   H30       1.0  0.16290  0.40120  0.05590  1.0000 0.1098696493
H   H31       1.0  0.98520  0.61120  0.25430  1.0000 0.1098696493
H   H32       1.0  0.01480  0.38880  0.74570  1.0000 0.1098696493
H   H33       1.0  0.05880  0.56290  0.95920  1.0000 0.1098696493
H   H34       1.0  0.94120  0.43710  0.04080  1.0000 0.1098696493
H   H35       1.0  0.45770  0.76370  0.29800  1.0000 0.10191825
H   H36       1.0  0.54230  0.23630  0.70200  1.0000 0.10191825
H   H37       1.0  0.39210  0.70650  0.18530  1.0000 0.10191825
H   H38       1.0  0.60790  0.29350  0.81470  1.0000 0.10191825
H   H39       1.0  0.58310  0.47430  0.30650  1.0000 0.131655335
H   H40       1.0  0.41690  0.52570  0.69350  1.0000 0.131655335
H   H41       1.0  0.64780  0.81660  0.24980  1.0000 0.1098696493
H   H42       1.0  0.35220  0.18340  0.75020  1.0000 0.1098696493
H   H43       1.0  0.66880  0.71460  0.28410  1.0000 0.10191825
H   H44       1.0  0.33120  0.28540  0.71590  1.0000 0.10191825
H   H45       1.0  0.29930  0.40340  0.26330  1.0000 0.131655335
H   H46       1.0  0.70070  0.59660  0.73670  1.0000 0.131655335
H   H47       1.0  0.21160  0.68990  0.24880  1.0000 0.1195508201
H   H48       1.0  0.78840  0.31010  0.75120  1.0000 0.1195508201
C   C1        1.0  0.98080  0.78520  0.16140  1.0000 -0.131261744
C   C2        1.0  0.01920  0.21480  0.83860  1.0000 -0.131261744
C   C3        1.0  0.13140  0.01660  0.98360  1.0000 -0.0224652341
C   C4        1.0  0.86860  0.98340  0.01640  1.0000 -0.0224652341
C   C5        1.0  0.27410  0.02900  0.96700  1.0000 0.5688981559
C   C6        1.0  0.72590  0.97100  0.03300  1.0000 0.5688981559
C   C7        1.0  0.85490  0.40890  0.26290  1.0000 0.0288819822
C   C8        1.0  0.14510  0.59110  0.73710  1.0000 0.0288819822
C   C9        1.0  0.62050  0.00410  0.47280  1.0000 -0.1195936728
C   C10       1.0  0.37950  0.99590  0.52720  1.0000 -0.1195936728
C   C11       1.0  0.00280  0.94090  0.91160  1.0000 -0.1110818042
C   C12       1.0  0.99720  0.05910  0.08840  1.0000 -0.1110818042
C   C13       1.0  0.72780  0.69020  0.12270  1.0000 0.2431010004
C   C14       1.0  0.27220  0.30980  0.87730  1.0000 0.2431010004
C   C15       1.0  0.50160  0.01400  0.41390  1.0000 -0.0224652341
C   C16       1.0  0.49840  0.98600  0.58610  1.0000 -0.0224652341
C   C17       1.0  0.50030  0.02610  0.31950  1.0000 0.5478911843
C   C18       1.0  0.49970  0.97390  0.68050  1.0000 0.5478911843
C   C19       1.0  0.37130  0.75720  0.01570  1.0000 0.0832732837
C   C20       1.0  0.62870  0.24280  0.98430  1.0000 0.0832732837
C   C21       1.0  0.00530  0.46090  0.26450  1.0000 0.0461196747
C   C22       1.0  0.99470  0.53910  0.73550  1.0000 0.0461196747
C   C23       1.0  0.11150  0.73070  0.04730  1.0000 0.0288819822
C   C24       1.0  0.88850  0.26930  0.95270  1.0000 0.0288819822
C   C25       1.0  0.78280  0.28760  0.22430  1.0000 0.0288819822
C   C26       1.0  0.21720  0.71240  0.77570  1.0000 0.0288819822
C   C27       1.0  0.97660  0.72130  0.07140  1.0000 0.0433334257
C   C28       1.0  0.02340  0.27870  0.92860  1.0000 0.0433334257
C   C29       1.0  0.85900  0.77180  0.18830  1.0000 -0.2279291828
C   C30       1.0  0.14100  0.22820  0.81170  1.0000 -0.2279291828
C   C31       1.0  0.10200  0.40030  0.26660  1.0000 -0.1370472514
C   C32       1.0  0.89800  0.59970  0.73340  1.0000 -0.1370472514
C   C33       1.0  0.38030  0.00930  0.44120  1.0000 -0.1195936728
C   C34       1.0  0.61970  0.99070  0.55880  1.0000 -0.1195936728
C   C35       1.0  0.22710  0.83610  0.08890  1.0000 0.017730163
C   C36       1.0  0.77290  0.16390  0.91110  1.0000 0.017730163
C   C37       1.0  0.12720  0.07440  0.07250  1.0000 -0.1195936728
C   C38       1.0  0.87280  0.92560  0.92750  1.0000 -0.1195936728
C   C39       1.0  0.26220  0.64750  0.97020  1.0000 -0.1370472514
C   C40       1.0  0.73780  0.35250  0.02980  1.0000 -0.1370472514
C   C41       1.0  0.57390  0.30550  0.24660  1.0000 0.0832732837
C   C42       1.0  0.42610  0.69450  0.75340  1.0000 0.0832732837
C   C43       1.0  0.71880  0.62800  0.02970  1.0000 -0.2202276927
C   C44       1.0  0.28120  0.37200  0.97030  1.0000 -0.2202276927
C   C45       1.0  0.77810  0.47850  0.29510  1.0000 -0.1003164727
C   C46       1.0  0.22190  0.52150  0.70490  1.0000 -0.1003164727
C   C47       1.0  0.84300  0.64260  0.00560  1.0000 -0.131261744
C   C48       1.0  0.15700  0.35740  0.99440  1.0000 -0.131261744
C   C49       1.0  0.04860  0.56910  0.25680  1.0000 -0.131261744
C   C50       1.0  0.95140  0.43090  0.74320  1.0000 -0.131261744
C   C51       1.0  0.13260  0.63570  0.98780  1.0000 -0.1110818042
C   C52       1.0  0.86740  0.36430  0.01220  1.0000 -0.1003164727
C   C53       1.0  0.45860  0.70510  0.24160  1.0000 -0.0580466859
C   C54       1.0  0.54140  0.29490  0.75840  1.0000 -0.0580466859
C   C55       1.0  0.63640  0.42780  0.28630  1.0000 -0.1370472514
C   C56       1.0  0.36360  0.57220  0.71370  1.0000 -0.1370472514
C   C57       1.0  0.27880  0.55480  0.25390  1.0000 0.2431010004
C   C58       1.0  0.72120  0.44520  0.74610  1.0000 0.2431010004
C   C59       1.0  0.60710  0.73330  0.23640  1.0000 -0.0580466859
C   C60       1.0  0.39290  0.26670  0.76360  1.0000 -0.0580466859
C   C61       1.0  0.23630  0.44580  0.26160  1.0000 -0.2034679506
C   C62       1.0  0.76370  0.55420  0.73840  1.0000 -0.2034679506
C   C63       1.0  0.18420  0.61600  0.25260  1.0000 -0.2202276927
C   C64       1.0  0.81580  0.38400  0.74740  1.0000 -0.2202276927
N   N1        1.0  0.35390  0.84950  0.07310  1.0000 -0.2515176389
N   N2        1.0  0.64610  0.15050  0.92690  1.0000 -0.2515176389
N   N3        1.0  0.64620  0.23610  0.21670  1.0000 -0.2127667669
N   N4        1.0  0.35380  0.76390  0.78330  1.0000 -0.2127667669
O   O1        1.0  0.26760  0.97920  0.88170  1.0000 -0.5368324671
O   O2        1.0  0.73240  0.02080  0.11830  1.0000 -0.5368324671
O   O3        1.0  0.60010  0.00460  0.28860  1.0000 -0.5630114529
O   O4        1.0  0.39990  0.99540  0.71140  1.0000 -0.5630114529
O   O5        1.0  0.40630  0.05880  0.27550  1.0000 -0.5832807723
O   O6        1.0  0.59370  0.94120  0.72450  1.0000 -0.5832807723
O   O7        1.0  0.39000  0.08270  0.03720  1.0000 -0.5832807723
O   O8        1.0  0.61000  0.91730  0.96280  1.0000 -0.5832807723
O   O9        1.0  0.60060  0.66570  0.14150  1.0000 -0.1897985119
O   O10       1.0  0.39940  0.33430  0.85850  1.0000 -0.1897985119
O   O11       1.0  0.41290  0.59140  0.24650  1.0000 -0.1897985119
O   O12       1.0  0.58710  0.40860  0.75350  1.0000 -0.1897985119
