# DDEC6 charges by PACMAN v1.1 (https://github.com/mtap-research/PACMAN-charge/)
data_2015[Cd][hcb]2[FSR]2
_chemical_formula_sum              "Cd4 H40 C48 N4 O28"
_cell_length_a       8.929
_cell_length_b       15.5317
_cell_length_c       18.2988
_cell_angle_alpha    90
_cell_angle_beta     90
_cell_angle_gamma    90

_symmetry_space_group_name_H-M    "P 1"
_symmetry_Int_Tables_number       1

loop_
  _symmetry_equiv_pos_as_xyz
  'x, y, z'

loop_
  _atom_site_type_symbol
  _atom_site_label
  _atom_site_symmetry_multiplicity
  _atom_site_fract_x
  _atom_site_fract_y
  _atom_site_fract_z
  _atom_site_occupancy
  _atom_site_charge
Cd  Cd1       1.0  0.27667  0.15501  0.42416  1.0000 0.9616061076
Cd  Cd2       1.0  0.72333  0.65501  0.57584  1.0000 0.9616061076
Cd  Cd3       1.0  0.72333  0.15501  0.92416  1.0000 0.9616061076
Cd  Cd4       1.0  0.27667  0.65501  0.07584  1.0000 0.9616061076
H   H1        1.0  0.73830  0.93040  0.73980  1.0000 0.1380385346
H   H2        1.0  0.26170  0.43040  0.26020  1.0000 0.1380385346
H   H3        1.0  0.26170  0.93040  0.23980  1.0000 0.1380385346
H   H4        1.0  0.73830  0.43040  0.76020  1.0000 0.1380385346
H   H5        1.0  0.77770  0.13070  0.49170  1.0000 0.1467476909
H   H6        1.0  0.22230  0.63070  0.50830  1.0000 0.1467476909
H   H7        1.0  0.22230  0.13070  0.99170  1.0000 0.1467476909
H   H8        1.0  0.77770  0.63070  0.00830  1.0000 0.1467476909
H   H9        1.0  0.64190  0.12680  0.43750  1.0000 0.1467476909
H   H10       1.0  0.35810  0.62680  0.56250  1.0000 0.1467476909
H   H11       1.0  0.35810  0.12680  0.93750  1.0000 0.1467476909
H   H12       1.0  0.64190  0.62680  0.06250  1.0000 0.1467476909
H   H13       1.0  0.65640  0.20360  0.49270  1.0000 0.1467476909
H   H14       1.0  0.34360  0.70360  0.50730  1.0000 0.1467476909
H   H15       1.0  0.34360  0.20360  0.99270  1.0000 0.1467476909
H   H16       1.0  0.65640  0.70360  0.00730  1.0000 0.1467476909
H   H17       1.0  0.51800  0.92920  0.54960  1.0000 0.1335064918
H   H18       1.0  0.48200  0.42920  0.45040  1.0000 0.1335064918
H   H19       1.0  0.48200  0.92920  0.04960  1.0000 0.1335064918
H   H20       1.0  0.51800  0.42920  0.95040  1.0000 0.1335064918
H   H21       1.0  0.99270  0.23460  0.36790  1.0000 0.1335064918
H   H22       1.0  0.00730  0.73460  0.63210  1.0000 0.1335064918
H   H23       1.0  0.00730  0.23460  0.86790  1.0000 0.1335064918
H   H24       1.0  0.99270  0.73460  0.13210  1.0000 0.1335064918
H   H25       1.0  0.47990  0.13000  0.68580  1.0000 0.1380385346
H   H26       1.0  0.52010  0.63000  0.31420  1.0000 0.1380385346
H   H27       1.0  0.52010  0.13000  0.18580  1.0000 0.1380385346
H   H28       1.0  0.47990  0.63000  0.81420  1.0000 0.1380385346
H   H29       1.0  0.78330  0.29660  0.32600  1.0000 0.1380385346
H   H30       1.0  0.21670  0.79660  0.67400  1.0000 0.1380385346
H   H31       1.0  0.21670  0.29660  0.82600  1.0000 0.1380385346
H   H32       1.0  0.78330  0.79660  0.17400  1.0000 0.1380385346
H   H33       1.0  0.66010  0.31090  0.38580  1.0000 0.1380385346
H   H34       1.0  0.33990  0.81090  0.61420  1.0000 0.1380385346
H   H35       1.0  0.33990  0.31090  0.88580  1.0000 0.1380385346
H   H36       1.0  0.66010  0.81090  0.11420  1.0000 0.1380385346
H   H37       1.0  0.64500  0.23460  0.33030  1.0000 0.1574714556
H   H38       1.0  0.35500  0.73460  0.66970  1.0000 0.1574714556
H   H39       1.0  0.35500  0.23460  0.83030  1.0000 0.1574714556
H   H40       1.0  0.64500  0.73460  0.16970  1.0000 0.1574714556
C   C1        1.0  0.64970  0.07910  0.79610  1.0000 0.5408125296
C   C2        1.0  0.35030  0.57910  0.20390  1.0000 0.5408125296
C   C3        1.0  0.35030  0.07910  0.29610  1.0000 0.5408125296
C   C4        1.0  0.64970  0.57910  0.70390  1.0000 0.5408125296
C   C5        1.0  0.61470  0.03640  0.72370  1.0000 0.0024727606
C   C6        1.0  0.38530  0.53640  0.27630  1.0000 0.0024727606
C   C7        1.0  0.38530  0.03640  0.22370  1.0000 0.0024727606
C   C8        1.0  0.61470  0.53640  0.77630  1.0000 0.0024727606
C   C9        1.0  0.70170  0.82760  0.62590  1.0000 0.5408125296
C   C10       1.0  0.29830  0.32760  0.37410  1.0000 0.5408125296
C   C11       1.0  0.29830  0.82760  0.12590  1.0000 0.5408125296
C   C12       1.0  0.70170  0.32760  0.87410  1.0000 0.5408125296
C   C13       1.0  0.39610  0.08470  0.55020  1.0000 0.5330893174
C   C14       1.0  0.60390  0.58470  0.44980  1.0000 0.5330893174
C   C15       1.0  0.60390  0.08470  0.05020  1.0000 0.5330893174
C   C16       1.0  0.39610  0.58470  0.94980  1.0000 0.5330893174
C   C17       1.0  0.67370  0.95690  0.70680  1.0000 -0.0983732809
C   C18       1.0  0.32630  0.45690  0.29320  1.0000 -0.0983732809
C   C19       1.0  0.32630  0.95690  0.20680  1.0000 -0.0983732809
C   C20       1.0  0.67370  0.45690  0.79320  1.0000 -0.0983732809
C   C21       1.0  0.71090  0.16430  0.46210  1.0000 -0.3026538715
C   C22       1.0  0.28910  0.66430  0.53790  1.0000 -0.3026538715
C   C23       1.0  0.28910  0.16430  0.96210  1.0000 -0.3026538715
C   C24       1.0  0.71090  0.66430  0.03790  1.0000 -0.3026538715
C   C25       1.0  0.48870  0.03860  0.60770  1.0000 -0.0099065545
C   C26       1.0  0.51130  0.53860  0.39230  1.0000 -0.0099065545
C   C27       1.0  0.51130  0.03860  0.10770  1.0000 -0.0099065545
C   C28       1.0  0.48870  0.53860  0.89230  1.0000 -0.0099065545
C   C29       1.0  0.54450  0.95670  0.59290  1.0000 -0.1056938246
C   C30       1.0  0.45550  0.45670  0.40710  1.0000 -0.1056938246
C   C31       1.0  0.45550  0.95670  0.09290  1.0000 -0.1056938246
C   C32       1.0  0.54450  0.45670  0.90710  1.0000 -0.1056938246
C   C33       1.0  0.63930  0.91550  0.64210  1.0000 -0.0099065545
C   C34       1.0  0.36070  0.41550  0.35790  1.0000 -0.0099065545
C   C35       1.0  0.36070  0.91550  0.14210  1.0000 -0.0099065545
C   C36       1.0  0.63930  0.41550  0.85790  1.0000 -0.0099065545
C   C37       1.0  0.94370  0.20390  0.40440  1.0000 0.3135404139
C   C38       1.0  0.05630  0.70390  0.59560  1.0000 0.3135404139
C   C39       1.0  0.05630  0.20390  0.90440  1.0000 0.3135404139
C   C40       1.0  0.94370  0.70390  0.09560  1.0000 0.3135404139
C   C41       1.0  0.52130  0.07670  0.67430  1.0000 -0.0983732809
C   C42       1.0  0.47870  0.57670  0.32570  1.0000 -0.0983732809
C   C43       1.0  0.47870  0.07670  0.17430  1.0000 -0.0983732809
C   C44       1.0  0.52130  0.57670  0.82570  1.0000 -0.0983732809
C   C45       1.0  0.71420  0.26840  0.35840  1.0000 -0.3269802704
C   C46       1.0  0.28580  0.76840  0.64160  1.0000 -0.3269802704
C   C47       1.0  0.28580  0.26840  0.85840  1.0000 -0.3269802704
C   C48       1.0  0.71420  0.76840  0.14160  1.0000 -0.3269802704
N   N1        1.0  0.79660  0.21250  0.40840  1.0000 0.047957858
N   N2        1.0  0.20340  0.71250  0.59160  1.0000 0.047957858
N   N3        1.0  0.20340  0.21250  0.90840  1.0000 0.047957858
N   N4        1.0  0.79660  0.71250  0.09160  1.0000 0.047957858
O   O1        1.0  0.33880  0.15510  0.56415  1.0000 -0.4725687727
O   O2        1.0  0.66120  0.65510  0.43585  1.0000 -0.4725687727
O   O3        1.0  0.66120  0.15510  0.06415  1.0000 -0.4725687727
O   O4        1.0  0.33880  0.65510  0.93585  1.0000 -0.4725687727
O   O5        1.0  0.02180  0.15880  0.44470  1.0000 -0.4312016741
O   O6        1.0  0.97820  0.65880  0.55530  1.0000 -0.4312016741
O   O7        1.0  0.97820  0.15880  0.94470  1.0000 -0.4312016741
O   O8        1.0  0.02180  0.65880  0.05530  1.0000 -0.4312016741
O   O9        1.0  0.77050  0.06030  0.82770  1.0000 -0.4985543415
O   O10       1.0  0.22950  0.56030  0.17230  1.0000 -0.4920825735
O   O11       1.0  0.22950  0.06030  0.32770  1.0000 -0.4920825735
O   O12       1.0  0.77050  0.56030  0.67230  1.0000 -0.4920825735
O   O13       1.0  0.79130  0.79480  0.66890  1.0000 -0.4985543415
O   O14       1.0  0.20870  0.29480  0.33110  1.0000 -0.5104530528
O   O15       1.0  0.20870  0.79480  0.16890  1.0000 -0.5104530528
O   O16       1.0  0.79130  0.29480  0.83110  1.0000 -0.5104530528
O   O17       1.0  0.38440  0.04900  0.48851  1.0000 -0.4920825735
O   O18       1.0  0.61560  0.54900  0.51149  1.0000 -0.4920825735
O   O19       1.0  0.61560  0.04900  0.98851  1.0000 -0.4985543415
O   O20       1.0  0.38440  0.54900  0.01149  1.0000 -0.4920825735
O   O21       1.0  0.65440  0.79060  0.56941  1.0000 -0.4920825735
O   O22       1.0  0.34560  0.29060  0.43059  1.0000 -0.4920825735
O   O23       1.0  0.34560  0.79060  0.06941  1.0000 -0.4920825735
O   O24       1.0  0.65440  0.29060  0.93059  1.0000 -0.4920825735
O   O25       1.0  0.55750  0.13100  0.82217  1.0000 -0.5159197872
O   O26       1.0  0.44250  0.63100  0.17783  1.0000 -0.5104530528
O   O27       1.0  0.44250  0.13100  0.32217  1.0000 -0.5159197872
O   O28       1.0  0.55750  0.63100  0.67783  1.0000 -0.5159197872
