# DDEC6 charges by PACMAN v1.1 (https://github.com/mtap-research/PACMAN-charge/)
data_2015[U][nan]3[FSR]6
_chemical_formula_sum              "U12 H16 C80 O92"
_cell_length_a       11.683
_cell_length_b       16.583
_cell_length_c       22.832
_cell_angle_alpha    90
_cell_angle_beta     90
_cell_angle_gamma    90

_symmetry_space_group_name_H-M    "P 1"
_symmetry_Int_Tables_number       1

loop_
  _symmetry_equiv_pos_as_xyz
  'x, y, z'

loop_
  _atom_site_type_symbol
  _atom_site_label
  _atom_site_symmetry_multiplicity
  _atom_site_fract_x
  _atom_site_fract_y
  _atom_site_fract_z
  _atom_site_occupancy
  _atom_site_charge
U   U1        1.0  0.49214  0.25000  0.22767  1.0000 2.3932633412
U   U2        1.0  0.00786  0.75000  0.72767  1.0000 2.3932633412
U   U3        1.0  0.99214  0.25000  0.27233  1.0000 2.3932633412
U   U4        1.0  0.50786  0.75000  0.77233  1.0000 2.3932633412
U   U5        1.0  0.20497  0.03435  0.09931  1.0000 2.3932633412
U   U6        1.0  0.29503  0.96565  0.59931  1.0000 2.3981527545
U   U7        1.0  0.70497  0.46565  0.40069  1.0000 2.3981527545
U   U8        1.0  0.79503  0.53435  0.90069  1.0000 2.3981527545
U   U9        1.0  0.79503  0.96565  0.90069  1.0000 2.3981527545
U   U10       1.0  0.70497  0.03435  0.40069  1.0000 2.3981527545
U   U11       1.0  0.29503  0.53435  0.59931  1.0000 2.3981527545
U   U12       1.0  0.20497  0.46565  0.09931  1.0000 2.3981527545
H   H1        1.0  0.55610  0.02250  0.07100  1.0000 0.1475746554
H   H2        1.0  0.94390  0.97750  0.57100  1.0000 0.1475746554
H   H3        1.0  0.05610  0.47750  0.42900  1.0000 0.1475746554
H   H4        1.0  0.44390  0.52250  0.92900  1.0000 0.1475746554
H   H5        1.0  0.44390  0.97750  0.92900  1.0000 0.1475746554
H   H6        1.0  0.05610  0.02250  0.42900  1.0000 0.1475746554
H   H7        1.0  0.94390  0.52250  0.57100  1.0000 0.1475746554
H   H8        1.0  0.55610  0.47750  0.07100  1.0000 0.1475746554
H   H9        1.0  0.84420  0.04340  0.20830  1.0000 0.1475746554
H   H10       1.0  0.65580  0.95660  0.70830  1.0000 0.1475746554
H   H11       1.0  0.34420  0.45660  0.29170  1.0000 0.1475746554
H   H12       1.0  0.15580  0.54340  0.79170  1.0000 0.1475746554
H   H13       1.0  0.15580  0.95660  0.79170  1.0000 0.1475746554
H   H14       1.0  0.34420  0.04340  0.29170  1.0000 0.1475746554
H   H15       1.0  0.65580  0.54340  0.70830  1.0000 0.1475746554
H   H16       1.0  0.84420  0.45660  0.20830  1.0000 0.1475746554
C   C1        1.0  0.46380  0.06900  0.16850  1.0000 0.6461730522
C   C2        1.0  0.03620  0.93100  0.66850  1.0000 0.6461730522
C   C3        1.0  0.96380  0.43100  0.33150  1.0000 0.6461730522
C   C4        1.0  0.53620  0.56900  0.83150  1.0000 0.6461730522
C   C5        1.0  0.53620  0.93100  0.83150  1.0000 0.6461730522
C   C6        1.0  0.96380  0.06900  0.33150  1.0000 0.6461730522
C   C7        1.0  0.03620  0.56900  0.66850  1.0000 0.6461730522
C   C8        1.0  0.46380  0.43100  0.16850  1.0000 0.6461730522
C   C9        1.0  0.58540  0.05320  0.15430  1.0000 -0.1010345447
C   C10       1.0  0.91460  0.94680  0.65430  1.0000 -0.1010345447
C   C11       1.0  0.08540  0.44680  0.34570  1.0000 -0.1010345447
C   C12       1.0  0.41460  0.55320  0.84570  1.0000 -0.1010345447
C   C13       1.0  0.41460  0.94680  0.84570  1.0000 -0.1010345447
C   C14       1.0  0.08540  0.05320  0.34570  1.0000 -0.1010345447
C   C15       1.0  0.91460  0.55320  0.65430  1.0000 -0.1010345447
C   C16       1.0  0.58540  0.44680  0.15430  1.0000 -0.1010345447
C   C17       1.0  0.61410  0.02710  0.09870  1.0000 -0.0706189241
C   C18       1.0  0.88590  0.97290  0.59870  1.0000 -0.0706189241
C   C19       1.0  0.11410  0.47290  0.40130  1.0000 -0.0706189241
C   C20       1.0  0.38590  0.52710  0.90130  1.0000 -0.0706189241
C   C21       1.0  0.38590  0.97290  0.90130  1.0000 -0.0706189241
C   C22       1.0  0.11410  0.02710  0.40130  1.0000 -0.0706189241
C   C23       1.0  0.88590  0.52710  0.59870  1.0000 -0.0706189241
C   C24       1.0  0.61410  0.47290  0.09870  1.0000 -0.0706189241
C   C25       1.0  0.72330  0.00770  0.08240  1.0000 -0.0503516722
C   C26       1.0  0.77670  0.99230  0.58240  1.0000 -0.0503516722
C   C27       1.0  0.22330  0.49230  0.41760  1.0000 -0.0503516722
C   C28       1.0  0.27670  0.50770  0.91760  1.0000 -0.0503516722
C   C29       1.0  0.27670  0.99230  0.91760  1.0000 -0.0503516722
C   C30       1.0  0.22330  0.00770  0.41760  1.0000 -0.0503516722
C   C31       1.0  0.77670  0.50770  0.58240  1.0000 -0.0503516722
C   C32       1.0  0.72330  0.49230  0.08240  1.0000 -0.0503516722
C   C33       1.0  0.74840  0.98550  0.02140  1.0000 0.5662664246
C   C34       1.0  0.75160  0.01450  0.52140  1.0000 0.5662664246
C   C35       1.0  0.24840  0.51450  0.47860  1.0000 0.5662664246
C   C36       1.0  0.25160  0.48550  0.97860  1.0000 0.5662664246
C   C37       1.0  0.25160  0.01450  0.97860  1.0000 0.5662664246
C   C38       1.0  0.24840  0.98550  0.47860  1.0000 0.5662664246
C   C39       1.0  0.75160  0.48550  0.52140  1.0000 0.5662664246
C   C40       1.0  0.74840  0.51450  0.02140  1.0000 0.5662664246
C   C41       1.0  0.81240  0.01240  0.12470  1.0000 -0.000831924
C   C42       1.0  0.68760  0.98760  0.62470  1.0000 -0.000831924
C   C43       1.0  0.31240  0.48760  0.37530  1.0000 -0.000831924
C   C44       1.0  0.18760  0.51240  0.87530  1.0000 -0.000831924
C   C45       1.0  0.18760  0.98760  0.87530  1.0000 -0.000831924
C   C46       1.0  0.31240  0.01240  0.37530  1.0000 -0.000831924
C   C47       1.0  0.68760  0.51240  0.62470  1.0000 -0.000831924
C   C48       1.0  0.81240  0.48760  0.12470  1.0000 -0.000831924
C   C49       1.0  0.93160  0.98360  0.11400  1.0000 0.6103814614
C   C50       1.0  0.56840  0.01640  0.61400  1.0000 0.6103814614
C   C51       1.0  0.43160  0.51640  0.38600  1.0000 0.6103814614
C   C52       1.0  0.06840  0.48360  0.88600  1.0000 0.6103814614
C   C53       1.0  0.06840  0.01640  0.88600  1.0000 0.6103814614
C   C54       1.0  0.43160  0.98360  0.38600  1.0000 0.6103814614
C   C55       1.0  0.56840  0.48360  0.61400  1.0000 0.6103814614
C   C56       1.0  0.93160  0.51640  0.11400  1.0000 0.6103814614
C   C57       1.0  0.78640  0.03980  0.18040  1.0000 -0.1112785268
C   C58       1.0  0.71360  0.96020  0.68040  1.0000 -0.1112785268
C   C59       1.0  0.28640  0.46020  0.31960  1.0000 -0.1112785268
C   C60       1.0  0.21360  0.53980  0.81960  1.0000 -0.1112785268
C   C61       1.0  0.21360  0.96020  0.81960  1.0000 -0.1112785268
C   C62       1.0  0.28640  0.03980  0.31960  1.0000 -0.1112785268
C   C63       1.0  0.71360  0.53980  0.68040  1.0000 -0.1112785268
C   C64       1.0  0.78640  0.46020  0.18040  1.0000 -0.1112785268
C   C65       1.0  0.67490  0.06230  0.19560  1.0000 0.0049281099
C   C66       1.0  0.82510  0.93770  0.69560  1.0000 0.0049281099
C   C67       1.0  0.17490  0.43770  0.30440  1.0000 0.0049281099
C   C68       1.0  0.32510  0.56230  0.80440  1.0000 0.0054430456
C   C69       1.0  0.32510  0.93770  0.80440  1.0000 0.0049281099
C   C70       1.0  0.17490  0.06230  0.30440  1.0000 0.0049281099
C   C71       1.0  0.82510  0.56230  0.69560  1.0000 0.0049281099
C   C72       1.0  0.67490  0.43770  0.19560  1.0000 0.0049281099
C   C73       1.0  0.65780  0.08960  0.25860  1.0000 0.6379695457
C   C74       1.0  0.84220  0.91040  0.75860  1.0000 0.6379695457
C   C75       1.0  0.15780  0.41040  0.24140  1.0000 0.6379695457
C   C76       1.0  0.34220  0.58960  0.74140  1.0000 0.6379695457
C   C77       1.0  0.34220  0.91040  0.74140  1.0000 0.6379695457
C   C78       1.0  0.15780  0.08960  0.24140  1.0000 0.6379695457
C   C79       1.0  0.84220  0.58960  0.75860  1.0000 0.6379695457
C   C80       1.0  0.65780  0.41040  0.25860  1.0000 0.6379695457
O   O1        1.0  0.56400  0.25000  0.15940  1.0000 -0.638444655
O   O2        1.0  0.93600  0.75000  0.65940  1.0000 -0.638444655
O   O3        1.0  0.06400  0.25000  0.34060  1.0000 -0.638444655
O   O4        1.0  0.43600  0.75000  0.84060  1.0000 -0.638444655
O   O5        1.0  0.41680  0.25000  0.29410  1.0000 -0.5980416763
O   O6        1.0  0.08320  0.75000  0.79410  1.0000 -0.5980416763
O   O7        1.0  0.91680  0.25000  0.20590  1.0000 -0.5980416763
O   O8        1.0  0.58320  0.75000  0.70590  1.0000 -0.5980416763
O   O9        1.0  0.20650  0.14170  0.09390  1.0000 -0.5778177012
O   O10       1.0  0.29350  0.85830  0.59390  1.0000 -0.5778177012
O   O11       1.0  0.70650  0.35830  0.40610  1.0000 -0.5778177012
O   O12       1.0  0.79350  0.64170  0.90610  1.0000 -0.5778177012
O   O13       1.0  0.79350  0.85830  0.90610  1.0000 -0.5778177012
O   O14       1.0  0.70650  0.14170  0.40610  1.0000 -0.5778177012
O   O15       1.0  0.29350  0.64170  0.59390  1.0000 -0.5778177012
O   O16       1.0  0.20650  0.35830  0.09390  1.0000 -0.5778177012
O   O17       1.0  0.20770  0.92980  0.10480  1.0000 -0.5633929641
O   O18       1.0  0.29230  0.07020  0.60480  1.0000 -0.5633929641
O   O19       1.0  0.70770  0.57020  0.39520  1.0000 -0.5633929641
O   O20       1.0  0.79230  0.42980  0.89520  1.0000 -0.5700705755
O   O21       1.0  0.79230  0.07020  0.89520  1.0000 -0.5633929641
O   O22       1.0  0.70770  0.92980  0.39520  1.0000 -0.5633929641
O   O23       1.0  0.29230  0.42980  0.60480  1.0000 -0.5633929641
O   O24       1.0  0.20770  0.57020  0.10480  1.0000 -0.5700705755
O   O25       1.0  0.63500  0.16160  0.26910  1.0000 -0.5524943996
O   O26       1.0  0.86500  0.83840  0.76910  1.0000 -0.5524943996
O   O27       1.0  0.13500  0.33840  0.23090  1.0000 -0.5524943996
O   O28       1.0  0.36500  0.66160  0.73090  1.0000 -0.5524943996
O   O29       1.0  0.36500  0.83840  0.73090  1.0000 -0.5524943996
O   O30       1.0  0.13500  0.16160  0.23090  1.0000 -0.5524943996
O   O31       1.0  0.86500  0.66160  0.76910  1.0000 -0.5524943996
O   O32       1.0  0.63500  0.33840  0.26910  1.0000 -0.5524943996
O   O33       1.0  0.67530  0.03690  0.29680  1.0000 -0.5700705755
O   O34       1.0  0.82470  0.96310  0.79680  1.0000 -0.5700705755
O   O35       1.0  0.17530  0.46310  0.20320  1.0000 -0.5700705755
O   O36       1.0  0.32470  0.53690  0.70320  1.0000 -0.5700705755
O   O37       1.0  0.32470  0.96310  0.70320  1.0000 -0.5700705755
O   O38       1.0  0.17530  0.03690  0.20320  1.0000 -0.5700705755
O   O39       1.0  0.82470  0.53690  0.79680  1.0000 -0.5700705755
O   O40       1.0  0.67530  0.46310  0.29680  1.0000 -0.5700705755
O   O41       1.0  0.43840  0.11420  0.21110  1.0000 -0.5912685732
O   O42       1.0  0.06160  0.88580  0.71110  1.0000 -0.5912685732
O   O43       1.0  0.93840  0.38580  0.28890  1.0000 -0.5912685732
O   O44       1.0  0.56160  0.61420  0.78890  1.0000 -0.5912685732
O   O45       1.0  0.56160  0.88580  0.78890  1.0000 -0.5912685732
O   O46       1.0  0.93840  0.11420  0.28890  1.0000 -0.5912685732
O   O47       1.0  0.06160  0.61420  0.71110  1.0000 -0.5912685732
O   O48       1.0  0.43840  0.38580  0.21110  1.0000 -0.5912685732
O   O49       1.0  0.39130  0.03490  0.13640  1.0000 -0.5633929641
O   O50       1.0  0.10870  0.96510  0.63640  1.0000 -0.5633929641
O   O51       1.0  0.89130  0.46510  0.36360  1.0000 -0.5633929641
O   O52       1.0  0.60870  0.53490  0.86360  1.0000 -0.5633929641
O   O53       1.0  0.60870  0.96510  0.86360  1.0000 -0.5633929641
O   O54       1.0  0.89130  0.03490  0.36360  1.0000 -0.5633929641
O   O55       1.0  0.10870  0.53490  0.63640  1.0000 -0.5633929641
O   O56       1.0  0.39130  0.46510  0.13640  1.0000 -0.5633929641
O   O57       1.0  0.66630  0.97850  0.98460  1.0000 -0.534081694
O   O58       1.0  0.83370  0.02150  0.48460  1.0000 -0.534081694
O   O59       1.0  0.16630  0.52150  0.51540  1.0000 -0.534081694
O   O60       1.0  0.33370  0.47850  0.01540  1.0000 -0.534081694
O   O61       1.0  0.33370  0.02150  0.01540  1.0000 -0.534081694
O   O62       1.0  0.16630  0.97850  0.51540  1.0000 -0.534081694
O   O63       1.0  0.83370  0.47850  0.48460  1.0000 -0.534081694
O   O64       1.0  0.66630  0.52150  0.98460  1.0000 -0.534081694
O   O65       1.0  0.85060  0.97710  0.00310  1.0000 -0.534081694
O   O66       1.0  0.64940  0.02290  0.50310  1.0000 -0.534081694
O   O67       1.0  0.35060  0.52290  0.49690  1.0000 -0.534081694
O   O68       1.0  0.14940  0.47710  0.99690  1.0000 -0.534081694
O   O69       1.0  0.14940  0.02290  0.99690  1.0000 -0.534081694
O   O70       1.0  0.35060  0.97710  0.49690  1.0000 -0.534081694
O   O71       1.0  0.64940  0.47710  0.50310  1.0000 -0.534081694
O   O72       1.0  0.85060  0.52290  0.00310  1.0000 -0.534081694
O   O73       1.0  0.00890  0.03700  0.10560  1.0000 -0.5912685732
O   O74       1.0  0.49110  0.96300  0.60560  1.0000 -0.5912685732
O   O75       1.0  0.50890  0.46300  0.39440  1.0000 -0.5912685732
O   O76       1.0  0.99110  0.53700  0.89440  1.0000 -0.5912685732
O   O77       1.0  0.99110  0.96300  0.89440  1.0000 -0.5912685732
O   O78       1.0  0.50890  0.03700  0.39440  1.0000 -0.5912685732
O   O79       1.0  0.49110  0.53700  0.60560  1.0000 -0.5912685732
O   O80       1.0  0.00890  0.46300  0.10560  1.0000 -0.5912685732
O   O81       1.0  0.94940  0.91050  0.11800  1.0000 -0.3838489283
O   O82       1.0  0.55060  0.08950  0.61800  1.0000 -0.3851262856
O   O83       1.0  0.44940  0.58950  0.38200  1.0000 -0.3851262856
O   O84       1.0  0.05060  0.41050  0.88200  1.0000 -0.3851262856
O   O85       1.0  0.05060  0.08950  0.88200  1.0000 -0.3838489283
O   O86       1.0  0.44940  0.91050  0.38200  1.0000 -0.3851262856
O   O87       1.0  0.55060  0.41050  0.61800  1.0000 -0.3851262856
O   O88       1.0  0.94940  0.58950  0.11800  1.0000 -0.3851262856
O   O89       1.0  0.31440  0.25000  0.17290  1.0000 0.122139918
O   O90       1.0  0.18560  0.75000  0.67290  1.0000 0.122139918
O   O91       1.0  0.81440  0.25000  0.32710  1.0000 0.1263700497
O   O92       1.0  0.68560  0.75000  0.82710  1.0000 0.122139918
