# DDEC6 charges by PACMAN v1.1 (https://github.com/mtap-research/PACMAN-charge/)
data_2015[Cd][nan]3[FSR]17
_chemical_formula_sum              "Cd4 H32 C56 N32 O24"
_cell_length_a       9.376
_cell_length_b       14.919
_cell_length_c       19.138
_cell_angle_alpha    90
_cell_angle_beta     90
_cell_angle_gamma    90

_symmetry_space_group_name_H-M    "P 1"
_symmetry_Int_Tables_number       1

loop_
  _symmetry_equiv_pos_as_xyz
  'x, y, z'

loop_
  _atom_site_type_symbol
  _atom_site_label
  _atom_site_symmetry_multiplicity
  _atom_site_fract_x
  _atom_site_fract_y
  _atom_site_fract_z
  _atom_site_occupancy
  _atom_site_charge
Cd  Cd1       1.0  0.19059  0.00000  0.25000  1.0000 0.8458008058
Cd  Cd2       1.0  0.30941  0.50000  0.75000  1.0000 0.8458008058
Cd  Cd3       1.0  0.80941  0.00000  0.75000  1.0000 0.8458008058
Cd  Cd4       1.0  0.69059  0.50000  0.25000  1.0000 0.8458008058
H   H1        1.0  0.88200  0.71280  0.26640  1.0000 0.1391445584
H   H2        1.0  0.61800  0.78720  0.76640  1.0000 0.1391445584
H   H3        1.0  0.61800  0.21280  0.73360  1.0000 0.1391445584
H   H4        1.0  0.88200  0.28720  0.23360  1.0000 0.1391445584
H   H5        1.0  0.11800  0.28720  0.73360  1.0000 0.1391445584
H   H6        1.0  0.38200  0.21280  0.23360  1.0000 0.1391445584
H   H7        1.0  0.38200  0.78720  0.26640  1.0000 0.1391445584
H   H8        1.0  0.11800  0.71280  0.76640  1.0000 0.1391445584
H   H9        1.0  0.10120  0.87470  0.39080  1.0000 0.1308128871
H   H10       1.0  0.39880  0.62530  0.89080  1.0000 0.1308128871
H   H11       1.0  0.39880  0.37470  0.60920  1.0000 0.1308128871
H   H12       1.0  0.10120  0.12530  0.10920  1.0000 0.1308128871
H   H13       1.0  0.89880  0.12530  0.60920  1.0000 0.1308128871
H   H14       1.0  0.60120  0.37470  0.10920  1.0000 0.1308128871
H   H15       1.0  0.60120  0.62530  0.39080  1.0000 0.1308128871
H   H16       1.0  0.89880  0.87470  0.89080  1.0000 0.1308128871
H   H17       1.0  0.90320  0.71700  0.43700  1.0000 0.286082495
H   H18       1.0  0.59680  0.78300  0.93700  1.0000 0.286082495
H   H19       1.0  0.59680  0.21700  0.56300  1.0000 0.286082495
H   H20       1.0  0.90320  0.28300  0.06300  1.0000 0.286082495
H   H21       1.0  0.09680  0.28300  0.56300  1.0000 0.286082495
H   H22       1.0  0.40320  0.21700  0.06300  1.0000 0.286082495
H   H23       1.0  0.40320  0.78300  0.43700  1.0000 0.286082495
H   H24       1.0  0.09680  0.71700  0.93700  1.0000 0.286082495
H   H25       1.0  0.17230  0.60850  0.52410  1.0000 0.1308128871
H   H26       1.0  0.32770  0.89150  0.02410  1.0000 0.1308128871
H   H27       1.0  0.32770  0.10850  0.47590  1.0000 0.1308128871
H   H28       1.0  0.17230  0.39150  0.97590  1.0000 0.1308128871
H   H29       1.0  0.82770  0.39150  0.47590  1.0000 0.1308128871
H   H30       1.0  0.67230  0.10850  0.97590  1.0000 0.1308128871
H   H31       1.0  0.67230  0.89150  0.52410  1.0000 0.1308128871
H   H32       1.0  0.82770  0.60850  0.02410  1.0000 0.1308128871
C   C1        1.0  0.93600  0.76240  0.28280  1.0000 0.0818541162
C   C2        1.0  0.56400  0.73760  0.78280  1.0000 0.0818541162
C   C3        1.0  0.56400  0.26240  0.71720  1.0000 0.0818541162
C   C4        1.0  0.93600  0.23760  0.21720  1.0000 0.0818541162
C   C5        1.0  0.06400  0.23760  0.71720  1.0000 0.0818541162
C   C6        1.0  0.43600  0.26240  0.21720  1.0000 0.0818541162
C   C7        1.0  0.43600  0.73760  0.28280  1.0000 0.0818541162
C   C8        1.0  0.06400  0.76240  0.78280  1.0000 0.0818541162
C   C9        1.0  0.05540  0.84990  0.35090  1.0000 0.0704741515
C   C10       1.0  0.44460  0.65010  0.85090  1.0000 0.0704741515
C   C11       1.0  0.44460  0.34990  0.64910  1.0000 0.0704741515
C   C12       1.0  0.05540  0.15010  0.14910  1.0000 0.0704741515
C   C13       1.0  0.94460  0.15010  0.64910  1.0000 0.0704741515
C   C14       1.0  0.55540  0.34990  0.14910  1.0000 0.0704741515
C   C15       1.0  0.55540  0.65010  0.35090  1.0000 0.0704741515
C   C16       1.0  0.94460  0.84990  0.85090  1.0000 0.0704741515
C   C17       1.0  0.02710  0.56790  0.45230  1.0000 -0.0291286714
C   C18       1.0  0.47290  0.93210  0.95230  1.0000 -0.0291286714
C   C19       1.0  0.47290  0.06790  0.54770  1.0000 -0.0291286714
C   C20       1.0  0.02710  0.43210  0.04770  1.0000 -0.0291286714
C   C21       1.0  0.97290  0.43210  0.54770  1.0000 -0.0291286714
C   C22       1.0  0.52710  0.06790  0.04770  1.0000 -0.0291286714
C   C23       1.0  0.52710  0.93210  0.45230  1.0000 -0.0291286714
C   C24       1.0  0.97290  0.56790  0.95230  1.0000 -0.0291286714
C   C25       1.0  0.06270  0.64240  0.40230  1.0000 0.4640228339
C   C26       1.0  0.43730  0.85760  0.90230  1.0000 0.4640228339
C   C27       1.0  0.43730  0.14240  0.59770  1.0000 0.4640228339
C   C28       1.0  0.06270  0.35760  0.09770  1.0000 0.4640228339
C   C29       1.0  0.93730  0.35760  0.59770  1.0000 0.4640228339
C   C30       1.0  0.56270  0.14240  0.09770  1.0000 0.4640228339
C   C31       1.0  0.56270  0.85760  0.40230  1.0000 0.4640228339
C   C32       1.0  0.93730  0.64240  0.90230  1.0000 0.4640228339
C   C33       1.0  0.92460  0.50280  0.43720  1.0000 -0.0200806011
C   C34       1.0  0.57540  0.99720  0.93720  1.0000 -0.0200806011
C   C35       1.0  0.57540  0.00280  0.56280  1.0000 -0.0200806011
C   C36       1.0  0.92460  0.49720  0.06280  1.0000 -0.0200806011
C   C37       1.0  0.07540  0.49720  0.56280  1.0000 -0.0200806011
C   C38       1.0  0.42460  0.00280  0.06280  1.0000 -0.0200806011
C   C39       1.0  0.42460  0.99720  0.43720  1.0000 -0.0200806011
C   C40       1.0  0.07540  0.50280  0.93720  1.0000 -0.0200806011
C   C41       1.0  0.84310  0.50180  0.36910  1.0000 0.5383017547
C   C42       1.0  0.65690  0.99820  0.86910  1.0000 0.5383017547
C   C43       1.0  0.65690  0.00180  0.63090  1.0000 0.5383017547
C   C44       1.0  0.84310  0.49820  0.13090  1.0000 0.5383017547
C   C45       1.0  0.15690  0.49820  0.63090  1.0000 0.5383017547
C   C46       1.0  0.34310  0.00180  0.13090  1.0000 0.5383017547
C   C47       1.0  0.34310  0.99820  0.36910  1.0000 0.5383017547
C   C48       1.0  0.15690  0.50180  0.86910  1.0000 0.5383017547
C   C49       1.0  0.10190  0.56440  0.51440  1.0000 -0.1299126409
C   C50       1.0  0.39810  0.93560  0.01440  1.0000 -0.1299126409
C   C51       1.0  0.39810  0.06440  0.48560  1.0000 -0.1299126409
C   C52       1.0  0.10190  0.43560  0.98560  1.0000 -0.1299126409
C   C53       1.0  0.89810  0.43560  0.48560  1.0000 -0.1299126409
C   C54       1.0  0.60190  0.06440  0.98560  1.0000 -0.1299126409
C   C55       1.0  0.60190  0.93560  0.51440  1.0000 -0.1299126409
C   C56       1.0  0.89810  0.56440  0.01440  1.0000 -0.1299126409
N   N1        1.0  0.97880  0.82890  0.24410  1.0000 -0.1722948178
N   N2        1.0  0.52120  0.67110  0.74410  1.0000 -0.1722948178
N   N3        1.0  0.52120  0.32890  0.75590  1.0000 -0.1722948178
N   N4        1.0  0.97880  0.17110  0.25590  1.0000 -0.1722948178
N   N5        1.0  0.02120  0.17110  0.75590  1.0000 -0.1722948178
N   N6        1.0  0.47880  0.32890  0.25590  1.0000 -0.1722948178
N   N7        1.0  0.47880  0.67110  0.24410  1.0000 -0.1722948178
N   N8        1.0  0.02120  0.82890  0.74410  1.0000 -0.1722948178
N   N9        1.0  0.05610  0.88440  0.28820  1.0000 -0.183136981
N   N10       1.0  0.44390  0.61560  0.78820  1.0000 -0.183136981
N   N11       1.0  0.44390  0.38440  0.71180  1.0000 -0.183136981
N   N12       1.0  0.05610  0.11560  0.21180  1.0000 -0.183136981
N   N13       1.0  0.94390  0.11560  0.71180  1.0000 -0.183136981
N   N14       1.0  0.55610  0.38440  0.21180  1.0000 -0.183136981
N   N15       1.0  0.55610  0.61560  0.28820  1.0000 -0.183136981
N   N16       1.0  0.94390  0.88440  0.78820  1.0000 -0.183136981
N   N17       1.0  0.97940  0.77380  0.34990  1.0000 0.1391445584
N   N18       1.0  0.52060  0.72620  0.84990  1.0000 0.1391445584
N   N19       1.0  0.52060  0.27380  0.65010  1.0000 0.1391445584
N   N20       1.0  0.97940  0.22620  0.15010  1.0000 0.1391445584
N   N21       1.0  0.02060  0.22620  0.65010  1.0000 0.1391445584
N   N22       1.0  0.47940  0.27380  0.15010  1.0000 0.1391445584
N   N23       1.0  0.47940  0.72620  0.34990  1.0000 0.1391445584
N   N24       1.0  0.02060  0.77380  0.84990  1.0000 0.1391445584
N   N25       1.0  0.96780  0.71190  0.40390  1.0000 -0.3489277623
N   N26       1.0  0.53220  0.78810  0.90390  1.0000 -0.3489277623
N   N27       1.0  0.53220  0.21190  0.59610  1.0000 -0.3489277623
N   N28       1.0  0.96780  0.28810  0.09610  1.0000 -0.3489277623
N   N29       1.0  0.03220  0.28810  0.59610  1.0000 -0.3489277623
N   N30       1.0  0.46780  0.21190  0.09610  1.0000 -0.3489277623
N   N31       1.0  0.46780  0.78810  0.40390  1.0000 -0.3489277623
N   N32       1.0  0.03220  0.71190  0.90390  1.0000 -0.3489277623
O   O1        1.0  0.17120  0.64440  0.36720  1.0000 -0.4593714289
O   O2        1.0  0.32880  0.85560  0.86720  1.0000 -0.4593714289
O   O3        1.0  0.32880  0.14440  0.63280  1.0000 -0.4593714289
O   O4        1.0  0.17120  0.35560  0.13280  1.0000 -0.4593714289
O   O5        1.0  0.82880  0.35560  0.63280  1.0000 -0.4593714289
O   O6        1.0  0.67120  0.14440  0.13280  1.0000 -0.4593714289
O   O7        1.0  0.67120  0.85560  0.36720  1.0000 -0.4593714289
O   O8        1.0  0.82880  0.64440  0.86720  1.0000 -0.4593714289
O   O9        1.0  0.87570  0.55840  0.32300  1.0000 -0.5393098108
O   O10       1.0  0.62430  0.94160  0.82300  1.0000 -0.5393098108
O   O11       1.0  0.62430  0.05840  0.67700  1.0000 -0.5393098108
O   O12       1.0  0.87570  0.44160  0.17700  1.0000 -0.5393098108
O   O13       1.0  0.12430  0.44160  0.67700  1.0000 -0.5393098108
O   O14       1.0  0.37570  0.05840  0.17700  1.0000 -0.5393098108
O   O15       1.0  0.37570  0.94160  0.32300  1.0000 -0.5393098108
O   O16       1.0  0.12430  0.55840  0.82300  1.0000 -0.5393098108
O   O17       1.0  0.74500  0.44560  0.36070  1.0000 -0.521387931
O   O18       1.0  0.75500  0.05440  0.86070  1.0000 -0.521387931
O   O19       1.0  0.75500  0.94560  0.63930  1.0000 -0.521387931
O   O20       1.0  0.74500  0.55440  0.13930  1.0000 -0.521387931
O   O21       1.0  0.25500  0.55440  0.63930  1.0000 -0.521387931
O   O22       1.0  0.24500  0.94560  0.13930  1.0000 -0.521387931
O   O23       1.0  0.24500  0.05440  0.36070  1.0000 -0.521387931
O   O24       1.0  0.25500  0.44560  0.86070  1.0000 -0.521387931
