# DDEC6 charges by PACMAN v1.1 (https://github.com/mtap-research/PACMAN-charge/)
data_2015[Zn][pcu]3[FSR]11
_chemical_formula_sum              "Zn16 H104 C192 N16 O72"
_cell_length_a       13.87
_cell_length_b       19.023
_cell_length_c       19.238
_cell_angle_alpha    90
_cell_angle_beta     90
_cell_angle_gamma    90

_symmetry_space_group_name_H-M    "P 1"
_symmetry_Int_Tables_number       1

loop_
  _symmetry_equiv_pos_as_xyz
  'x, y, z'

loop_
  _atom_site_type_symbol
  _atom_site_label
  _atom_site_symmetry_multiplicity
  _atom_site_fract_x
  _atom_site_fract_y
  _atom_site_fract_z
  _atom_site_occupancy
  _atom_site_charge
Zn  Zn1       1.0  0.40436  0.48379  0.95568  1.0000 0.867737073
Zn  Zn2       1.0  0.59564  0.98379  0.54432  1.0000 0.867737073
Zn  Zn3       1.0  0.59564  0.51621  0.04432  1.0000 0.867737073
Zn  Zn4       1.0  0.40436  0.01621  0.45568  1.0000 0.867737073
Zn  Zn5       1.0  0.36452  0.60322  0.06744  1.0000 0.9426557454
Zn  Zn6       1.0  0.63548  0.10322  0.43256  1.0000 0.9426557454
Zn  Zn7       1.0  0.63548  0.39678  0.93256  1.0000 0.9426557454
Zn  Zn8       1.0  0.36452  0.89678  0.56744  1.0000 0.9426557454
Zn  Zn9       1.0  0.09564  0.51621  0.45568  1.0000 0.867737073
Zn  Zn10      1.0  0.90436  0.01621  0.04432  1.0000 0.867737073
Zn  Zn11      1.0  0.90436  0.48379  0.54432  1.0000 0.867737073
Zn  Zn12      1.0  0.09564  0.98379  0.95568  1.0000 0.867737073
Zn  Zn13      1.0  0.13548  0.39678  0.56744  1.0000 0.9426557454
Zn  Zn14      1.0  0.86452  0.89678  0.93256  1.0000 0.9426557454
Zn  Zn15      1.0  0.86452  0.60322  0.43256  1.0000 0.9426557454
Zn  Zn16      1.0  0.13548  0.10322  0.06744  1.0000 0.9426557454
H   H1        1.0  0.38350  0.36660  0.07620  1.0000 0.1208861321
H   H2        1.0  0.61650  0.86660  0.42380  1.0000 0.1208861321
H   H3        1.0  0.61650  0.63340  0.92380  1.0000 0.1208861321
H   H4        1.0  0.38350  0.13340  0.57620  1.0000 0.1208861321
H   H5        1.0  0.35490  0.24780  0.08830  1.0000 0.1462153323
H   H6        1.0  0.64510  0.74780  0.41170  1.0000 0.1462153323
H   H7        1.0  0.64510  0.75220  0.91170  1.0000 0.1462153323
H   H8        1.0  0.35490  0.25220  0.58830  1.0000 0.1462153323
H   H9        1.0  0.34660  0.17970  0.98830  1.0000 0.1324357321
H   H10       1.0  0.65340  0.67970  0.51170  1.0000 0.1324357321
H   H11       1.0  0.65340  0.82030  0.01170  1.0000 0.1324357321
H   H12       1.0  0.34660  0.32030  0.48830  1.0000 0.1324357321
H   H13       1.0  0.34840  0.35020  0.68130  1.0000 0.1324357321
H   H14       1.0  0.65160  0.85020  0.81870  1.0000 0.1324357321
H   H15       1.0  0.65160  0.64980  0.31870  1.0000 0.1324357321
H   H16       1.0  0.34840  0.14980  0.18130  1.0000 0.1324357321
H   H17       1.0  0.35560  0.47080  0.68790  1.0000 0.139096919
H   H18       1.0  0.64440  0.97080  0.81210  1.0000 0.139096919
H   H19       1.0  0.64440  0.52920  0.31210  1.0000 0.139096919
H   H20       1.0  0.35560  0.02920  0.18790  1.0000 0.139096919
H   H21       1.0  0.37730  0.52360  0.79450  1.0000 0.1208861321
H   H22       1.0  0.62270  0.02360  0.70550  1.0000 0.1208861321
H   H23       1.0  0.62270  0.47640  0.20550  1.0000 0.1208861321
H   H24       1.0  0.37730  0.97640  0.29450  1.0000 0.1208861321
H   H25       1.0  0.42330  0.86440  0.28840  1.0000 0.1148320544
H   H26       1.0  0.57670  0.36440  0.21160  1.0000 0.1148320544
H   H27       1.0  0.57670  0.13560  0.71160  1.0000 0.1148320544
H   H28       1.0  0.42330  0.63560  0.78840  1.0000 0.1148320544
H   H29       1.0  0.41130  0.78170  0.20050  1.0000 0.1208861321
H   H30       1.0  0.58870  0.28170  0.29950  1.0000 0.1208861321
H   H31       1.0  0.58870  0.21830  0.79950  1.0000 0.1208861321
H   H32       1.0  0.41130  0.71830  0.70050  1.0000 0.1208861321
H   H33       1.0  0.37630  0.63190  0.34360  1.0000 0.1148320544
H   H34       1.0  0.62370  0.13190  0.15640  1.0000 0.1148320544
H   H35       1.0  0.62370  0.36810  0.65640  1.0000 0.1148320544
H   H36       1.0  0.37630  0.86810  0.84360  1.0000 0.1148320544
H   H37       1.0  0.38070  0.71430  0.43130  1.0000 0.1208861321
H   H38       1.0  0.61930  0.21430  0.06870  1.0000 0.1208861321
H   H39       1.0  0.61930  0.28570  0.56870  1.0000 0.1208861321
H   H40       1.0  0.38070  0.78570  0.93130  1.0000 0.1208861321
H   H41       1.0  0.11180  0.43220  0.94320  1.0000 0.1208861321
H   H42       1.0  0.88820  0.93220  0.55680  1.0000 0.1208861321
H   H43       1.0  0.88820  0.56780  0.05680  1.0000 0.1208861321
H   H44       1.0  0.11180  0.06780  0.44320  1.0000 0.1208861321
H   H45       1.0  0.95140  0.40940  0.92920  1.0000 0.1208861321
H   H46       1.0  0.04860  0.90940  0.57080  1.0000 0.1208861321
H   H47       1.0  0.04860  0.59060  0.07080  1.0000 0.1208861321
H   H48       1.0  0.95140  0.09060  0.42920  1.0000 0.1208861321
H   H49       1.0  0.42510  0.48380  0.09070  1.0000 0.382188234
H   H50       1.0  0.57490  0.98380  0.40930  1.0000 0.382188234
H   H51       1.0  0.57490  0.51620  0.90930  1.0000 0.382188234
H   H52       1.0  0.42510  0.01620  0.59070  1.0000 0.382188234
H   H53       1.0  0.11650  0.63340  0.57620  1.0000 0.1208861321
H   H54       1.0  0.88350  0.13340  0.92380  1.0000 0.1208861321
H   H55       1.0  0.88350  0.36660  0.42380  1.0000 0.1208861321
H   H56       1.0  0.11650  0.86660  0.07620  1.0000 0.1208861321
H   H57       1.0  0.14510  0.75220  0.58830  1.0000 0.1462153323
H   H58       1.0  0.85490  0.25220  0.91170  1.0000 0.1462153323
H   H59       1.0  0.85490  0.24780  0.41170  1.0000 0.1462153323
H   H60       1.0  0.14510  0.74780  0.08830  1.0000 0.1462153323
H   H61       1.0  0.15340  0.82030  0.48830  1.0000 0.1324357321
H   H62       1.0  0.84660  0.32030  0.01170  1.0000 0.1324357321
H   H63       1.0  0.84660  0.17970  0.51170  1.0000 0.1324357321
H   H64       1.0  0.15340  0.67970  0.98830  1.0000 0.1324357321
H   H65       1.0  0.15160  0.64980  0.18130  1.0000 0.1324357321
H   H66       1.0  0.84840  0.14980  0.31870  1.0000 0.1324357321
H   H67       1.0  0.84840  0.35020  0.81870  1.0000 0.1324357321
H   H68       1.0  0.15160  0.85020  0.68130  1.0000 0.1324357321
H   H69       1.0  0.14440  0.52920  0.18790  1.0000 0.139096919
H   H70       1.0  0.85560  0.02920  0.31210  1.0000 0.139096919
H   H71       1.0  0.85560  0.47080  0.81210  1.0000 0.139096919
H   H72       1.0  0.14440  0.97080  0.68790  1.0000 0.139096919
H   H73       1.0  0.12270  0.47640  0.29450  1.0000 0.1208861321
H   H74       1.0  0.87730  0.97640  0.20550  1.0000 0.1208861321
H   H75       1.0  0.87730  0.52360  0.70550  1.0000 0.1208861321
H   H76       1.0  0.12270  0.02360  0.79450  1.0000 0.1208861321
H   H77       1.0  0.07670  0.13560  0.78840  1.0000 0.1148320544
H   H78       1.0  0.92330  0.63560  0.71160  1.0000 0.1148320544
H   H79       1.0  0.92330  0.86440  0.21160  1.0000 0.1208861321
H   H80       1.0  0.07670  0.36440  0.28840  1.0000 0.1148320544
H   H81       1.0  0.08870  0.21830  0.70050  1.0000 0.1208861321
H   H82       1.0  0.91130  0.71830  0.79950  1.0000 0.1208861321
H   H83       1.0  0.91130  0.78170  0.29950  1.0000 0.1208861321
H   H84       1.0  0.08870  0.28170  0.20050  1.0000 0.1208861321
H   H85       1.0  0.12370  0.36810  0.84360  1.0000 0.1148320544
H   H86       1.0  0.87630  0.86810  0.65640  1.0000 0.1148320544
H   H87       1.0  0.87630  0.63190  0.15640  1.0000 0.1148320544
H   H88       1.0  0.12370  0.13190  0.34360  1.0000 0.1148320544
H   H89       1.0  0.11930  0.28570  0.93130  1.0000 0.1208861321
H   H90       1.0  0.88070  0.78570  0.56870  1.0000 0.1208861321
H   H91       1.0  0.88070  0.71430  0.06870  1.0000 0.1208861321
H   H92       1.0  0.11930  0.21430  0.43130  1.0000 0.1208861321
H   H93       1.0  0.38820  0.56780  0.44320  1.0000 0.1208861321
H   H94       1.0  0.61180  0.06780  0.05680  1.0000 0.1208861321
H   H95       1.0  0.61180  0.43220  0.55680  1.0000 0.1208861321
H   H96       1.0  0.38820  0.93220  0.94320  1.0000 0.1208861321
H   H97       1.0  0.54860  0.59060  0.42920  1.0000 0.1208861321
H   H98       1.0  0.45140  0.09060  0.07080  1.0000 0.1208861321
H   H99       1.0  0.45140  0.40940  0.57080  1.0000 0.1208861321
H   H100      1.0  0.54860  0.90940  0.92920  1.0000 0.1208861321
H   H101      1.0  0.07490  0.51620  0.59070  1.0000 0.382188234
H   H102      1.0  0.92510  0.01620  0.90930  1.0000 0.382188234
H   H103      1.0  0.92510  0.48380  0.40930  1.0000 0.382188234
H   H104      1.0  0.07490  0.98380  0.09070  1.0000 0.382188234
C   C1        1.0  0.37730  0.33920  0.03650  1.0000 0.099134428
C   C2        1.0  0.62270  0.83920  0.46350  1.0000 0.099134428
C   C3        1.0  0.62270  0.66080  0.96350  1.0000 0.099134428
C   C4        1.0  0.37730  0.16080  0.53650  1.0000 0.099134428
C   C5        1.0  0.36140  0.26800  0.04450  1.0000 -0.1173316236
C   C6        1.0  0.63860  0.76800  0.45550  1.0000 -0.1173316236
C   C7        1.0  0.63860  0.73200  0.95550  1.0000 -0.1173316236
C   C8        1.0  0.36140  0.23200  0.54450  1.0000 -0.1173316236
C   C9        1.0  0.35560  0.22800  0.98490  1.0000 -0.0321846605
C   C10       1.0  0.64440  0.72800  0.51510  1.0000 -0.0321846605
C   C11       1.0  0.64440  0.77200  0.01510  1.0000 -0.0321846605
C   C12       1.0  0.35560  0.27200  0.48490  1.0000 -0.0321846605
C   C13       1.0  0.36310  0.25880  0.92020  1.0000 -0.0579600637
C   C14       1.0  0.63690  0.75880  0.57980  1.0000 -0.0579600637
C   C15       1.0  0.63690  0.74120  0.07980  1.0000 -0.0579600637
C   C16       1.0  0.36310  0.24120  0.42020  1.0000 -0.0579600637
C   C17       1.0  0.35630  0.21640  0.85410  1.0000 0.2803611267
C   C18       1.0  0.64370  0.71640  0.64590  1.0000 0.2803611267
C   C19       1.0  0.64370  0.78360  0.14590  1.0000 0.2803611267
C   C20       1.0  0.35630  0.28360  0.35410  1.0000 0.2803611267
C   C21       1.0  0.35370  0.25530  0.78380  1.0000 0.2702028486
C   C22       1.0  0.64630  0.75530  0.71620  1.0000 0.2702028486
C   C23       1.0  0.64630  0.74470  0.21620  1.0000 0.2702028486
C   C24       1.0  0.35370  0.24470  0.28380  1.0000 0.2702028486
C   C25       1.0  0.36200  0.33280  0.78580  1.0000 -0.0821829275
C   C26       1.0  0.63800  0.83280  0.71420  1.0000 -0.0821829275
C   C27       1.0  0.63800  0.66720  0.21420  1.0000 -0.0821829275
C   C28       1.0  0.36200  0.16720  0.28580  1.0000 -0.0821829275
C   C29       1.0  0.35580  0.37250  0.72410  1.0000 -0.0321846605
C   C30       1.0  0.64420  0.87250  0.77590  1.0000 -0.0321846605
C   C31       1.0  0.64420  0.62750  0.27590  1.0000 -0.0321846605
C   C32       1.0  0.35580  0.12750  0.22410  1.0000 -0.0321846605
C   C33       1.0  0.36070  0.44350  0.72780  1.0000 -0.0980894381
C   C34       1.0  0.63930  0.94350  0.77220  1.0000 -0.0980894381
C   C35       1.0  0.63930  0.55650  0.27220  1.0000 -0.0980894381
C   C36       1.0  0.36070  0.05650  0.22780  1.0000 -0.0980894381
C   C37       1.0  0.37350  0.47480  0.79260  1.0000 0.1208861321
C   C38       1.0  0.62650  0.97480  0.70740  1.0000 0.1208861321
C   C39       1.0  0.62650  0.52520  0.20740  1.0000 0.1208861321
C   C40       1.0  0.37350  0.02520  0.29260  1.0000 0.1208861321
C   C41       1.0  0.37420  0.36890  0.84890  1.0000 0.1462153323
C   C42       1.0  0.62580  0.86890  0.65110  1.0000 0.1462153323
C   C43       1.0  0.62580  0.63110  0.15110  1.0000 0.1462153323
C   C44       1.0  0.37420  0.13110  0.34890  1.0000 0.1462153323
C   C45       1.0  0.37590  0.33140  0.91610  1.0000 0.1462153323
C   C46       1.0  0.62410  0.83140  0.58390  1.0000 0.1462153323
C   C47       1.0  0.62410  0.66860  0.08390  1.0000 0.1462153323
C   C48       1.0  0.37590  0.16860  0.41610  1.0000 0.1462153323
C   C49       1.0  0.41110  0.81770  0.29950  1.0000 -0.0821829275
C   C50       1.0  0.58890  0.31770  0.20050  1.0000 -0.0821829275
C   C51       1.0  0.58890  0.18230  0.70050  1.0000 -0.0821829275
C   C52       1.0  0.41110  0.68230  0.79950  1.0000 -0.0821829275
C   C53       1.0  0.40570  0.76780  0.24670  1.0000 -0.0980894381
C   C54       1.0  0.59430  0.26780  0.25330  1.0000 -0.0980894381
C   C55       1.0  0.59430  0.23220  0.75330  1.0000 -0.0980894381
C   C56       1.0  0.40570  0.73220  0.74670  1.0000 -0.0980894381
C   C57       1.0  0.39220  0.69810  0.26270  1.0000 -0.0209897943
C   C58       1.0  0.60780  0.19810  0.23730  1.0000 -0.0209897943
C   C59       1.0  0.60780  0.30190  0.73730  1.0000 -0.0209897943
C   C60       1.0  0.39220  0.80190  0.76270  1.0000 -0.0209897943
C   C61       1.0  0.38390  0.67910  0.33230  1.0000 -0.1173316236
C   C62       1.0  0.61610  0.17910  0.16770  1.0000 -0.1173316236
C   C63       1.0  0.61610  0.32090  0.66770  1.0000 -0.1173316236
C   C64       1.0  0.38390  0.82090  0.83230  1.0000 -0.1173316236
C   C65       1.0  0.38670  0.72840  0.38530  1.0000 -0.1173316236
C   C66       1.0  0.61330  0.22840  0.11470  1.0000 -0.1173316236
C   C67       1.0  0.61330  0.27160  0.61470  1.0000 -0.1173316236
C   C68       1.0  0.38670  0.77160  0.88530  1.0000 -0.1173316236
C   C69       1.0  0.39830  0.79860  0.36920  1.0000 -0.0321846605
C   C70       1.0  0.60170  0.29860  0.13080  1.0000 -0.0321846605
C   C71       1.0  0.60170  0.20140  0.63080  1.0000 -0.0321846605
C   C72       1.0  0.39830  0.70140  0.86920  1.0000 -0.0321846605
C   C73       1.0  0.39710  0.85340  0.42580  1.0000 0.5833867672
C   C74       1.0  0.60290  0.35340  0.07420  1.0000 0.5833867672
C   C75       1.0  0.60290  0.14660  0.57420  1.0000 0.5833867672
C   C76       1.0  0.39710  0.64660  0.92580  1.0000 0.5833867672
C   C77       1.0  0.38600  0.64440  0.20510  1.0000 0.5525975856
C   C78       1.0  0.61400  0.14440  0.29490  1.0000 0.5525975856
C   C79       1.0  0.61400  0.35560  0.79490  1.0000 0.5525975856
C   C80       1.0  0.38600  0.85560  0.70510  1.0000 0.5525975856
C   C81       1.0  0.09780  0.51440  0.00840  1.0000 -0.0209897943
C   C82       1.0  0.90220  0.01440  0.49160  1.0000 -0.0209897943
C   C83       1.0  0.90220  0.48560  0.99160  1.0000 -0.0209897943
C   C84       1.0  0.09780  0.98560  0.50840  1.0000 -0.0209897943
C   C85       1.0  0.06670  0.45980  0.96630  1.0000 -0.0935254064
C   C86       1.0  0.93330  0.95980  0.53370  1.0000 -0.0935254064
C   C87       1.0  0.93330  0.54020  0.03370  1.0000 -0.0935254064
C   C88       1.0  0.06670  0.04020  0.46630  1.0000 -0.0935254064
C   C89       1.0  0.97060  0.44600  0.95800  1.0000 -0.0980894381
C   C90       1.0  0.02940  0.94600  0.54200  1.0000 -0.0980894381
C   C91       1.0  0.02940  0.55400  0.04200  1.0000 -0.0980894381
C   C92       1.0  0.97060  0.05400  0.45800  1.0000 -0.0980894381
C   C93       1.0  0.20310  0.52890  0.01510  1.0000 0.5941004786
C   C94       1.0  0.79690  0.02890  0.48490  1.0000 0.5941004786
C   C95       1.0  0.79690  0.47110  0.98490  1.0000 0.5941004786
C   C96       1.0  0.20310  0.97110  0.51510  1.0000 0.5941004786
C   C97       1.0  0.12270  0.66080  0.53650  1.0000 0.099134428
C   C98       1.0  0.87730  0.16080  0.96350  1.0000 0.099134428
C   C99       1.0  0.87730  0.33920  0.46350  1.0000 0.099134428
C   C100      1.0  0.12270  0.83920  0.03650  1.0000 0.099134428
C   C101      1.0  0.13860  0.73200  0.54450  1.0000 -0.1173316236
C   C102      1.0  0.86140  0.23200  0.95550  1.0000 -0.1173316236
C   C103      1.0  0.86140  0.26800  0.45550  1.0000 -0.1173316236
C   C104      1.0  0.13860  0.76800  0.04450  1.0000 -0.1173316236
C   C105      1.0  0.14440  0.77200  0.48490  1.0000 -0.0321846605
C   C106      1.0  0.85560  0.27200  0.01510  1.0000 -0.0321846605
C   C107      1.0  0.85560  0.22800  0.51510  1.0000 -0.0321846605
C   C108      1.0  0.14440  0.72800  0.98490  1.0000 -0.0321846605
C   C109      1.0  0.13690  0.74120  0.42020  1.0000 -0.0579600637
C   C110      1.0  0.86310  0.24120  0.07980  1.0000 -0.0579600637
C   C111      1.0  0.86310  0.25880  0.57980  1.0000 -0.0579600637
C   C112      1.0  0.13690  0.75880  0.92020  1.0000 -0.0579600637
C   C113      1.0  0.14370  0.78360  0.35410  1.0000 0.2803611267
C   C114      1.0  0.85630  0.28360  0.14590  1.0000 0.2803611267
C   C115      1.0  0.85630  0.21640  0.64590  1.0000 0.2803611267
C   C116      1.0  0.14370  0.71640  0.85410  1.0000 0.2803611267
C   C117      1.0  0.14630  0.74470  0.28380  1.0000 0.2702028486
C   C118      1.0  0.85370  0.24470  0.21620  1.0000 0.2702028486
C   C119      1.0  0.85370  0.25530  0.71620  1.0000 0.2702028486
C   C120      1.0  0.14630  0.75530  0.78380  1.0000 0.2702028486
C   C121      1.0  0.13800  0.66720  0.28580  1.0000 -0.0821829275
C   C122      1.0  0.86200  0.16720  0.21420  1.0000 -0.0821829275
C   C123      1.0  0.86200  0.33280  0.71420  1.0000 -0.0821829275
C   C124      1.0  0.13800  0.83280  0.78580  1.0000 -0.0821829275
C   C125      1.0  0.14420  0.62750  0.22410  1.0000 -0.0321846605
C   C126      1.0  0.85580  0.12750  0.27590  1.0000 -0.0321846605
C   C127      1.0  0.85580  0.37250  0.77590  1.0000 -0.0321846605
C   C128      1.0  0.14420  0.87250  0.72410  1.0000 -0.0321846605
C   C129      1.0  0.13930  0.55650  0.22780  1.0000 -0.0980894381
C   C130      1.0  0.86070  0.05650  0.27220  1.0000 -0.0980894381
C   C131      1.0  0.86070  0.44350  0.77220  1.0000 -0.0980894381
C   C132      1.0  0.13930  0.94350  0.72780  1.0000 -0.0980894381
C   C133      1.0  0.12650  0.52520  0.29260  1.0000 0.1208861321
C   C134      1.0  0.87350  0.02520  0.20740  1.0000 0.1208861321
C   C135      1.0  0.87350  0.47480  0.70740  1.0000 0.1208861321
C   C136      1.0  0.12650  0.97480  0.79260  1.0000 0.1208861321
C   C137      1.0  0.12580  0.63110  0.34890  1.0000 0.1462153323
C   C138      1.0  0.87420  0.13110  0.15110  1.0000 0.1462153323
C   C139      1.0  0.87420  0.36890  0.65110  1.0000 0.1462153323
C   C140      1.0  0.12580  0.86890  0.84890  1.0000 0.1462153323
C   C141      1.0  0.12410  0.66860  0.41610  1.0000 0.1462153323
C   C142      1.0  0.87590  0.16860  0.08390  1.0000 0.1462153323
C   C143      1.0  0.87590  0.33140  0.58390  1.0000 0.1462153323
C   C144      1.0  0.12410  0.83140  0.91610  1.0000 0.1462153323
C   C145      1.0  0.08890  0.18230  0.79950  1.0000 -0.0821829275
C   C146      1.0  0.91110  0.68230  0.70050  1.0000 -0.0821829275
C   C147      1.0  0.91110  0.81770  0.20050  1.0000 -0.0821829275
C   C148      1.0  0.08890  0.31770  0.29950  1.0000 -0.0821829275
C   C149      1.0  0.09430  0.23220  0.74670  1.0000 -0.0980894381
C   C150      1.0  0.90570  0.73220  0.75330  1.0000 -0.0980894381
C   C151      1.0  0.90570  0.76780  0.25330  1.0000 -0.0980894381
C   C152      1.0  0.09430  0.26780  0.24670  1.0000 -0.0980894381
C   C153      1.0  0.10780  0.30190  0.76270  1.0000 -0.0209897943
C   C154      1.0  0.89220  0.80190  0.73730  1.0000 -0.0209897943
C   C155      1.0  0.89220  0.69810  0.23730  1.0000 -0.0209897943
C   C156      1.0  0.10780  0.19810  0.26270  1.0000 -0.0209897943
C   C157      1.0  0.11610  0.32090  0.83230  1.0000 -0.1173316236
C   C158      1.0  0.88390  0.82090  0.66770  1.0000 -0.1173316236
C   C159      1.0  0.88390  0.67910  0.16770  1.0000 -0.1173316236
C   C160      1.0  0.11610  0.17910  0.33230  1.0000 -0.1173316236
C   C161      1.0  0.11330  0.27160  0.88530  1.0000 -0.1173316236
C   C162      1.0  0.88670  0.77160  0.61470  1.0000 -0.1173316236
C   C163      1.0  0.88670  0.72840  0.11470  1.0000 -0.1173316236
C   C164      1.0  0.11330  0.22840  0.38530  1.0000 -0.1173316236
C   C165      1.0  0.10170  0.20140  0.86920  1.0000 -0.0321846605
C   C166      1.0  0.89830  0.70140  0.63080  1.0000 -0.0321846605
C   C167      1.0  0.89830  0.79860  0.13080  1.0000 -0.0321846605
C   C168      1.0  0.10170  0.29860  0.36920  1.0000 -0.0321846605
C   C169      1.0  0.10290  0.14660  0.92580  1.0000 0.5833867672
C   C170      1.0  0.89710  0.64660  0.57420  1.0000 0.5833867672
C   C171      1.0  0.89710  0.85340  0.07420  1.0000 0.5833867672
C   C172      1.0  0.10290  0.35340  0.42580  1.0000 0.5833867672
C   C173      1.0  0.11400  0.35560  0.70510  1.0000 0.5525975856
C   C174      1.0  0.88600  0.85560  0.79490  1.0000 0.5525975856
C   C175      1.0  0.88600  0.64440  0.29490  1.0000 0.5525975856
C   C176      1.0  0.11400  0.14440  0.20510  1.0000 0.5525975856
C   C177      1.0  0.40220  0.48560  0.50840  1.0000 -0.0209897943
C   C178      1.0  0.59780  0.98560  0.99160  1.0000 -0.0209897943
C   C179      1.0  0.59780  0.51440  0.49160  1.0000 -0.0209897943
C   C180      1.0  0.40220  0.01440  0.00840  1.0000 -0.0209897943
C   C181      1.0  0.43330  0.54020  0.46630  1.0000 -0.0935254064
C   C182      1.0  0.56670  0.04020  0.03370  1.0000 -0.0935254064
C   C183      1.0  0.56670  0.45980  0.53370  1.0000 -0.0935254064
C   C184      1.0  0.43330  0.95980  0.96630  1.0000 -0.0935254064
C   C185      1.0  0.52940  0.55400  0.45800  1.0000 -0.0980894381
C   C186      1.0  0.47060  0.05400  0.04200  1.0000 -0.0980894381
C   C187      1.0  0.47060  0.44600  0.54200  1.0000 -0.0980894381
C   C188      1.0  0.52940  0.94600  0.95800  1.0000 -0.0980894381
C   C189      1.0  0.29690  0.47110  0.51510  1.0000 0.5941004786
C   C190      1.0  0.70310  0.97110  0.98490  1.0000 0.5941004786
C   C191      1.0  0.70310  0.52890  0.48490  1.0000 0.5941004786
C   C192      1.0  0.29690  0.02890  0.01510  1.0000 0.5941004786
N   N1        1.0  0.38430  0.37090  0.97460  1.0000 -0.2656722073
N   N2        1.0  0.61570  0.87090  0.52540  1.0000 -0.2656722073
N   N3        1.0  0.61570  0.62910  0.02540  1.0000 -0.2656722073
N   N4        1.0  0.38430  0.12910  0.47460  1.0000 -0.2656722073
N   N5        1.0  0.38060  0.43900  0.85250  1.0000 -0.2450830606
N   N6        1.0  0.61940  0.93900  0.64750  1.0000 -0.2450830606
N   N7        1.0  0.61940  0.56100  0.14750  1.0000 -0.2450830606
N   N8        1.0  0.38060  0.06100  0.35250  1.0000 -0.2450830606
N   N9        1.0  0.11570  0.62910  0.47460  1.0000 -0.2656722073
N   N10       1.0  0.88430  0.12910  0.02540  1.0000 -0.2656722073
N   N11       1.0  0.88430  0.37090  0.52540  1.0000 -0.2656722073
N   N12       1.0  0.11570  0.87090  0.97460  1.0000 -0.2656722073
N   N13       1.0  0.11940  0.56100  0.35250  1.0000 -0.2450830606
N   N14       1.0  0.88060  0.06100  0.14750  1.0000 -0.2450830606
N   N15       1.0  0.88060  0.43900  0.64750  1.0000 -0.2450830606
N   N16       1.0  0.11940  0.93900  0.85250  1.0000 -0.2450830606
O   O1        1.0  0.38730  0.66780  0.14310  1.0000 -0.5654673246
O   O2        1.0  0.61270  0.16780  0.35690  1.0000 -0.5654673246
O   O3        1.0  0.61270  0.33220  0.85690  1.0000 -0.5654673246
O   O4        1.0  0.38730  0.83220  0.64310  1.0000 -0.5654673246
O   O5        1.0  0.37940  0.58150  0.22050  1.0000 -0.5477008935
O   O6        1.0  0.62060  0.08150  0.27950  1.0000 -0.5477008935
O   O7        1.0  0.62060  0.41850  0.77950  1.0000 -0.5477008935
O   O8        1.0  0.37940  0.91850  0.72050  1.0000 -0.5477008935
O   O9        1.0  0.38300  0.83270  0.48773  1.0000 -0.5477008935
O   O10       1.0  0.61700  0.33270  0.01227  1.0000 -0.5477008935
O   O11       1.0  0.61700  0.16730  0.51227  1.0000 -0.5477008935
O   O12       1.0  0.38300  0.66730  0.98773  1.0000 -0.5477008935
O   O13       1.0  0.40960  0.91623  0.40803  1.0000 -0.5654673246
O   O14       1.0  0.59040  0.41623  0.09197  1.0000 -0.5654673246
O   O15       1.0  0.59040  0.08377  0.59197  1.0000 -0.5654673246
O   O16       1.0  0.40960  0.58377  0.90803  1.0000 -0.5654673246
O   O17       1.0  0.22800  0.57547  0.05980  1.0000 -0.5633251634
O   O18       1.0  0.77200  0.07547  0.44020  1.0000 -0.5633251634
O   O19       1.0  0.77200  0.42453  0.94020  1.0000 -0.5633251634
O   O20       1.0  0.22800  0.92453  0.55980  1.0000 -0.5633251634
O   O21       1.0  0.25870  0.49420  0.97730  1.0000 -0.5477008935
O   O22       1.0  0.74130  0.99420  0.52270  1.0000 -0.5477008935
O   O23       1.0  0.74130  0.50580  0.02270  1.0000 -0.5477008935
O   O24       1.0  0.25870  0.00580  0.47730  1.0000 -0.5477008935
O   O25       1.0  0.44450  0.51902  0.05627  1.0000 -0.8411718276
O   O26       1.0  0.55550  0.01902  0.44373  1.0000 -0.8411718276
O   O27       1.0  0.55550  0.48098  0.94373  1.0000 -0.8411718276
O   O28       1.0  0.44450  0.98098  0.55627  1.0000 -0.8411718276
O   O29       1.0  0.35040  0.15190  0.85500  1.0000 -0.333750498
O   O30       1.0  0.64960  0.65190  0.64500  1.0000 -0.3369944957
O   O31       1.0  0.64960  0.84810  0.14500  1.0000 -0.3369944957
O   O32       1.0  0.35040  0.34810  0.35500  1.0000 -0.333750498
O   O33       1.0  0.34490  0.22180  0.72900  1.0000 -0.3648421732
O   O34       1.0  0.65510  0.72180  0.77100  1.0000 -0.3667756684
O   O35       1.0  0.65510  0.77820  0.27100  1.0000 -0.3667756684
O   O36       1.0  0.34490  0.27820  0.22900  1.0000 -0.3648421732
O   O37       1.0  0.11270  0.33220  0.64310  1.0000 -0.5654673246
O   O38       1.0  0.88730  0.83220  0.85690  1.0000 -0.5654673246
O   O39       1.0  0.88730  0.66780  0.35690  1.0000 -0.5654673246
O   O40       1.0  0.11270  0.16780  0.14310  1.0000 -0.5654673246
O   O41       1.0  0.12060  0.41850  0.72050  1.0000 -0.5477008935
O   O42       1.0  0.87940  0.91850  0.77950  1.0000 -0.5477008935
O   O43       1.0  0.87940  0.58150  0.27950  1.0000 -0.5477008935
O   O44       1.0  0.12060  0.08150  0.22050  1.0000 -0.5477008935
O   O45       1.0  0.11700  0.16730  0.98773  1.0000 -0.5477008935
O   O46       1.0  0.88300  0.66730  0.51227  1.0000 -0.5477008935
O   O47       1.0  0.88300  0.83270  0.01227  1.0000 -0.5477008935
O   O48       1.0  0.11700  0.33270  0.48773  1.0000 -0.5477008935
O   O49       1.0  0.09040  0.08377  0.90803  1.0000 -0.5654673246
O   O50       1.0  0.90960  0.58377  0.59197  1.0000 -0.5654673246
O   O51       1.0  0.90960  0.91623  0.09197  1.0000 -0.5654673246
O   O52       1.0  0.09040  0.41623  0.40803  1.0000 -0.5654673246
O   O53       1.0  0.27200  0.42453  0.55980  1.0000 -0.5633251634
O   O54       1.0  0.72800  0.92453  0.94020  1.0000 -0.5633251634
O   O55       1.0  0.72800  0.57547  0.44020  1.0000 -0.5633251634
O   O56       1.0  0.27200  0.07547  0.05980  1.0000 -0.5633251634
O   O57       1.0  0.24130  0.50580  0.47730  1.0000 -0.5477008935
O   O58       1.0  0.75870  0.00580  0.02270  1.0000 -0.5477008935
O   O59       1.0  0.75870  0.49420  0.52270  1.0000 -0.5477008935
O   O60       1.0  0.24130  0.99420  0.97730  1.0000 -0.5477008935
O   O61       1.0  0.05550  0.48098  0.55627  1.0000 -0.8411718276
O   O62       1.0  0.94450  0.98098  0.94373  1.0000 -0.8411718276
O   O63       1.0  0.94450  0.51902  0.44373  1.0000 -0.8411718276
O   O64       1.0  0.05550  0.01902  0.05627  1.0000 -0.8411718276
O   O65       1.0  0.14960  0.84810  0.35500  1.0000 -0.333750498
O   O66       1.0  0.85040  0.34810  0.14500  1.0000 -0.3369944957
O   O67       1.0  0.85040  0.15190  0.64500  1.0000 -0.3369944957
O   O68       1.0  0.14960  0.65190  0.85500  1.0000 -0.333750498
O   O69       1.0  0.15510  0.77820  0.22900  1.0000 -0.3667756684
O   O70       1.0  0.84490  0.27820  0.27100  1.0000 -0.3667756684
O   O71       1.0  0.84490  0.22180  0.77100  1.0000 -0.3667756684
O   O72       1.0  0.15510  0.72180  0.72900  1.0000 -0.3667756684
