# DDEC6 charges by PACMAN v1.1 (https://github.com/mtap-research/PACMAN-charge/)
data_2015[Gd][nan]3[FSR]4
_chemical_formula_sum              "Gd28 H388 C412 N24 O168"
_cell_length_a       24.7139
_cell_length_b       20.7704
_cell_length_c       24.9502
_cell_angle_alpha    90
_cell_angle_beta     99.081
_cell_angle_gamma    90

_symmetry_space_group_name_H-M    "P 1"
_symmetry_Int_Tables_number       1

loop_
  _symmetry_equiv_pos_as_xyz
  'x, y, z'

loop_
  _atom_site_type_symbol
  _atom_site_label
  _atom_site_symmetry_multiplicity
  _atom_site_fract_x
  _atom_site_fract_y
  _atom_site_fract_z
  _atom_site_occupancy
  _atom_site_charge
Gd  Gd1       1.0  0.21185  0.46503  0.12448  1.0000 1.9400375913
Gd  Gd2       1.0  0.78815  0.96503  0.37552  1.0000 1.9400375913
Gd  Gd3       1.0  0.78815  0.53497  0.87552  1.0000 1.9400375913
Gd  Gd4       1.0  0.21185  0.03497  0.62448  1.0000 1.9400375913
Gd  Gd5       1.0  0.08646  0.46688  0.19537  1.0000 2.0903971623
Gd  Gd6       1.0  0.91354  0.96688  0.30463  1.0000 2.0903971623
Gd  Gd7       1.0  0.91354  0.53312  0.80463  1.0000 2.0903971623
Gd  Gd8       1.0  0.08646  0.03312  0.69537  1.0000 2.0903971623
Gd  Gd9       1.0  0.22823  0.50588  0.27827  1.0000 2.1823024581
Gd  Gd10      1.0  0.77177  0.00588  0.22173  1.0000 2.1823024581
Gd  Gd11      1.0  0.77177  0.49412  0.72173  1.0000 2.1823024581
Gd  Gd12      1.0  0.22823  0.99412  0.77827  1.0000 2.1823024581
Gd  Gd13      1.0  0.15808  0.62423  0.16527  1.0000 2.0236668418
Gd  Gd14      1.0  0.84192  0.12423  0.33473  1.0000 2.0236668418
Gd  Gd15      1.0  0.84192  0.37577  0.83473  1.0000 2.0236668418
Gd  Gd16      1.0  0.15808  0.87577  0.66527  1.0000 2.0236668418
Gd  Gd17      1.0  0.31780  0.54973  0.41665  1.0000 2.0703701209
Gd  Gd18      1.0  0.68220  0.04973  0.08335  1.0000 2.0703701209
Gd  Gd19      1.0  0.68220  0.45027  0.58335  1.0000 2.0703701209
Gd  Gd20      1.0  0.31780  0.95027  0.91665  1.0000 2.0703701209
Gd  Gd21      1.0  0.38426  0.54819  0.29204  1.0000 2.0435862373
Gd  Gd22      1.0  0.61574  0.04819  0.20796  1.0000 2.0435862373
Gd  Gd23      1.0  0.61574  0.45181  0.70796  1.0000 2.0435862373
Gd  Gd24      1.0  0.38426  0.95181  0.79204  1.0000 2.0435862373
Gd  Gd25      1.0  0.34264  0.39009  0.34414  1.0000 2.0602559875
Gd  Gd26      1.0  0.65736  0.89009  0.15586  1.0000 2.0602559875
Gd  Gd27      1.0  0.65736  0.60991  0.65586  1.0000 2.0602559875
Gd  Gd28      1.0  0.34264  0.10991  0.84414  1.0000 2.0602559875
H   H1        1.0  0.19170  0.39610  0.21650  1.0000 0.3980614896
H   H2        1.0  0.80830  0.89610  0.28350  1.0000 0.3980614896
H   H3        1.0  0.80830  0.60390  0.78350  1.0000 0.3980614896
H   H4        1.0  0.19170  0.10390  0.71650  1.0000 0.3980614896
H   H5        1.0  0.26540  0.56710  0.18740  1.0000 0.3899981748
H   H6        1.0  0.73460  0.06710  0.31260  1.0000 0.3899981748
H   H7        1.0  0.73460  0.43290  0.81260  1.0000 0.3899981748
H   H8        1.0  0.26540  0.93290  0.68740  1.0000 0.3899981748
H   H9        1.0  0.10950  0.52350  0.09980  1.0000 0.3848180602
H   H10       1.0  0.89050  0.02350  0.40020  1.0000 0.3848180602
H   H11       1.0  0.89050  0.47650  0.90020  1.0000 0.3848180602
H   H12       1.0  0.10950  0.97650  0.59980  1.0000 0.3848180602
H   H13       1.0  0.36050  0.49430  0.15920  1.0000 0.0988128427
H   H14       1.0  0.63950  0.99430  0.34080  1.0000 0.0988128427
H   H15       1.0  0.63950  0.50570  0.84080  1.0000 0.0988128427
H   H16       1.0  0.36050  0.00570  0.65920  1.0000 0.0988128427
H   H17       1.0  0.12780  0.56800  0.26040  1.0000 0.3899981748
H   H18       1.0  0.87220  0.06800  0.23960  1.0000 0.3899981748
H   H19       1.0  0.87220  0.43200  0.73960  1.0000 0.3899981748
H   H20       1.0  0.12780  0.93200  0.76040  1.0000 0.3899981748
H   H21       1.0  0.29060  0.61440  0.31110  1.0000 0.3899981748
H   H22       1.0  0.70940  0.11440  0.18890  1.0000 0.3899981748
H   H23       1.0  0.70940  0.38560  0.68890  1.0000 0.3899981748
H   H24       1.0  0.29060  0.88560  0.81110  1.0000 0.3899981748
H   H25       1.0  0.25130  0.44600  0.38160  1.0000 0.3899981748
H   H26       1.0  0.74870  0.94600  0.11840  1.0000 0.3899981748
H   H27       1.0  0.74870  0.55400  0.61840  1.0000 0.3899981748
H   H28       1.0  0.25130  0.05400  0.88160  1.0000 0.3899981748
H   H29       1.0  0.31880  0.44420  0.23920  1.0000 0.3980614896
H   H30       1.0  0.68120  0.94420  0.26080  1.0000 0.3980614896
H   H31       1.0  0.68120  0.55580  0.76080  1.0000 0.3980614896
H   H32       1.0  0.31880  0.05580  0.73920  1.0000 0.3980614896
H   H33       1.0  0.00650  0.55230  0.09420  1.0000 0.0988128427
H   H34       1.0  0.99350  0.05230  0.40580  1.0000 0.0988128427
H   H35       1.0  0.99350  0.44770  0.90580  1.0000 0.0988128427
H   H36       1.0  0.00650  0.94770  0.59420  1.0000 0.0988128427
H   H37       1.0  0.99520  0.35700  0.24880  1.0000 0.0988128427
H   H38       1.0  0.00480  0.85700  0.25120  1.0000 0.0988128427
H   H39       1.0  0.00480  0.64300  0.75120  1.0000 0.0988128427
H   H40       1.0  0.99520  0.14300  0.74880  1.0000 0.0988128427
H   H41       1.0  0.06580  0.72120  0.05840  1.0000 0.0918378413
H   H42       1.0  0.93420  0.22120  0.44160  1.0000 0.0918378413
H   H43       1.0  0.93420  0.27880  0.94160  1.0000 0.0918378413
H   H44       1.0  0.06580  0.77880  0.55840  1.0000 0.0918378413
H   H45       1.0  0.34450  0.49540  0.01840  1.0000 0.1300443453
H   H46       1.0  0.65550  0.99540  0.48160  1.0000 0.1300443453
H   H47       1.0  0.65550  0.50460  0.98160  1.0000 0.1192699057
H   H48       1.0  0.34450  0.00460  0.51840  1.0000 0.1192699057
H   H49       1.0  0.38560  0.55530  0.02050  1.0000 0.1192699057
H   H50       1.0  0.61440  0.05530  0.47950  1.0000 0.1192699057
H   H51       1.0  0.61440  0.44470  0.97950  1.0000 0.1192699057
H   H52       1.0  0.38560  0.94470  0.52050  1.0000 0.1192699057
H   H53       1.0  0.40790  0.48360  0.01510  1.0000 0.1300443453
H   H54       1.0  0.59210  0.98360  0.48490  1.0000 0.1300443453
H   H55       1.0  0.59210  0.51640  0.98490  1.0000 0.1300443453
H   H56       1.0  0.40790  0.01640  0.51510  1.0000 0.1300443453
H   H57       1.0  0.45190  0.46440  0.14590  1.0000 0.1300443453
H   H58       1.0  0.54810  0.96440  0.35410  1.0000 0.1300443453
H   H59       1.0  0.54810  0.53560  0.85410  1.0000 0.1300443453
H   H60       1.0  0.45190  0.03560  0.64590  1.0000 0.1300443453
H   H61       1.0  0.47190  0.47850  0.08910  1.0000 0.1300443453
H   H62       1.0  0.52810  0.97850  0.41090  1.0000 0.1300443453
H   H63       1.0  0.52810  0.52150  0.91090  1.0000 0.1300443453
H   H64       1.0  0.47190  0.02150  0.58910  1.0000 0.1300443453
H   H65       1.0  0.46630  0.53640  0.13030  1.0000 0.1384782666
H   H66       1.0  0.53370  0.03640  0.36970  1.0000 0.1384782666
H   H67       1.0  0.53370  0.46360  0.86970  1.0000 0.1384782666
H   H68       1.0  0.46630  0.96360  0.63030  1.0000 0.1384782666
H   H69       1.0  0.41340  0.48710  0.39190  1.0000 0.3899981748
H   H70       1.0  0.58660  0.98710  0.10810  1.0000 0.3899981748
H   H71       1.0  0.58660  0.51290  0.60810  1.0000 0.3899981748
H   H72       1.0  0.41340  0.01290  0.89190  1.0000 0.3899981748
H   H73       1.0  0.38890  0.26560  0.34710  1.0000 0.3175279925
H   H74       1.0  0.61110  0.76560  0.15290  1.0000 0.3175279925
H   H75       1.0  0.61110  0.73440  0.65290  1.0000 0.3175279925
H   H76       1.0  0.38890  0.23440  0.84710  1.0000 0.3175279925
H   H77       1.0  0.35800  0.25870  0.38590  1.0000 0.3175279925
H   H78       1.0  0.64200  0.75870  0.11410  1.0000 0.3175279925
H   H79       1.0  0.64200  0.74130  0.61410  1.0000 0.3175279925
H   H80       1.0  0.35800  0.24130  0.88590  1.0000 0.3175279925
H   H81       1.0  0.93990  0.57400  0.99530  1.0000 0.1384782666
H   H82       1.0  0.06010  0.07400  0.50470  1.0000 0.1384782666
H   H83       1.0  0.06010  0.42600  0.00470  1.0000 0.1384782666
H   H84       1.0  0.93990  0.92600  0.49530  1.0000 0.1384782666
H   H85       1.0  0.88390  0.53970  0.00380  1.0000 0.1384782666
H   H86       1.0  0.11610  0.03970  0.49620  1.0000 0.1384782666
H   H87       1.0  0.11610  0.46030  0.99620  1.0000 0.1384782666
H   H88       1.0  0.88390  0.96030  0.50380  1.0000 0.1384782666
H   H89       1.0  0.91450  0.58700  0.04940  1.0000 0.1384782666
H   H90       1.0  0.08550  0.08700  0.45060  1.0000 0.1384782666
H   H91       1.0  0.08550  0.41300  0.95060  1.0000 0.1384782666
H   H92       1.0  0.91450  0.91300  0.54940  1.0000 0.1384782666
H   H93       1.0  0.92460  0.41200  0.06770  1.0000 0.1300443453
H   H94       1.0  0.07540  0.91200  0.43230  1.0000 0.1300443453
H   H95       1.0  0.07540  0.58800  0.93230  1.0000 0.1300443453
H   H96       1.0  0.92460  0.08800  0.56770  1.0000 0.1300443453
H   H97       1.0  0.89820  0.43580  0.00830  1.0000 0.1300443453
H   H98       1.0  0.10180  0.93580  0.49170  1.0000 0.1300443453
H   H99       1.0  0.10180  0.56420  0.99170  1.0000 0.1300443453
H   H100      1.0  0.89820  0.06420  0.50830  1.0000 0.1300443453
H   H101      1.0  0.96010  0.41040  0.01940  1.0000 0.1300443453
H   H102      1.0  0.03990  0.91040  0.48060  1.0000 0.1300443453
H   H103      1.0  0.03990  0.58960  0.98060  1.0000 0.1300443453
H   H104      1.0  0.96010  0.08960  0.51940  1.0000 0.1300443453
H   H105      1.0  0.93170  0.28750  0.25780  1.0000 0.1300443453
H   H106      1.0  0.06830  0.78750  0.24220  1.0000 0.1300443453
H   H107      1.0  0.06830  0.71250  0.74220  1.0000 0.1300443453
H   H108      1.0  0.93170  0.21250  0.75780  1.0000 0.1300443453
H   H109      1.0  0.88310  0.32980  0.27150  1.0000 0.1479914479
H   H110      1.0  0.11690  0.82980  0.22850  1.0000 0.1479914479
H   H111      1.0  0.11690  0.67020  0.72850  1.0000 0.1479914479
H   H112      1.0  0.88310  0.17020  0.77150  1.0000 0.1479914479
H   H113      1.0  0.87510  0.28650  0.21940  1.0000 0.1479914479
H   H114      1.0  0.12490  0.78650  0.28060  1.0000 0.1479914479
H   H115      1.0  0.12490  0.71350  0.78060  1.0000 0.1479914479
H   H116      1.0  0.87510  0.21350  0.71940  1.0000 0.1479914479
H   H117      1.0  0.89380  0.42060  0.14640  1.0000 0.1384782666
H   H118      1.0  0.10620  0.92060  0.35360  1.0000 0.1384782666
H   H119      1.0  0.10620  0.57940  0.85360  1.0000 0.1384782666
H   H120      1.0  0.89380  0.07940  0.64640  1.0000 0.1384782666
H   H121      1.0  0.90620  0.34800  0.13580  1.0000 0.1384782666
H   H122      1.0  0.09380  0.84800  0.36420  1.0000 0.1384782666
H   H123      1.0  0.09380  0.65200  0.86420  1.0000 0.1384782666
H   H124      1.0  0.90620  0.15200  0.63580  1.0000 0.1384782666
H   H125      1.0  0.85240  0.36710  0.15790  1.0000 0.1384782666
H   H126      1.0  0.14760  0.86710  0.34210  1.0000 0.1384782666
H   H127      1.0  0.14760  0.63290  0.84210  1.0000 0.1384782666
H   H128      1.0  0.85240  0.13290  0.65790  1.0000 0.1384782666
H   H129      1.0  0.25900  0.65250  0.50130  1.0000 0.0918378413
H   H130      1.0  0.74100  0.15250  0.99870  1.0000 0.0918378413
H   H131      1.0  0.74100  0.34750  0.49870  1.0000 0.0918378413
H   H132      1.0  0.25900  0.84750  0.00130  1.0000 0.0918378413
H   H133      1.0  0.41190  0.60980  0.52380  1.0000 0.0918378413
H   H134      1.0  0.58810  0.10980  0.97620  1.0000 0.0918378413
H   H135      1.0  0.58810  0.39020  0.47620  1.0000 0.0918378413
H   H136      1.0  0.41190  0.89020  0.02380  1.0000 0.0918378413
H   H137      1.0  0.49930  0.62900  0.32270  1.0000 0.0988128427
H   H138      1.0  0.50070  0.12900  0.17730  1.0000 0.0988128427
H   H139      1.0  0.50070  0.37100  0.67730  1.0000 0.0988128427
H   H140      1.0  0.49930  0.87100  0.82270  1.0000 0.0988128427
H   H141      1.0  0.10870  0.65910  0.31990  1.0000 0.1300443453
H   H142      1.0  0.89130  0.15910  0.18010  1.0000 0.1300443453
H   H143      1.0  0.89130  0.34090  0.68010  1.0000 0.1300443453
H   H144      1.0  0.10870  0.84090  0.81990  1.0000 0.1300443453
H   H145      1.0  0.16580  0.63410  0.47930  1.0000 0.1102607405
H   H146      1.0  0.83420  0.13410  0.02070  1.0000 0.1102607405
H   H147      1.0  0.83420  0.36590  0.52070  1.0000 0.1102607405
H   H148      1.0  0.16580  0.86590  0.97930  1.0000 0.1102607405
H   H149      1.0  0.03190  0.71320  0.34170  1.0000 0.1102607405
H   H150      1.0  0.96810  0.21320  0.15830  1.0000 0.1102607405
H   H151      1.0  0.96810  0.28680  0.65830  1.0000 0.1102607405
H   H152      1.0  0.03190  0.78680  0.84170  1.0000 0.1102607405
H   H153      1.0  0.08850  0.68660  0.50070  1.0000 0.1102607405
H   H154      1.0  0.91150  0.18660  0.99930  1.0000 0.1102607405
H   H155      1.0  0.91150  0.31340  0.49930  1.0000 0.1102607405
H   H156      1.0  0.08850  0.81340  0.00070  1.0000 0.1102607405
H   H157      1.0  0.26930  0.46020  0.54760  1.0000 0.1300443453
H   H158      1.0  0.73070  0.96020  0.95240  1.0000 0.1300443453
H   H159      1.0  0.73070  0.53980  0.45240  1.0000 0.1300443453
H   H160      1.0  0.26930  0.03980  0.04760  1.0000 0.1300443453
H   H161      1.0  0.30010  0.28180  0.49700  1.0000 0.1192699057
H   H162      1.0  0.69990  0.78180  0.00300  1.0000 0.1192699057
H   H163      1.0  0.69990  0.71820  0.50300  1.0000 0.1192699057
H   H164      1.0  0.30010  0.21820  0.99700  1.0000 0.1192699057
H   H165      1.0  0.36600  0.73040  0.47160  1.0000 0.1192699057
H   H166      1.0  0.63400  0.23040  0.02840  1.0000 0.1192699057
H   H167      1.0  0.63400  0.26960  0.52840  1.0000 0.1192699057
H   H168      1.0  0.36600  0.76960  0.97160  1.0000 0.1192699057
H   H169      1.0  0.47240  0.73020  0.36440  1.0000 0.1192699057
H   H170      1.0  0.52760  0.23020  0.13560  1.0000 0.1192699057
H   H171      1.0  0.52760  0.26980  0.63560  1.0000 0.1192699057
H   H172      1.0  0.47240  0.76980  0.86440  1.0000 0.1192699057
H   H173      1.0  0.36610  0.61310  0.59840  1.0000 0.1300443453
H   H174      1.0  0.63390  0.11310  0.90160  1.0000 0.1300443453
H   H175      1.0  0.63390  0.38690  0.40160  1.0000 0.1300443453
H   H176      1.0  0.36610  0.88690  0.09840  1.0000 0.1300443453
H   H177      1.0  0.36350  0.68410  0.62290  1.0000 0.1300443453
H   H178      1.0  0.63650  0.18410  0.87710  1.0000 0.1300443453
H   H179      1.0  0.63650  0.31590  0.37710  1.0000 0.1300443453
H   H180      1.0  0.36350  0.81590  0.12290  1.0000 0.1300443453
H   H181      1.0  0.33390  0.62560  0.64830  1.0000 0.1384782666
H   H182      1.0  0.66610  0.12560  0.85170  1.0000 0.1384782666
H   H183      1.0  0.66610  0.37440  0.35170  1.0000 0.1384782666
H   H184      1.0  0.33390  0.87440  0.14830  1.0000 0.1384782666
H   H185      1.0  0.22270  0.70570  0.56570  1.0000 0.1300443453
H   H186      1.0  0.77730  0.20570  0.93430  1.0000 0.1300443453
H   H187      1.0  0.77730  0.29430  0.43430  1.0000 0.1300443453
H   H188      1.0  0.22270  0.79430  0.06570  1.0000 0.1300443453
H   H189      1.0  0.24250  0.68430  0.62730  1.0000 0.1559737156
H   H190      1.0  0.75750  0.18430  0.87270  1.0000 0.1559737156
H   H191      1.0  0.75750  0.31570  0.37270  1.0000 0.1559737156
H   H192      1.0  0.24250  0.81570  0.12730  1.0000 0.1559737156
H   H193      1.0  0.27210  0.74290  0.60200  1.0000 0.1479914479
H   H194      1.0  0.72790  0.24290  0.89800  1.0000 0.1479914479
H   H195      1.0  0.72790  0.25710  0.39800  1.0000 0.1479914479
H   H196      1.0  0.27210  0.75710  0.10200  1.0000 0.1479914479
H   H197      1.0  0.53150  0.60730  0.59140  1.0000 0.1384782666
H   H198      1.0  0.46850  0.10730  0.90860  1.0000 0.1384782666
H   H199      1.0  0.46850  0.39270  0.40860  1.0000 0.1384782666
H   H200      1.0  0.53150  0.89270  0.09140  1.0000 0.1384782666
H   H201      1.0  0.53150  0.67420  0.55950  1.0000 0.1384782666
H   H202      1.0  0.46850  0.17420  0.94050  1.0000 0.1384782666
H   H203      1.0  0.46850  0.32580  0.44050  1.0000 0.1384782666
H   H204      1.0  0.53150  0.82580  0.05950  1.0000 0.1384782666
H   H205      1.0  0.47820  0.65230  0.58380  1.0000 0.1300443453
H   H206      1.0  0.52180  0.15230  0.91620  1.0000 0.1300443453
H   H207      1.0  0.52180  0.34770  0.41620  1.0000 0.1300443453
H   H208      1.0  0.47820  0.84770  0.08380  1.0000 0.1300443453
H   H209      1.0  0.54920  0.62060  0.47250  1.0000 0.1384782666
H   H210      1.0  0.45080  0.12060  0.02750  1.0000 0.1384782666
H   H211      1.0  0.45080  0.37940  0.52750  1.0000 0.1384782666
H   H212      1.0  0.54920  0.87940  0.97250  1.0000 0.1384782666
H   H213      1.0  0.55490  0.55340  0.50420  1.0000 0.1384782666
H   H214      1.0  0.44510  0.05340  0.99580  1.0000 0.1384782666
H   H215      1.0  0.44510  0.44660  0.49580  1.0000 0.1384782666
H   H216      1.0  0.55490  0.94660  0.00420  1.0000 0.1384782666
H   H217      1.0  0.51070  0.56140  0.45030  1.0000 0.1384782666
H   H218      1.0  0.48930  0.06140  0.04970  1.0000 0.1384782666
H   H219      1.0  0.48930  0.43860  0.54970  1.0000 0.1384782666
H   H220      1.0  0.51070  0.93860  0.95030  1.0000 0.1384782666
H   H221      1.0  0.52440  0.47010  0.22790  1.0000 0.1192699057
H   H222      1.0  0.47560  0.97010  0.27210  1.0000 0.1192699057
H   H223      1.0  0.47560  0.52990  0.77210  1.0000 0.1192699057
H   H224      1.0  0.52440  0.02990  0.72790  1.0000 0.1192699057
H   H225      1.0  0.49740  0.29720  0.29150  1.0000 0.1192699057
H   H226      1.0  0.50260  0.79720  0.20850  1.0000 0.1192699057
H   H227      1.0  0.50260  0.70280  0.70850  1.0000 0.1192699057
H   H228      1.0  0.49740  0.20280  0.79150  1.0000 0.1192699057
H   H229      1.0  0.58100  0.67550  0.33620  1.0000 0.1384782666
H   H230      1.0  0.41900  0.17550  0.16380  1.0000 0.1384782666
H   H231      1.0  0.41900  0.32450  0.66380  1.0000 0.1384782666
H   H232      1.0  0.58100  0.82450  0.83620  1.0000 0.1384782666
H   H233      1.0  0.61890  0.65110  0.39040  1.0000 0.1300443453
H   H234      1.0  0.38110  0.15110  0.10960  1.0000 0.1300443453
H   H235      1.0  0.38110  0.34890  0.60960  1.0000 0.1300443453
H   H236      1.0  0.61890  0.84890  0.89040  1.0000 0.1300443453
H   H237      1.0  0.63080  0.62720  0.33240  1.0000 0.1384782666
H   H238      1.0  0.36920  0.12720  0.16760  1.0000 0.1384782666
H   H239      1.0  0.36920  0.37280  0.66760  1.0000 0.1384782666
H   H240      1.0  0.63080  0.87280  0.83240  1.0000 0.1384782666
H   H241      1.0  0.61510  0.50850  0.35160  1.0000 0.1384782666
H   H242      1.0  0.38490  0.00850  0.14840  1.0000 0.1384782666
H   H243      1.0  0.38490  0.49150  0.64840  1.0000 0.1384782666
H   H244      1.0  0.61510  0.99150  0.85160  1.0000 0.1384782666
H   H245      1.0  0.61270  0.53130  0.41250  1.0000 0.1384782666
H   H246      1.0  0.38730  0.03130  0.08750  1.0000 0.1384782666
H   H247      1.0  0.38730  0.46870  0.58750  1.0000 0.1384782666
H   H248      1.0  0.61270  0.96870  0.91250  1.0000 0.1384782666
H   H249      1.0  0.56230  0.49290  0.37900  1.0000 0.1384782666
H   H250      1.0  0.43770  0.99290  0.12100  1.0000 0.1384782666
H   H251      1.0  0.43770  0.50710  0.62100  1.0000 0.1384782666
H   H252      1.0  0.56230  0.00710  0.87900  1.0000 0.1384782666
H   H253      1.0  0.23090  0.41800  0.61850  1.0000 0.1192699057
H   H254      1.0  0.76910  0.91800  0.88150  1.0000 0.1192699057
H   H255      1.0  0.76910  0.58200  0.38150  1.0000 0.1192699057
H   H256      1.0  0.23090  0.08200  0.11850  1.0000 0.1192699057
H   H257      1.0  0.26050  0.23800  0.56780  1.0000 0.1192699057
H   H258      1.0  0.73950  0.73800  0.93220  1.0000 0.1192699057
H   H259      1.0  0.73950  0.76200  0.43220  1.0000 0.1192699057
H   H260      1.0  0.26050  0.26200  0.06780  1.0000 0.1192699057
H   H261      1.0  0.60530  0.43250  0.20190  1.0000 0.1192699057
H   H262      1.0  0.39470  0.93250  0.29810  1.0000 0.1192699057
H   H263      1.0  0.39470  0.56750  0.79810  1.0000 0.1192699057
H   H264      1.0  0.60530  0.06750  0.70190  1.0000 0.1192699057
H   H265      1.0  0.57600  0.25640  0.26220  1.0000 0.1192699057
H   H266      1.0  0.42400  0.75640  0.23780  1.0000 0.1192699057
H   H267      1.0  0.42400  0.74360  0.73780  1.0000 0.1192699057
H   H268      1.0  0.57600  0.24360  0.76220  1.0000 0.1192699057
H   H269      1.0  0.50820  0.82990  0.50500  1.0000 0.1102607405
H   H270      1.0  0.49180  0.32990  0.99500  1.0000 0.1102607405
H   H271      1.0  0.49180  0.17010  0.49500  1.0000 0.1102607405
H   H272      1.0  0.50820  0.67010  0.00500  1.0000 0.1102607405
H   H273      1.0  0.98170  0.79220  0.37440  1.0000 0.1192699057
H   H274      1.0  0.01830  0.29220  0.12560  1.0000 0.1192699057
H   H275      1.0  0.01830  0.20780  0.62560  1.0000 0.1192699057
H   H276      1.0  0.98170  0.70780  0.87440  1.0000 0.1192699057
H   H277      1.0  0.99960  0.67450  0.50520  1.0000 0.1102607405
H   H278      1.0  0.00040  0.17450  0.99480  1.0000 0.1102607405
H   H279      1.0  0.00040  0.32550  0.49480  1.0000 0.1102607405
H   H280      1.0  0.99960  0.82550  0.00520  1.0000 0.1102607405
H   H281      1.0  0.33910  0.81410  0.52780  1.0000 0.1102607405
H   H282      1.0  0.66090  0.31410  0.97220  1.0000 0.1102607405
H   H283      1.0  0.66090  0.18590  0.47220  1.0000 0.1102607405
H   H284      1.0  0.33910  0.68590  0.02780  1.0000 0.1102607405
H   H285      1.0  0.49980  0.78910  0.59130  1.0000 0.1102607405
H   H286      1.0  0.50020  0.28910  0.90870  1.0000 0.1102607405
H   H287      1.0  0.50020  0.21090  0.40870  1.0000 0.1102607405
H   H288      1.0  0.49980  0.71090  0.09130  1.0000 0.1102607405
H   H289      1.0  0.52790  0.81340  0.33590  1.0000 0.1102607405
H   H290      1.0  0.47210  0.31340  0.16410  1.0000 0.1102607405
H   H291      1.0  0.47210  0.18660  0.66410  1.0000 0.1102607405
H   H292      1.0  0.52790  0.68660  0.83590  1.0000 0.1102607405
H   H293      1.0  0.59490  0.79960  0.49570  1.0000 0.1102607405
H   H294      1.0  0.40510  0.29960  0.00430  1.0000 0.1102607405
H   H295      1.0  0.40510  0.20040  0.50430  1.0000 0.1102607405
H   H296      1.0  0.59490  0.70040  0.99570  1.0000 0.1102607405
H   H297      1.0  0.29120  0.24150  0.67500  1.0000 0.1192699057
H   H298      1.0  0.70880  0.74150  0.82500  1.0000 0.1192699057
H   H299      1.0  0.70880  0.75850  0.32500  1.0000 0.1192699057
H   H300      1.0  0.29120  0.25850  0.17500  1.0000 0.1192699057
H   H301      1.0  0.14920  0.34320  0.64120  1.0000 0.1102607405
H   H302      1.0  0.85080  0.84320  0.85880  1.0000 0.1102607405
H   H303      1.0  0.85080  0.65680  0.35880  1.0000 0.1102607405
H   H304      1.0  0.14920  0.15680  0.14120  1.0000 0.1102607405
H   H305      1.0  0.32280  0.85230  0.61190  1.0000 0.1192699057
H   H306      1.0  0.67720  0.35230  0.88810  1.0000 0.1192699057
H   H307      1.0  0.67720  0.14770  0.38810  1.0000 0.1192699057
H   H308      1.0  0.32280  0.64770  0.11190  1.0000 0.1192699057
H   H309      1.0  0.48280  0.82660  0.67470  1.0000 0.1192699057
H   H310      1.0  0.51720  0.32660  0.82530  1.0000 0.1192699057
H   H311      1.0  0.51720  0.17340  0.32530  1.0000 0.1192699057
H   H312      1.0  0.48280  0.67340  0.17470  1.0000 0.1192699057
H   H313      1.0  0.61200  0.85190  0.31630  1.0000 0.1300443453
H   H314      1.0  0.38800  0.35190  0.18370  1.0000 0.1300443453
H   H315      1.0  0.38800  0.14810  0.68370  1.0000 0.1300443453
H   H316      1.0  0.61200  0.64810  0.81630  1.0000 0.1300443453
H   H317      1.0  0.67600  0.84220  0.47470  1.0000 0.1192699057
H   H318      1.0  0.32400  0.34220  0.02530  1.0000 0.1192699057
H   H319      1.0  0.32400  0.15780  0.52530  1.0000 0.1192699057
H   H320      1.0  0.67600  0.65780  0.97470  1.0000 0.1192699057
H   H321      1.0  0.64460  0.36500  0.14060  1.0000 0.1102607405
H   H322      1.0  0.35540  0.86500  0.35940  1.0000 0.1102607405
H   H323      1.0  0.35540  0.63500  0.85940  1.0000 0.1102607405
H   H324      1.0  0.64460  0.13500  0.64060  1.0000 0.1102607405
H   H325      1.0  0.67330  0.25810  0.27840  1.0000 0.1192699057
H   H326      1.0  0.32670  0.75810  0.22160  1.0000 0.1192699057
H   H327      1.0  0.32670  0.74190  0.72160  1.0000 0.1192699057
H   H328      1.0  0.67330  0.24190  0.77840  1.0000 0.1192699057
H   H329      1.0  0.86600  0.79070  0.47350  1.0000 0.1300443453
H   H330      1.0  0.13400  0.29070  0.02650  1.0000 0.1300443453
H   H331      1.0  0.13400  0.20930  0.52650  1.0000 0.1300443453
H   H332      1.0  0.86600  0.70930  0.97350  1.0000 0.1300443453
H   H333      1.0  0.83170  0.68810  0.51520  1.0000 0.1102607405
H   H334      1.0  0.16830  0.18810  0.98480  1.0000 0.1102607405
H   H335      1.0  0.16830  0.31190  0.48480  1.0000 0.1102607405
H   H336      1.0  0.83170  0.81190  0.01520  1.0000 0.1102607405
H   H337      1.0  0.98630  0.70850  0.59530  1.0000 0.1102607405
H   H338      1.0  0.01370  0.20850  0.90470  1.0000 0.1102607405
H   H339      1.0  0.01370  0.29150  0.40470  1.0000 0.1102607405
H   H340      1.0  0.98630  0.79150  0.09530  1.0000 0.1102607405
H   H341      1.0  0.17620  0.22840  0.77320  1.0000 0.1192699057
H   H342      1.0  0.82380  0.72840  0.72680  1.0000 0.1192699057
H   H343      1.0  0.82380  0.77160  0.22680  1.0000 0.1192699057
H   H344      1.0  0.17620  0.27160  0.27320  1.0000 0.1192699057
H   H345      1.0  0.78010  0.25350  0.17010  1.0000 0.1192699057
H   H346      1.0  0.21990  0.75350  0.32990  1.0000 0.1192699057
H   H347      1.0  0.21990  0.74650  0.82990  1.0000 0.1192699057
H   H348      1.0  0.78010  0.24650  0.67010  1.0000 0.1192699057
H   H349      1.0  0.80850  0.63120  0.58870  1.0000 0.1192699057
H   H350      1.0  0.19150  0.13120  0.91130  1.0000 0.1192699057
H   H351      1.0  0.19150  0.36880  0.41130  1.0000 0.1192699057
H   H352      1.0  0.80850  0.86880  0.08870  1.0000 0.1192699057
H   H353      1.0  0.96170  0.65470  0.66940  1.0000 0.1102607405
H   H354      1.0  0.03830  0.15470  0.83060  1.0000 0.1102607405
H   H355      1.0  0.03830  0.34530  0.33060  1.0000 0.1102607405
H   H356      1.0  0.96170  0.84530  0.16940  1.0000 0.1102607405
H   H357      1.0  0.11220  0.40570  0.70940  1.0000 0.1102607405
H   H358      1.0  0.88780  0.90570  0.79060  1.0000 0.1102607405
H   H359      1.0  0.88780  0.59430  0.29060  1.0000 0.1102607405
H   H360      1.0  0.11220  0.09430  0.20940  1.0000 0.1102607405
H   H361      1.0  0.07640  0.22380  0.74950  1.0000 0.1192699057
H   H362      1.0  0.92360  0.72380  0.75050  1.0000 0.1192699057
H   H363      1.0  0.92360  0.77620  0.25050  1.0000 0.1192699057
H   H364      1.0  0.07640  0.27620  0.24950  1.0000 0.1192699057
H   H365      1.0  0.70430  0.42980  0.10070  1.0000 0.1192699057
H   H366      1.0  0.29570  0.92980  0.39930  1.0000 0.1192699057
H   H367      1.0  0.29570  0.57020  0.89930  1.0000 0.1192699057
H   H368      1.0  0.70430  0.07020  0.60070  1.0000 0.1192699057
H   H369      1.0  0.76950  0.25470  0.07610  1.0000 0.1102607405
H   H370      1.0  0.23050  0.75470  0.42390  1.0000 0.1102607405
H   H371      1.0  0.23050  0.74530  0.92390  1.0000 0.1102607405
H   H372      1.0  0.76950  0.24530  0.57610  1.0000 0.1102607405
H   H373      1.0  0.03880  0.44380  0.74780  1.0000 0.1300443453
H   H374      1.0  0.96120  0.94380  0.75220  1.0000 0.1300443453
H   H375      1.0  0.96120  0.55620  0.25220  1.0000 0.1300443453
H   H376      1.0  0.03880  0.05620  0.24780  1.0000 0.1300443453
H   H377      1.0  0.00090  0.26180  0.78580  1.0000 0.0988128427
H   H378      1.0  0.99910  0.76180  0.71420  1.0000 0.0988128427
H   H379      1.0  0.99910  0.73820  0.21420  1.0000 0.0988128427
H   H380      1.0  0.00090  0.23820  0.28580  1.0000 0.0988128427
H   H381      1.0  0.73920  0.46980  0.02540  1.0000 0.1192699057
H   H382      1.0  0.26080  0.96980  0.47460  1.0000 0.1192699057
H   H383      1.0  0.26080  0.53020  0.97460  1.0000 0.1192699057
H   H384      1.0  0.73920  0.03020  0.52540  1.0000 0.1192699057
H   H385      1.0  0.79900  0.29510  0.99790  1.0000 0.1192699057
H   H386      1.0  0.20100  0.79510  0.50210  1.0000 0.1192699057
H   H387      1.0  0.20100  0.70490  0.00210  1.0000 0.1192699057
H   H388      1.0  0.79900  0.20490  0.49790  1.0000 0.1192699057
C   C1        1.0  0.35140  0.50360  0.12160  1.0000 0.1766241173
C   C2        1.0  0.64860  0.00360  0.37840  1.0000 0.1766241173
C   C3        1.0  0.64860  0.49640  0.87840  1.0000 0.1766241173
C   C4        1.0  0.35140  0.99640  0.62160  1.0000 0.1766241173
C   C5        1.0  0.99610  0.50930  0.08420  1.0000 0.3055716585
C   C6        1.0  0.00390  0.00930  0.41580  1.0000 0.3055716585
C   C7        1.0  0.00390  0.49070  0.91580  1.0000 0.3055716585
C   C8        1.0  0.99610  0.99070  0.58420  1.0000 0.3055716585
C   C9        1.0  0.97220  0.38220  0.22270  1.0000 0.2897143395
C   C10       1.0  0.02780  0.88220  0.27730  1.0000 0.2897143395
C   C11       1.0  0.02780  0.61780  0.77730  1.0000 0.2897143395
C   C12       1.0  0.97220  0.11780  0.72270  1.0000 0.2897143395
C   C13       1.0  0.19090  0.59860  0.38340  1.0000 0.6206475874
C   C14       1.0  0.80910  0.09860  0.11660  1.0000 0.6206475874
C   C15       1.0  0.80910  0.40140  0.61660  1.0000 0.6206475874
C   C16       1.0  0.19090  0.90140  0.88340  1.0000 0.6206475874
C   C17       1.0  0.08850  0.69660  0.08520  1.0000 0.4560412
C   C18       1.0  0.91150  0.19660  0.41480  1.0000 0.4560412
C   C19       1.0  0.91150  0.30340  0.91480  1.0000 0.4560412
C   C20       1.0  0.08850  0.80340  0.58520  1.0000 0.4560412
C   C21       1.0  0.38200  0.51030  0.03120  1.0000 -0.3411584553
C   C22       1.0  0.61800  0.01030  0.46880  1.0000 -0.3411584553
C   C23       1.0  0.61800  0.48970  0.96880  1.0000 -0.3411584553
C   C24       1.0  0.38200  0.98970  0.53120  1.0000 -0.3411584553
C   C25       1.0  0.45070  0.49530  0.11610  1.0000 -0.3505712842
C   C26       1.0  0.54930  0.99530  0.38390  1.0000 -0.3505712842
C   C27       1.0  0.54930  0.50470  0.88390  1.0000 -0.3505712842
C   C28       1.0  0.45070  0.00470  0.61610  1.0000 -0.3505712842
C   C29       1.0  0.14440  0.63920  0.39720  1.0000 -0.030766452
C   C30       1.0  0.85560  0.13920  0.10280  1.0000 -0.030766452
C   C31       1.0  0.85560  0.36080  0.60280  1.0000 -0.030766452
C   C32       1.0  0.14440  0.86080  0.89720  1.0000 -0.030766452
C   C33       1.0  0.91970  0.55480  0.02200  1.0000 -0.3580462803
C   C34       1.0  0.08030  0.05480  0.47800  1.0000 -0.3580462803
C   C35       1.0  0.08030  0.44520  0.97800  1.0000 -0.3580462803
C   C36       1.0  0.91970  0.94520  0.52200  1.0000 -0.3580462803
C   C37       1.0  0.93200  0.43400  0.03490  1.0000 -0.3411584553
C   C38       1.0  0.06800  0.93400  0.46510  1.0000 -0.3411584553
C   C39       1.0  0.06800  0.56600  0.96510  1.0000 -0.3411584553
C   C40       1.0  0.93200  0.06600  0.53490  1.0000 -0.3411584553
C   C41       1.0  0.90050  0.31290  0.24270  1.0000 -0.3411584553
C   C42       1.0  0.09950  0.81290  0.25730  1.0000 -0.3411584553
C   C43       1.0  0.09950  0.68710  0.75730  1.0000 -0.3411584553
C   C44       1.0  0.90050  0.18710  0.74270  1.0000 -0.3411584553
C   C45       1.0  0.89050  0.37730  0.15890  1.0000 -0.3300791812
C   C46       1.0  0.10950  0.87730  0.34110  1.0000 -0.3300791812
C   C47       1.0  0.10950  0.62270  0.84110  1.0000 -0.3300791812
C   C48       1.0  0.89050  0.12270  0.65890  1.0000 -0.3300791812
C   C49       1.0  0.31880  0.40430  0.47270  1.0000 0.6134563739
C   C50       1.0  0.68120  0.90430  0.02730  1.0000 0.6134563739
C   C51       1.0  0.68120  0.59570  0.52730  1.0000 0.6134563739
C   C52       1.0  0.31880  0.09570  0.97270  1.0000 0.6134563739
C   C53       1.0  0.38030  0.67260  0.38100  1.0000 0.6206475874
C   C54       1.0  0.61970  0.17260  0.11900  1.0000 0.6206475874
C   C55       1.0  0.61970  0.32740  0.61900  1.0000 0.6206475874
C   C56       1.0  0.38030  0.82740  0.88100  1.0000 0.6206475874
C   C57       1.0  0.28880  0.63600  0.52630  1.0000 0.2897143395
C   C58       1.0  0.71120  0.13600  0.97370  1.0000 0.2897143395
C   C59       1.0  0.71120  0.36400  0.47370  1.0000 0.2897143395
C   C60       1.0  0.28880  0.86400  0.02630  1.0000 0.2897143395
C   C61       1.0  0.43590  0.59400  0.50060  1.0000 0.3006869684
C   C62       1.0  0.56410  0.09400  0.99940  1.0000 0.3006869684
C   C63       1.0  0.56410  0.40600  0.49940  1.0000 0.3006869684
C   C64       1.0  0.43590  0.90600  0.00060  1.0000 0.3006869684
C   C65       1.0  0.45140  0.41400  0.27840  1.0000 0.6259564589
C   C66       1.0  0.54860  0.91400  0.22160  1.0000 0.6259564589
C   C67       1.0  0.54860  0.58600  0.72160  1.0000 0.6259564589
C   C68       1.0  0.45140  0.08600  0.77840  1.0000 0.6259564589
C   C69       1.0  0.51300  0.58960  0.33870  1.0000 0.2897143395
C   C70       1.0  0.48700  0.08960  0.16130  1.0000 0.2897143395
C   C71       1.0  0.48700  0.41040  0.66130  1.0000 0.2897143395
C   C72       1.0  0.51300  0.91040  0.83870  1.0000 0.2897143395
C   C73       1.0  0.10450  0.66400  0.35690  1.0000 -0.0890121628
C   C74       1.0  0.89550  0.16400  0.14310  1.0000 -0.0890121628
C   C75       1.0  0.89550  0.33600  0.64310  1.0000 -0.0890121628
C   C76       1.0  0.10450  0.83600  0.85690  1.0000 -0.0890121628
C   C77       1.0  0.13830  0.64890  0.45100  1.0000 -0.1097830525
C   C78       1.0  0.86170  0.14890  0.04900  1.0000 -0.1097830525
C   C79       1.0  0.86170  0.35110  0.54900  1.0000 -0.1097830525
C   C80       1.0  0.13830  0.85110  0.95100  1.0000 -0.1097830525
C   C81       1.0  0.29030  0.37560  0.51630  1.0000 -0.0487105381
C   C82       1.0  0.70970  0.87560  0.98370  1.0000 -0.0487105381
C   C83       1.0  0.70970  0.62440  0.48370  1.0000 -0.0487105381
C   C84       1.0  0.29030  0.12440  0.01630  1.0000 -0.0446890463
C   C85       1.0  0.41480  0.72300  0.41340  1.0000 -0.0072367701
C   C86       1.0  0.58520  0.22300  0.08660  1.0000 -0.0072367701
C   C87       1.0  0.58520  0.27700  0.58660  1.0000 -0.0072367701
C   C88       1.0  0.41480  0.77700  0.91340  1.0000 -0.0072367701
C   C89       1.0  0.50330  0.38840  0.26260  1.0000 -0.0487105381
C   C90       1.0  0.49670  0.88840  0.23740  1.0000 -0.0487105381
C   C91       1.0  0.49670  0.61160  0.73740  1.0000 -0.0487105381
C   C92       1.0  0.50330  0.11160  0.76260  1.0000 -0.0487105381
C   C93       1.0  0.05850  0.69590  0.36980  1.0000 -0.1491430049
C   C94       1.0  0.94150  0.19590  0.13020  1.0000 -0.1491430049
C   C95       1.0  0.94150  0.30410  0.63020  1.0000 -0.1491430049
C   C96       1.0  0.05850  0.80410  0.86980  1.0000 -0.1491430049
C   C97       1.0  0.09210  0.68030  0.46370  1.0000 -0.1595456007
C   C98       1.0  0.90790  0.18030  0.03630  1.0000 -0.1595456007
C   C99       1.0  0.90790  0.31970  0.53630  1.0000 -0.1595456007
C   C100      1.0  0.09210  0.81970  0.96370  1.0000 -0.1595456007
C   C101      1.0  0.26840  0.41480  0.55220  1.0000 -0.0994860842
C   C102      1.0  0.73160  0.91480  0.94780  1.0000 -0.0994860842
C   C103      1.0  0.73160  0.58520  0.44780  1.0000 -0.0994860842
C   C104      1.0  0.26840  0.08520  0.05220  1.0000 -0.0994860842
C   C105      1.0  0.28650  0.30960  0.52210  1.0000 -0.0994860842
C   C106      1.0  0.71350  0.80960  0.97790  1.0000 -0.0994860842
C   C107      1.0  0.71350  0.69040  0.47790  1.0000 -0.0994860842
C   C108      1.0  0.28650  0.19040  0.02210  1.0000 -0.0994860842
C   C109      1.0  0.40010  0.74340  0.46200  1.0000 -0.1701387857
C   C110      1.0  0.59990  0.24340  0.03800  1.0000 -0.1701387857
C   C111      1.0  0.59990  0.25660  0.53800  1.0000 -0.1701387857
C   C112      1.0  0.40010  0.75660  0.96200  1.0000 -0.1701387857
C   C113      1.0  0.46340  0.74350  0.39830  1.0000 -0.1701387857
C   C114      1.0  0.53660  0.24350  0.10170  1.0000 -0.1701387857
C   C115      1.0  0.53660  0.25650  0.60170  1.0000 -0.1701387857
C   C116      1.0  0.46340  0.75650  0.89830  1.0000 -0.1701387857
C   C117      1.0  0.34330  0.64380  0.61470  1.0000 -0.3411584553
C   C118      1.0  0.65670  0.14380  0.88530  1.0000 -0.3411584553
C   C119      1.0  0.65670  0.35620  0.38530  1.0000 -0.3411584553
C   C120      1.0  0.34330  0.85620  0.11470  1.0000 -0.3411584553
C   C121      1.0  0.25450  0.70090  0.59440  1.0000 -0.3505712842
C   C122      1.0  0.74550  0.20090  0.90560  1.0000 -0.3505712842
C   C123      1.0  0.74550  0.29910  0.40560  1.0000 -0.3505712842
C   C124      1.0  0.25450  0.79910  0.09440  1.0000 -0.3505712842
C   C125      1.0  0.50910  0.63730  0.56690  1.0000 -0.369940119
C   C126      1.0  0.49090  0.13730  0.93310  1.0000 -0.369940119
C   C127      1.0  0.49090  0.36270  0.43310  1.0000 -0.369940119
C   C128      1.0  0.50910  0.86270  0.06690  1.0000 -0.369940119
C   C129      1.0  0.52920  0.58320  0.48300  1.0000 -0.3300791812
C   C130      1.0  0.47080  0.08320  0.01700  1.0000 -0.3300791812
C   C131      1.0  0.47080  0.41680  0.51700  1.0000 -0.3300791812
C   C132      1.0  0.52920  0.91680  0.98300  1.0000 -0.3300791812
C   C133      1.0  0.53530  0.42680  0.23570  1.0000 -0.0994860842
C   C134      1.0  0.46470  0.92680  0.26430  1.0000 -0.0994860842
C   C135      1.0  0.46470  0.57320  0.76430  1.0000 -0.0994860842
C   C136      1.0  0.53530  0.07320  0.73570  1.0000 -0.0994860842
C   C137      1.0  0.51900  0.32450  0.27280  1.0000 -0.1097830525
C   C138      1.0  0.48100  0.82450  0.22720  1.0000 -0.1097830525
C   C139      1.0  0.48100  0.67550  0.72720  1.0000 -0.1097830525
C   C140      1.0  0.51900  0.17550  0.77280  1.0000 -0.1097830525
C   C141      1.0  0.60210  0.63900  0.35350  1.0000 -0.3580462803
C   C142      1.0  0.39790  0.13900  0.14650  1.0000 -0.3580462803
C   C143      1.0  0.39790  0.36100  0.64650  1.0000 -0.3580462803
C   C144      1.0  0.60210  0.86100  0.85350  1.0000 -0.3580462803
C   C145      1.0  0.59120  0.52450  0.37650  1.0000 -0.3505712842
C   C146      1.0  0.40880  0.02450  0.12350  1.0000 -0.3505712842
C   C147      1.0  0.40880  0.47550  0.62350  1.0000 -0.3505712842
C   C148      1.0  0.59120  0.97550  0.87650  1.0000 -0.3505712842
C   C149      1.0  0.05160  0.70240  0.42360  1.0000 0.0720617945
C   C150      1.0  0.94840  0.20240  0.07640  1.0000 0.0720617945
C   C151      1.0  0.94840  0.29760  0.57640  1.0000 0.0720617945
C   C152      1.0  0.05160  0.79760  0.92360  1.0000 0.0720617945
C   C153      1.0  0.24520  0.38990  0.59420  1.0000 -0.1595456007
C   C154      1.0  0.75480  0.88990  0.90580  1.0000 -0.1595456007
C   C155      1.0  0.75480  0.61010  0.40580  1.0000 -0.1595456007
C   C156      1.0  0.24520  0.11010  0.09420  1.0000 -0.1595456007
C   C157      1.0  0.26290  0.28340  0.56420  1.0000 -0.1491430049
C   C158      1.0  0.73710  0.78340  0.93580  1.0000 -0.1491430049
C   C159      1.0  0.73710  0.71660  0.43580  1.0000 -0.1491430049
C   C160      1.0  0.26290  0.21660  0.06420  1.0000 -0.1491430049
C   C161      1.0  0.43500  0.78260  0.49670  1.0000 0.0720617945
C   C162      1.0  0.56500  0.28260  0.00330  1.0000 0.0720617945
C   C163      1.0  0.56500  0.21740  0.50330  1.0000 0.0720617945
C   C164      1.0  0.43500  0.71740  0.99670  1.0000 0.0720617945
C   C165      1.0  0.49930  0.78340  0.43180  1.0000 0.0720617945
C   C166      1.0  0.50070  0.28340  0.06820  1.0000 0.0720617945
C   C167      1.0  0.50070  0.21660  0.56820  1.0000 0.0720617945
C   C168      1.0  0.49930  0.71660  0.93180  1.0000 0.0720617945
C   C169      1.0  0.58340  0.40440  0.21950  1.0000 -0.1701387857
C   C170      1.0  0.41660  0.90440  0.28050  1.0000 -0.1701387857
C   C171      1.0  0.41660  0.59560  0.78050  1.0000 -0.1701387857
C   C172      1.0  0.58340  0.09560  0.71950  1.0000 -0.1701387857
C   C173      1.0  0.56630  0.30020  0.25580  1.0000 -0.1595456007
C   C174      1.0  0.43370  0.80020  0.24420  1.0000 -0.1595456007
C   C175      1.0  0.43370  0.69980  0.74420  1.0000 -0.1595456007
C   C176      1.0  0.56630  0.19980  0.75580  1.0000 -0.1595456007
C   C177      1.0  0.99930  0.72990  0.43770  1.0000 0.0773722726
C   C178      1.0  0.00070  0.22990  0.06230  1.0000 0.0773722726
C   C179      1.0  0.00070  0.27010  0.56230  1.0000 0.0773722726
C   C180      1.0  0.99930  0.77010  0.93770  1.0000 0.0773722726
C   C181      1.0  0.24270  0.32350  0.60120  1.0000 0.0720617945
C   C182      1.0  0.75730  0.82350  0.89880  1.0000 0.0720617945
C   C183      1.0  0.75730  0.67650  0.39880  1.0000 0.0720617945
C   C184      1.0  0.24270  0.17650  0.10120  1.0000 0.0720617945
C   C185      1.0  0.42170  0.80150  0.55030  1.0000 0.0720617945
C   C186      1.0  0.57830  0.30150  0.94970  1.0000 0.0720617945
C   C187      1.0  0.57830  0.19850  0.44970  1.0000 0.0720617945
C   C188      1.0  0.42170  0.69850  0.05030  1.0000 0.0720617945
C   C189      1.0  0.48430  0.80270  0.48150  1.0000 -0.1988984664
C   C190      1.0  0.51570  0.30270  0.01850  1.0000 -0.1988984664
C   C191      1.0  0.51570  0.19730  0.51850  1.0000 -0.1988984664
C   C192      1.0  0.48430  0.69730  0.98150  1.0000 -0.1988984664
C   C193      1.0  0.55190  0.80500  0.41790  1.0000 0.0720617945
C   C194      1.0  0.44810  0.30500  0.08210  1.0000 0.0720617945
C   C195      1.0  0.44810  0.19500  0.58210  1.0000 0.0720617945
C   C196      1.0  0.55190  0.69500  0.91790  1.0000 0.0720617945
C   C197      1.0  0.59930  0.34020  0.22930  1.0000 0.0773722726
C   C198      1.0  0.40070  0.84020  0.27070  1.0000 0.0773722726
C   C199      1.0  0.40070  0.65980  0.77070  1.0000 0.0773722726
C   C200      1.0  0.59930  0.15980  0.72930  1.0000 0.0773722726
C   C201      1.0  0.96900  0.77610  0.40580  1.0000 -0.1701387857
C   C202      1.0  0.03100  0.27610  0.09420  1.0000 -0.1701387857
C   C203      1.0  0.03100  0.22390  0.59420  1.0000 -0.1701387857
C   C204      1.0  0.96900  0.72390  0.90580  1.0000 -0.1701387857
C   C205      1.0  0.97940  0.70640  0.48330  1.0000 -0.2217751463
C   C206      1.0  0.02060  0.20640  0.01670  1.0000 -0.2217751463
C   C207      1.0  0.02060  0.29360  0.51670  1.0000 -0.2217751463
C   C208      1.0  0.97940  0.79360  0.98330  1.0000 -0.2217751463
C   C209      1.0  0.22330  0.29610  0.64970  1.0000 0.0720617945
C   C210      1.0  0.77670  0.79610  0.85030  1.0000 0.0720617945
C   C211      1.0  0.77670  0.70390  0.35030  1.0000 0.0720617945
C   C212      1.0  0.22330  0.20390  0.14970  1.0000 0.0720617945
C   C213      1.0  0.36850  0.81820  0.55710  1.0000 -0.1701387857
C   C214      1.0  0.63150  0.31820  0.94290  1.0000 -0.1701387857
C   C215      1.0  0.63150  0.18180  0.44290  1.0000 -0.1701387857
C   C216      1.0  0.36850  0.68180  0.05710  1.0000 -0.1701387857
C   C217      1.0  0.46410  0.80330  0.59510  1.0000 -0.1701387857
C   C218      1.0  0.53590  0.30330  0.90490  1.0000 -0.1701387857
C   C219      1.0  0.53590  0.19670  0.40490  1.0000 -0.1701387857
C   C220      1.0  0.46410  0.69670  0.09510  1.0000 -0.1701387857
C   C221      1.0  0.55790  0.81940  0.36440  1.0000 -0.1595456007
C   C222      1.0  0.44210  0.31940  0.13560  1.0000 -0.1595456007
C   C223      1.0  0.44210  0.18060  0.63560  1.0000 -0.1595456007
C   C224      1.0  0.55790  0.68060  0.86440  1.0000 -0.1595456007
C   C225      1.0  0.59750  0.81170  0.45940  1.0000 -0.1701387857
C   C226      1.0  0.40250  0.31170  0.04060  1.0000 -0.1701387857
C   C227      1.0  0.40250  0.18830  0.54060  1.0000 -0.1701387857
C   C228      1.0  0.59750  0.68830  0.95940  1.0000 -0.1701387857
C   C229      1.0  0.65110  0.31500  0.21210  1.0000 0.0720617945
C   C230      1.0  0.34890  0.81500  0.28790  1.0000 0.0720617945
C   C231      1.0  0.34890  0.68500  0.78790  1.0000 0.0720617945
C   C232      1.0  0.65110  0.18500  0.71210  1.0000 0.0720617945
C   C233      1.0  0.91980  0.79930  0.41960  1.0000 -0.0072367701
C   C234      1.0  0.08020  0.29930  0.08040  1.0000 -0.0072367701
C   C235      1.0  0.08020  0.20070  0.58040  1.0000 -0.0072367701
C   C236      1.0  0.91980  0.70070  0.91960  1.0000 -0.0072367701
C   C237      1.0  0.93060  0.72870  0.49730  1.0000 0.0720617945
C   C238      1.0  0.06940  0.22870  0.00270  1.0000 0.0720617945
C   C239      1.0  0.06940  0.27130  0.50270  1.0000 0.0720617945
C   C240      1.0  0.93060  0.77130  0.99730  1.0000 0.0720617945
C   C241      1.0  0.25650  0.25370  0.68360  1.0000 -0.1491430049
C   C242      1.0  0.74350  0.75370  0.81640  1.0000 -0.1491430049
C   C243      1.0  0.74350  0.74630  0.31640  1.0000 -0.1491430049
C   C244      1.0  0.25650  0.24630  0.18360  1.0000 -0.1491430049
C   C245      1.0  0.17190  0.31380  0.66360  1.0000 -0.1912740041
C   C246      1.0  0.82810  0.81380  0.83640  1.0000 -0.1912740041
C   C247      1.0  0.82810  0.68620  0.33640  1.0000 -0.1912740041
C   C248      1.0  0.17190  0.18620  0.16360  1.0000 -0.1912740041
C   C249      1.0  0.35890  0.84080  0.60730  1.0000 -0.0890121628
C   C250      1.0  0.64110  0.34080  0.89270  1.0000 -0.0890121628
C   C251      1.0  0.64110  0.15920  0.39270  1.0000 -0.0890121628
C   C252      1.0  0.35890  0.65920  0.10730  1.0000 -0.0890121628
C   C253      1.0  0.45390  0.82560  0.64460  1.0000 -0.0994860842
C   C254      1.0  0.54610  0.32560  0.85540  1.0000 -0.0994860842
C   C255      1.0  0.54610  0.17440  0.35540  1.0000 -0.0994860842
C   C256      1.0  0.45390  0.67440  0.14460  1.0000 -0.0994860842
C   C257      1.0  0.60780  0.84250  0.35270  1.0000 -0.0890121628
C   C258      1.0  0.39220  0.34250  0.14730  1.0000 -0.0890121628
C   C259      1.0  0.39220  0.15750  0.64730  1.0000 -0.0890121628
C   C260      1.0  0.60780  0.65750  0.85270  1.0000 -0.0890121628
C   C261      1.0  0.64570  0.83610  0.44660  1.0000 -0.0994860842
C   C262      1.0  0.35430  0.33610  0.05340  1.0000 -0.0890121628
C   C263      1.0  0.35430  0.16390  0.55340  1.0000 -0.0890121628
C   C264      1.0  0.64570  0.66390  0.94660  1.0000 -0.0994860842
C   C265      1.0  0.66710  0.33570  0.16340  1.0000 -0.1988984664
C   C266      1.0  0.33290  0.83570  0.33660  1.0000 -0.1988984664
C   C267      1.0  0.33290  0.66430  0.83660  1.0000 -0.1988984664
C   C268      1.0  0.66710  0.16430  0.66340  1.0000 -0.1988984664
C   C269      1.0  0.68400  0.27230  0.24550  1.0000 -0.1595456007
C   C270      1.0  0.31600  0.77230  0.25450  1.0000 -0.1595456007
C   C271      1.0  0.31600  0.72770  0.75450  1.0000 -0.1595456007
C   C272      1.0  0.68400  0.22770  0.74550  1.0000 -0.1595456007
C   C273      1.0  0.89980  0.77560  0.46470  1.0000 -0.1701387857
C   C274      1.0  0.10020  0.27560  0.03530  1.0000 -0.1701387857
C   C275      1.0  0.10020  0.22440  0.53530  1.0000 -0.1701387857
C   C276      1.0  0.89980  0.72440  0.96470  1.0000 -0.1701387857
C   C277      1.0  0.89050  0.85210  0.38510  1.0000 0.6206475874
C   C278      1.0  0.10950  0.35210  0.11490  1.0000 0.6206475874
C   C279      1.0  0.10950  0.14790  0.61490  1.0000 0.6206475874
C   C280      1.0  0.89050  0.64790  0.88510  1.0000 0.6206475874
C   C281      1.0  0.91190  0.70050  0.54620  1.0000 0.0720617945
C   C282      1.0  0.08810  0.20050  0.95380  1.0000 0.0720617945
C   C283      1.0  0.08810  0.29950  0.45380  1.0000 0.0720617945
C   C284      1.0  0.91190  0.79950  0.04620  1.0000 0.0720617945
C   C285      1.0  0.23920  0.22920  0.73010  1.0000 -0.0164910351
C   C286      1.0  0.76080  0.72920  0.76990  1.0000 -0.0164910351
C   C287      1.0  0.76080  0.77080  0.26990  1.0000 -0.0164910351
C   C288      1.0  0.23920  0.27080  0.23010  1.0000 -0.0164910351
C   C289      1.0  0.15450  0.28880  0.70940  1.0000 0.0773722726
C   C290      1.0  0.84550  0.78880  0.79060  1.0000 0.0773722726
C   C291      1.0  0.84550  0.71120  0.29060  1.0000 0.0773722726
C   C292      1.0  0.15450  0.21120  0.20940  1.0000 0.0773722726
C   C293      1.0  0.40140  0.84670  0.65100  1.0000 -0.0487105381
C   C294      1.0  0.59860  0.34670  0.84900  1.0000 -0.0487105381
C   C295      1.0  0.59860  0.15330  0.34900  1.0000 -0.0487105381
C   C296      1.0  0.40140  0.65330  0.15100  1.0000 -0.0487105381
C   C297      1.0  0.65090  0.85150  0.39460  1.0000 -0.030766452
C   C298      1.0  0.34910  0.35150  0.10540  1.0000 -0.030766452
C   C299      1.0  0.34910  0.14850  0.60540  1.0000 -0.030766452
C   C300      1.0  0.65090  0.64850  0.89460  1.0000 -0.030766452
C   C301      1.0  0.71580  0.31350  0.14820  1.0000 0.0720617945
C   C302      1.0  0.28420  0.81350  0.35180  1.0000 0.0720617945
C   C303      1.0  0.28420  0.68650  0.85180  1.0000 0.0720617945
C   C304      1.0  0.71580  0.18650  0.64820  1.0000 0.0720617945
C   C305      1.0  0.73330  0.25000  0.23040  1.0000 -0.0025455285
C   C306      1.0  0.26670  0.75000  0.26960  1.0000 -0.0025455285
C   C307      1.0  0.26670  0.75000  0.76960  1.0000 -0.0025455285
C   C308      1.0  0.73330  0.25000  0.73040  1.0000 -0.0025455285
C   C309      1.0  0.85880  0.67970  0.54580  1.0000 -0.1491430049
C   C310      1.0  0.14120  0.17970  0.95420  1.0000 -0.1491430049
C   C311      1.0  0.14120  0.32030  0.45420  1.0000 -0.1491430049
C   C312      1.0  0.85880  0.82030  0.04580  1.0000 -0.1491430049
C   C313      1.0  0.95020  0.69200  0.59350  1.0000 -0.1595456007
C   C314      1.0  0.04980  0.19200  0.90650  1.0000 -0.1595456007
C   C315      1.0  0.04980  0.30800  0.40650  1.0000 -0.1595456007
C   C316      1.0  0.95020  0.80800  0.09350  1.0000 -0.1595456007
C   C317      1.0  0.18830  0.24620  0.74210  1.0000 -0.1491430049
C   C318      1.0  0.81170  0.74620  0.75790  1.0000 -0.1491430049
C   C319      1.0  0.81170  0.75380  0.25790  1.0000 -0.1491430049
C   C320      1.0  0.18830  0.25380  0.24210  1.0000 -0.1491430049
C   C321      1.0  0.27690  0.18900  0.76880  1.0000 0.5557811688
C   C322      1.0  0.72310  0.68900  0.73120  1.0000 0.5557811688
C   C323      1.0  0.72310  0.81100  0.23120  1.0000 0.5557811688
C   C324      1.0  0.27690  0.31100  0.26880  1.0000 0.5557811688
C   C325      1.0  0.10320  0.31030  0.72730  1.0000 0.0773722726
C   C326      1.0  0.89680  0.81030  0.77270  1.0000 0.0773722726
C   C327      1.0  0.89680  0.68970  0.27270  1.0000 0.0773722726
C   C328      1.0  0.10320  0.18970  0.22730  1.0000 0.0773722726
C   C329      1.0  0.39350  0.87890  0.70160  1.0000 0.5418012123
C   C330      1.0  0.60650  0.37890  0.79840  1.0000 0.5418012123
C   C331      1.0  0.60650  0.12110  0.29840  1.0000 0.5418012123
C   C332      1.0  0.39350  0.62110  0.20160  1.0000 0.5418012123
C   C333      1.0  0.70350  0.88280  0.38440  1.0000 0.531628115
C   C334      1.0  0.29650  0.38280  0.11560  1.0000 0.531628115
C   C335      1.0  0.29650  0.11720  0.61560  1.0000 0.531628115
C   C336      1.0  0.70350  0.61720  0.88440  1.0000 0.531628115
C   C337      1.0  0.74780  0.27000  0.18110  1.0000 -0.1595456007
C   C338      1.0  0.25220  0.77000  0.31890  1.0000 -0.1595456007
C   C339      1.0  0.25220  0.73000  0.81890  1.0000 -0.1595456007
C   C340      1.0  0.74780  0.23000  0.68110  1.0000 -0.1595456007
C   C341      1.0  0.73390  0.33750  0.09700  1.0000 0.0773722726
C   C342      1.0  0.26610  0.83750  0.40300  1.0000 0.0773722726
C   C343      1.0  0.26610  0.66250  0.90300  1.0000 0.0773722726
C   C344      1.0  0.73390  0.16250  0.59700  1.0000 0.0773722726
C   C345      1.0  0.77030  0.20630  0.26780  1.0000 0.5418012123
C   C346      1.0  0.22970  0.70630  0.23220  1.0000 0.5418012123
C   C347      1.0  0.22970  0.79370  0.73220  1.0000 0.5418012123
C   C348      1.0  0.77030  0.29370  0.76780  1.0000 0.5418012123
C   C349      1.0  0.84490  0.64640  0.59000  1.0000 -0.0890121628
C   C350      1.0  0.15510  0.14640  0.91000  1.0000 -0.0890121628
C   C351      1.0  0.15510  0.35360  0.41000  1.0000 -0.0890121628
C   C352      1.0  0.84490  0.85360  0.09000  1.0000 -0.0890121628
C   C353      1.0  0.93550  0.65980  0.63750  1.0000 -0.0994860842
C   C354      1.0  0.06450  0.15980  0.86250  1.0000 -0.0994860842
C   C355      1.0  0.06450  0.34020  0.36250  1.0000 -0.0994860842
C   C356      1.0  0.93550  0.84020  0.13750  1.0000 -0.0994860842
C   C357      1.0  0.09040  0.37640  0.72590  1.0000 -0.1595456007
C   C358      1.0  0.90960  0.87640  0.77410  1.0000 -0.1595456007
C   C359      1.0  0.90960  0.62360  0.27410  1.0000 -0.1595456007
C   C360      1.0  0.09040  0.12360  0.22590  1.0000 -0.1595456007
C   C361      1.0  0.06910  0.26870  0.74920  1.0000 -0.1491430049
C   C362      1.0  0.93090  0.76870  0.75080  1.0000 -0.1491430049
C   C363      1.0  0.93090  0.73130  0.25080  1.0000 -0.1491430049
C   C364      1.0  0.06910  0.23130  0.24920  1.0000 -0.1491430049
C   C365      1.0  0.72430  0.40220  0.08060  1.0000 -0.1595456007
C   C366      1.0  0.27570  0.90220  0.41940  1.0000 -0.1595456007
C   C367      1.0  0.27570  0.59780  0.91940  1.0000 -0.1595456007
C   C368      1.0  0.72430  0.09780  0.58060  1.0000 -0.1595456007
C   C369      1.0  0.76220  0.29820  0.06580  1.0000 -0.1701387857
C   C370      1.0  0.23780  0.79820  0.43420  1.0000 -0.1701387857
C   C371      1.0  0.23780  0.70180  0.93420  1.0000 -0.1701387857
C   C372      1.0  0.76220  0.20180  0.56580  1.0000 -0.1701387857
C   C373      1.0  0.88320  0.63480  0.63600  1.0000 -0.030766452
C   C374      1.0  0.11680  0.13480  0.86400  1.0000 -0.030766452
C   C375      1.0  0.11680  0.36520  0.36400  1.0000 -0.030766452
C   C376      1.0  0.88320  0.86520  0.13600  1.0000 -0.030766452
C   C377      1.0  0.04630  0.39890  0.74820  1.0000 -0.0994860842
C   C378      1.0  0.95370  0.89890  0.75180  1.0000 -0.0994860842
C   C379      1.0  0.95370  0.60110  0.25180  1.0000 -0.0994860842
C   C380      1.0  0.04630  0.10110  0.24820  1.0000 -0.0994860842
C   C381      1.0  0.02390  0.29130  0.77100  1.0000 -0.115507545
C   C382      1.0  0.97610  0.79130  0.72900  1.0000 -0.115507545
C   C383      1.0  0.97610  0.70870  0.22900  1.0000 -0.115507545
C   C384      1.0  0.02390  0.20870  0.27100  1.0000 -0.115507545
C   C385      1.0  0.74420  0.42560  0.03480  1.0000 -0.1097830525
C   C386      1.0  0.25580  0.92560  0.46520  1.0000 -0.1097830525
C   C387      1.0  0.25580  0.57440  0.96520  1.0000 -0.1097830525
C   C388      1.0  0.74420  0.07440  0.53480  1.0000 -0.1097830525
C   C389      1.0  0.78010  0.32260  0.01920  1.0000 -0.1097830525
C   C390      1.0  0.21990  0.82260  0.48080  1.0000 -0.1097830525
C   C391      1.0  0.21990  0.67740  0.98080  1.0000 -0.1097830525
C   C392      1.0  0.78010  0.17740  0.51920  1.0000 -0.1097830525
C   C393      1.0  0.87020  0.59340  0.68170  1.0000 0.6259564589
C   C394      1.0  0.12980  0.09340  0.81830  1.0000 0.6259564589
C   C395      1.0  0.12980  0.40660  0.31830  1.0000 0.6259564589
C   C396      1.0  0.87020  0.90660  0.18170  1.0000 0.6259564589
C   C397      1.0  0.01270  0.35660  0.77120  1.0000 -0.030766452
C   C398      1.0  0.98730  0.85660  0.72880  1.0000 -0.030766452
C   C399      1.0  0.98730  0.64340  0.22880  1.0000 -0.030766452
C   C400      1.0  0.01270  0.14340  0.27120  1.0000 -0.030766452
C   C401      1.0  0.77040  0.38660  0.00360  1.0000 -0.0487105381
C   C402      1.0  0.22960  0.88660  0.49640  1.0000 -0.0487105381
C   C403      1.0  0.22960  0.61340  0.99640  1.0000 -0.0487105381
C   C404      1.0  0.77040  0.11340  0.50360  1.0000 -0.0487105381
C   C405      1.0  0.96570  0.38280  0.79550  1.0000 0.6134563739
C   C406      1.0  0.03430  0.88280  0.70450  1.0000 0.6134563739
C   C407      1.0  0.03430  0.61720  0.20450  1.0000 0.6134563739
C   C408      1.0  0.96570  0.11720  0.29550  1.0000 0.6134563739
C   C409      1.0  0.79220  0.41330  0.95360  1.0000 0.491895927
C   C410      1.0  0.20780  0.91330  0.54640  1.0000 0.491895927
C   C411      1.0  0.20780  0.58670  0.04640  1.0000 0.491895927
C   C412      1.0  0.79220  0.08670  0.45360  1.0000 0.491895927
N   N1        1.0  0.39380  0.50510  0.09060  1.0000 0.0141901196
N   N2        1.0  0.60620  0.00510  0.40940  1.0000 0.0141901196
N   N3        1.0  0.60620  0.49490  0.90940  1.0000 0.0141901196
N   N4        1.0  0.39380  0.99490  0.59060  1.0000 0.0141901196
N   N5        1.0  0.95120  0.49960  0.04870  1.0000 0.0407744068
N   N6        1.0  0.04880  0.99960  0.45130  1.0000 0.0407744068
N   N7        1.0  0.04880  0.50040  0.95130  1.0000 0.0407744068
N   N8        1.0  0.95120  0.00040  0.54870  1.0000 0.0407744068
N   N9        1.0  0.92010  0.36480  0.21260  1.0000 0.0306723187
N   N10       1.0  0.07990  0.86480  0.28740  1.0000 0.0306723187
N   N11       1.0  0.07990  0.63520  0.78740  1.0000 0.0306723187
N   N12       1.0  0.92010  0.13520  0.71260  1.0000 0.0306723187
N   N13       1.0  0.29300  0.65650  0.57670  1.0000 0.0306723187
N   N14       1.0  0.70700  0.15650  0.92330  1.0000 0.0306723187
N   N15       1.0  0.70700  0.34350  0.42330  1.0000 0.0306723187
N   N16       1.0  0.29300  0.84350  0.07670  1.0000 0.0306723187
N   N17       1.0  0.48830  0.60440  0.51580  1.0000 0.0306723187
N   N18       1.0  0.51170  0.10440  0.98420  1.0000 0.0306723187
N   N19       1.0  0.51170  0.39560  0.48420  1.0000 0.0306723187
N   N20       1.0  0.48830  0.89560  0.01580  1.0000 0.0306723187
N   N21       1.0  0.56640  0.58540  0.35600  1.0000 0.0306723187
N   N22       1.0  0.43360  0.08540  0.14400  1.0000 0.0306723187
N   N23       1.0  0.43360  0.41460  0.64400  1.0000 0.0306723187
N   N24       1.0  0.56640  0.91460  0.85600  1.0000 0.0306723187
O   O1        1.0  0.18625  0.43570  0.20880  1.0000 -1.0913425852
O   O2        1.0  0.81375  0.93570  0.29120  1.0000 -1.0913425852
O   O3        1.0  0.81375  0.56430  0.79120  1.0000 -1.0913425852
O   O4        1.0  0.18625  0.06430  0.70880  1.0000 -1.0913425852
O   O5        1.0  0.23454  0.55000  0.18910  1.0000 -1.0742387344
O   O6        1.0  0.76546  0.05000  0.31090  1.0000 -1.0742387344
O   O7        1.0  0.76546  0.45000  0.81090  1.0000 -1.0742387344
O   O8        1.0  0.23454  0.95000  0.68910  1.0000 -1.0742387344
O   O9        1.0  0.13012  0.52100  0.13041  1.0000 -1.1033194432
O   O10       1.0  0.86988  0.02100  0.36959  1.0000 -1.1033194432
O   O11       1.0  0.86988  0.47900  0.86959  1.0000 -1.1033194432
O   O12       1.0  0.13012  0.97900  0.63041  1.0000 -1.1033194432
O   O13       1.0  0.30100  0.51410  0.10240  1.0000 -0.2899084781
O   O14       1.0  0.69900  0.01410  0.39760  1.0000 -0.2899084781
O   O15       1.0  0.69900  0.48590  0.89760  1.0000 -0.2899084781
O   O16       1.0  0.30100  0.98590  0.60240  1.0000 -0.2899084781
O   O17       1.0  0.14910  0.38000  0.09660  1.0000 -0.6719679196
O   O18       1.0  0.85090  0.88000  0.40340  1.0000 -0.6719679196
O   O19       1.0  0.85090  0.62000  0.90340  1.0000 -0.6719679196
O   O20       1.0  0.14910  0.12000  0.59660  1.0000 -0.6719679196
O   O21       1.0  0.29150  0.40370  0.16280  1.0000 -0.6280948092
O   O22       1.0  0.70850  0.90370  0.33720  1.0000 -0.6280948092
O   O23       1.0  0.70850  0.59630  0.83720  1.0000 -0.6280948092
O   O24       1.0  0.29150  0.09630  0.66280  1.0000 -0.6280948092
O   O25       1.0  0.25840  0.38820  0.07560  1.0000 -0.6127037276
O   O26       1.0  0.74160  0.88820  0.42440  1.0000 -0.6127037276
O   O27       1.0  0.74160  0.61180  0.92440  1.0000 -0.6127037276
O   O28       1.0  0.25840  0.11180  0.57560  1.0000 -0.6127037276
O   O29       1.0  0.19550  0.52450  0.04330  1.0000 -0.2899084781
O   O30       1.0  0.80450  0.02450  0.45670  1.0000 -0.2899084781
O   O31       1.0  0.80450  0.47550  0.95670  1.0000 -0.2899084781
O   O32       1.0  0.19550  0.97550  0.54330  1.0000 -0.2899084781
O   O33       1.0  0.14331  0.54880  0.23682  1.0000 -1.1033194432
O   O34       1.0  0.85669  0.04880  0.26318  1.0000 -1.1033194432
O   O35       1.0  0.85669  0.45120  0.76318  1.0000 -1.1033194432
O   O36       1.0  0.14331  0.95120  0.73682  1.0000 -1.1033194432
O   O37       1.0  0.02580  0.46310  0.10560  1.0000 -0.5701853504
O   O38       1.0  0.97420  0.96310  0.39440  1.0000 -0.5701853504
O   O39       1.0  0.97420  0.53690  0.89440  1.0000 -0.5701853504
O   O40       1.0  0.02580  0.03690  0.60560  1.0000 -0.5701853504
O   O41       1.0  0.99390  0.42580  0.20310  1.0000 -0.4736828079
O   O42       1.0  0.00610  0.92580  0.29690  1.0000 -0.4736828079
O   O43       1.0  0.00610  0.57420  0.79690  1.0000 -0.4736828079
O   O44       1.0  0.99390  0.07420  0.70310  1.0000 -0.4736828079
O   O45       1.0  0.03130  0.55760  0.19180  1.0000 -0.6921714117
O   O46       1.0  0.96870  0.05760  0.30820  1.0000 -0.6921714117
O   O47       1.0  0.96870  0.44240  0.80820  1.0000 -0.6921714117
O   O48       1.0  0.03130  0.94240  0.69180  1.0000 -0.6921714117
O   O49       1.0  0.09450  0.36360  0.15860  1.0000 -0.6212025652
O   O50       1.0  0.90550  0.86360  0.34140  1.0000 -0.6212025652
O   O51       1.0  0.90550  0.63640  0.84140  1.0000 -0.6212025652
O   O52       1.0  0.09450  0.13640  0.65860  1.0000 -0.6212025652
O   O53       1.0  0.09410  0.40960  0.27660  1.0000 -0.6719679196
O   O54       1.0  0.90590  0.90960  0.22340  1.0000 -0.6719679196
O   O55       1.0  0.90590  0.59040  0.72340  1.0000 -0.6719679196
O   O56       1.0  0.09410  0.09040  0.77660  1.0000 -0.6719679196
O   O57       1.0  0.29873  0.57500  0.31708  1.0000 -1.1080546547
O   O58       1.0  0.70127  0.07500  0.18292  1.0000 -1.1080546547
O   O59       1.0  0.70127  0.42500  0.68292  1.0000 -1.1080546547
O   O60       1.0  0.29873  0.92500  0.81708  1.0000 -1.1080546547
O   O61       1.0  0.27400  0.46480  0.36462  1.0000 -1.1216458847
O   O62       1.0  0.72600  0.96480  0.13538  1.0000 -1.1216458847
O   O63       1.0  0.72600  0.53520  0.63538  1.0000 -1.1216458847
O   O64       1.0  0.27400  0.03520  0.86462  1.0000 -1.1216458847
O   O65       1.0  0.31762  0.46140  0.26989  1.0000 -1.1033194432
O   O66       1.0  0.68238  0.96140  0.23011  1.0000 -1.1033194432
O   O67       1.0  0.68238  0.53860  0.73011  1.0000 -1.1033194432
O   O68       1.0  0.31762  0.03860  0.76989  1.0000 -1.1033194432
O   O69       1.0  0.18610  0.57710  0.33688  1.0000 -0.6127037276
O   O70       1.0  0.81390  0.07710  0.16312  1.0000 -0.6127037276
O   O71       1.0  0.81390  0.42290  0.66312  1.0000 -0.6127037276
O   O72       1.0  0.18610  0.92290  0.83688  1.0000 -0.6127037276
O   O73       1.0  0.17240  0.43870  0.32680  1.0000 -0.6212025652
O   O74       1.0  0.82760  0.93870  0.17320  1.0000 -0.6212025652
O   O75       1.0  0.82760  0.56130  0.67320  1.0000 -0.6212025652
O   O76       1.0  0.17240  0.06130  0.82680  1.0000 -0.6212025652
O   O77       1.0  0.12450  0.72620  0.11900  1.0000 -0.5979874303
O   O78       1.0  0.87550  0.22620  0.38100  1.0000 -0.5979874303
O   O79       1.0  0.87550  0.27380  0.88100  1.0000 -0.5979874303
O   O80       1.0  0.12450  0.77380  0.61900  1.0000 -0.5979874303
O   O81       1.0  0.08210  0.63780  0.08570  1.0000 -0.5701853504
O   O82       1.0  0.91790  0.13780  0.41430  1.0000 -0.5701853504
O   O83       1.0  0.91790  0.36220  0.91430  1.0000 -0.5701853504
O   O84       1.0  0.08210  0.86220  0.58570  1.0000 -0.5701853504
O   O85       1.0  0.07240  0.65330  0.19820  1.0000 -0.5888226201
O   O86       1.0  0.92760  0.15330  0.30180  1.0000 -0.5888226201
O   O87       1.0  0.92760  0.34670  0.80180  1.0000 -0.5888226201
O   O88       1.0  0.07240  0.84670  0.69820  1.0000 -0.5888226201
O   O89       1.0  0.24020  0.69350  0.18583  1.0000 -0.5979874303
O   O90       1.0  0.75980  0.19350  0.31417  1.0000 -0.5979874303
O   O91       1.0  0.75980  0.30650  0.81417  1.0000 -0.5979874303
O   O92       1.0  0.24020  0.80650  0.68583  1.0000 -0.5979874303
O   O93       1.0  0.18790  0.68310  0.24912  1.0000 -0.6212025652
O   O94       1.0  0.81210  0.18310  0.25088  1.0000 -0.6212025652
O   O95       1.0  0.81210  0.31690  0.75088  1.0000 -0.6212025652
O   O96       1.0  0.18790  0.81690  0.74912  1.0000 -0.6212025652
O   O97       1.0  0.19820  0.62420  0.08069  1.0000 -0.5347078909
O   O98       1.0  0.80180  0.12420  0.41931  1.0000 -0.5347078909
O   O99       1.0  0.80180  0.37580  0.91931  1.0000 -0.5347078909
O   O100      1.0  0.19820  0.87580  0.58069  1.0000 -0.5347078909
O   O101      1.0  0.38204  0.49060  0.37249  1.0000 -1.1216458847
O   O102      1.0  0.61796  0.99060  0.12751  1.0000 -1.1216458847
O   O103      1.0  0.61796  0.50940  0.62751  1.0000 -1.1216458847
O   O104      1.0  0.38204  0.00940  0.87249  1.0000 -1.1216458847
O   O105      1.0  0.32910  0.46400  0.47682  1.0000 -0.6719679196
O   O106      1.0  0.67090  0.96400  0.02318  1.0000 -0.6719679196
O   O107      1.0  0.67090  0.53600  0.52318  1.0000 -0.6719679196
O   O108      1.0  0.32910  0.03600  0.97682  1.0000 -0.6719679196
O   O109      1.0  0.22990  0.58770  0.42100  1.0000 -0.6598207523
O   O110      1.0  0.77010  0.08770  0.07900  1.0000 -0.6598207523
O   O111      1.0  0.77010  0.41230  0.57900  1.0000 -0.6598207523
O   O112      1.0  0.22990  0.91230  0.92100  1.0000 -0.6598207523
O   O113      1.0  0.33560  0.65830  0.39820  1.0000 -0.6719679196
O   O114      1.0  0.66440  0.15830  0.10180  1.0000 -0.6719679196
O   O115      1.0  0.66440  0.34170  0.60180  1.0000 -0.6719679196
O   O116      1.0  0.33560  0.84170  0.89820  1.0000 -0.6719679196
O   O117      1.0  0.31880  0.59850  0.50830  1.0000 -0.515001433
O   O118      1.0  0.68120  0.09850  0.99170  1.0000 -0.515001433
O   O119      1.0  0.68120  0.40150  0.49170  1.0000 -0.515001433
O   O120      1.0  0.31880  0.90150  0.00830  1.0000 -0.5114462544
O   O121      1.0  0.41500  0.56590  0.45960  1.0000 -0.5114462544
O   O122      1.0  0.58500  0.06590  0.04040  1.0000 -0.5114462544
O   O123      1.0  0.58500  0.43410  0.54040  1.0000 -0.5114462544
O   O124      1.0  0.41500  0.93410  0.95960  1.0000 -0.5114462544
O   O125      1.0  0.39830  0.64750  0.34220  1.0000 -0.6394714285
O   O126      1.0  0.60170  0.14750  0.15780  1.0000 -0.6394714285
O   O127      1.0  0.60170  0.35250  0.65780  1.0000 -0.6394714285
O   O128      1.0  0.39830  0.85250  0.84220  1.0000 -0.6394714285
O   O129      1.0  0.43260  0.46610  0.25510  1.0000 -0.6719679196
O   O130      1.0  0.56740  0.96610  0.24490  1.0000 -0.6719679196
O   O131      1.0  0.56740  0.53390  0.74490  1.0000 -0.6719679196
O   O132      1.0  0.43260  0.03390  0.75510  1.0000 -0.6719679196
O   O133      1.0  0.47960  0.54540  0.34200  1.0000 -0.5347078909
O   O134      1.0  0.52040  0.04540  0.15800  1.0000 -0.5347078909
O   O135      1.0  0.52040  0.45460  0.65800  1.0000 -0.5347078909
O   O136      1.0  0.47960  0.95460  0.84200  1.0000 -0.5347078909
O   O137      1.0  0.34810  0.59530  0.20610  1.0000 -0.6212025652
O   O138      1.0  0.65190  0.09530  0.29390  1.0000 -0.6212025652
O   O139      1.0  0.65190  0.40470  0.79390  1.0000 -0.6212025652
O   O140      1.0  0.34810  0.90470  0.70610  1.0000 -0.6212025652
O   O141      1.0  0.43400  0.61690  0.23860  1.0000 -0.6212025652
O   O142      1.0  0.56600  0.11690  0.26140  1.0000 -0.6212025652
O   O143      1.0  0.56600  0.38310  0.76140  1.0000 -0.6212025652
O   O144      1.0  0.43400  0.88310  0.73860  1.0000 -0.6212025652
O   O145      1.0  0.33170  0.36820  0.43630  1.0000 -0.6598207523
O   O146      1.0  0.66830  0.86820  0.06370  1.0000 -0.6598207523
O   O147      1.0  0.66830  0.63180  0.56370  1.0000 -0.6598207523
O   O148      1.0  0.33170  0.13180  0.93630  1.0000 -0.6598207523
O   O149      1.0  0.42847  0.38350  0.31240  1.0000 -0.6782290508
O   O150      1.0  0.57153  0.88350  0.18760  1.0000 -0.6782290508
O   O151      1.0  0.57153  0.61650  0.68760  1.0000 -0.6782290508
O   O152      1.0  0.42847  0.11650  0.81240  1.0000 -0.6782290508
O   O153      1.0  0.37980  0.28500  0.37430  1.0000 -0.732894199
O   O154      1.0  0.62020  0.78500  0.12570  1.0000 -0.732894199
O   O155      1.0  0.62020  0.71500  0.62570  1.0000 -0.732894199
O   O156      1.0  0.37980  0.21500  0.87430  1.0000 -0.732894199
O   O157      1.0  0.32630  0.31770  0.26293  1.0000 -0.6212025652
O   O158      1.0  0.67370  0.81770  0.23707  1.0000 -0.6212025652
O   O159      1.0  0.67370  0.68230  0.73707  1.0000 -0.6212025652
O   O160      1.0  0.32630  0.18230  0.76293  1.0000 -0.6212025652
O   O161      1.0  0.25860  0.33670  0.30860  1.0000 -0.652068155
O   O162      1.0  0.74140  0.83670  0.19140  1.0000 -0.652068155
O   O163      1.0  0.74140  0.66330  0.69140  1.0000 -0.652068155
O   O164      1.0  0.25860  0.16330  0.80860  1.0000 -0.652068155
O   O165      1.0  0.76000  0.46030  0.93220  1.0000 -0.0072367701
O   O166      1.0  0.24000  0.96030  0.56780  1.0000 -0.0072367701
O   O167      1.0  0.24000  0.53970  0.06780  1.0000 -0.0072367701
O   O168      1.0  0.76000  0.03970  0.43220  1.0000 -0.0072367701
