# DDEC6 charges by PACMAN v1.1 (https://github.com/mtap-research/PACMAN-charge/)
data_2015[Co][nan]3[FSR]13
_chemical_formula_sum              "Co24 H60 C96 N52 O48"
_cell_length_a       17.4611
_cell_length_b       17.4611
_cell_length_c       17.4611
_cell_angle_alpha    90
_cell_angle_beta     90
_cell_angle_gamma    90

_symmetry_space_group_name_H-M    "P 1"
_symmetry_Int_Tables_number       1

loop_
  _symmetry_equiv_pos_as_xyz
  'x, y, z'

loop_
  _atom_site_type_symbol
  _atom_site_label
  _atom_site_symmetry_multiplicity
  _atom_site_fract_x
  _atom_site_fract_y
  _atom_site_fract_z
  _atom_site_occupancy
  _atom_site_charge
Co  Co1       1.0  0.14404  0.37903  0.01180  1.0000 0.8469506586
Co  Co2       1.0  0.35596  0.62097  0.51180  1.0000 0.8469506586
Co  Co3       1.0  0.85596  0.87903  0.48820  1.0000 0.8469506586
Co  Co4       1.0  0.64404  0.12097  0.98820  1.0000 0.8469506586
Co  Co5       1.0  0.01180  0.14404  0.37903  1.0000 0.8469506586
Co  Co6       1.0  0.51180  0.35596  0.62097  1.0000 0.8469506586
Co  Co7       1.0  0.48820  0.85596  0.87903  1.0000 0.8469506586
Co  Co8       1.0  0.98820  0.64404  0.12097  1.0000 0.8469506586
Co  Co9       1.0  0.37903  0.01180  0.14404  1.0000 0.8469506586
Co  Co10      1.0  0.62097  0.51180  0.35596  1.0000 0.8469506586
Co  Co11      1.0  0.87903  0.48820  0.85596  1.0000 0.8469506586
Co  Co12      1.0  0.12097  0.98820  0.64404  1.0000 0.8469506586
Co  Co13      1.0  0.43604  0.56396  0.06396  1.0000 0.6109710122
Co  Co14      1.0  0.06396  0.43604  0.56396  1.0000 0.6109710122
Co  Co15      1.0  0.56396  0.06396  0.43604  1.0000 0.6109710122
Co  Co16      1.0  0.93604  0.93604  0.93604  1.0000 0.6109710122
Co  Co17      1.0  0.96325  0.46325  0.03675  1.0000 1.1008613045
Co  Co18      1.0  0.53675  0.53675  0.53675  1.0000 1.1008613045
Co  Co19      1.0  0.03675  0.96325  0.46325  1.0000 1.1008613045
Co  Co20      1.0  0.46325  0.03675  0.96325  1.0000 1.1008613045
Co  Co21      1.0  0.86090  0.36090  0.13910  1.0000 0.7539871369
Co  Co22      1.0  0.63910  0.63910  0.63910  1.0000 0.756681406
Co  Co23      1.0  0.13910  0.86090  0.36090  1.0000 0.7539871369
Co  Co24      1.0  0.36090  0.13910  0.86090  1.0000 0.7539871369
H   H1        1.0  0.71510  0.27070  0.91520  1.0000 0.1195123963
H   H2        1.0  0.78490  0.72930  0.41520  1.0000 0.1195123963
H   H3        1.0  0.28490  0.77070  0.58480  1.0000 0.1195123963
H   H4        1.0  0.21510  0.22930  0.08480  1.0000 0.1195123963
H   H5        1.0  0.91520  0.71510  0.27070  1.0000 0.1195123963
H   H6        1.0  0.41520  0.78490  0.72930  1.0000 0.1195123963
H   H7        1.0  0.58480  0.28490  0.77070  1.0000 0.1195123963
H   H8        1.0  0.08480  0.21510  0.22930  1.0000 0.1195123963
H   H9        1.0  0.27070  0.91520  0.71510  1.0000 0.1195123963
H   H10       1.0  0.72930  0.41520  0.78490  1.0000 0.1195123963
H   H11       1.0  0.77070  0.58480  0.28490  1.0000 0.1195123963
H   H12       1.0  0.22930  0.08480  0.21510  1.0000 0.1195123963
H   H13       1.0  0.74310  0.20320  0.12630  1.0000 0.0977590019
H   H14       1.0  0.75690  0.79680  0.62630  1.0000 0.0977590019
H   H15       1.0  0.25690  0.70320  0.37370  1.0000 0.0977590019
H   H16       1.0  0.24310  0.29680  0.87370  1.0000 0.0977590019
H   H17       1.0  0.12630  0.74310  0.20320  1.0000 0.0977590019
H   H18       1.0  0.62630  0.75690  0.79680  1.0000 0.0977590019
H   H19       1.0  0.37370  0.25690  0.70320  1.0000 0.0977590019
H   H20       1.0  0.87370  0.24310  0.29680  1.0000 0.0977590019
H   H21       1.0  0.20320  0.12630  0.74310  1.0000 0.0977590019
H   H22       1.0  0.79680  0.62630  0.75690  1.0000 0.0977590019
H   H23       1.0  0.70320  0.37370  0.25690  1.0000 0.0977590019
H   H24       1.0  0.29680  0.87370  0.24310  1.0000 0.0977590019
H   H25       1.0  0.26300  0.62280  0.09370  1.0000 0.1195123963
H   H26       1.0  0.23700  0.37720  0.59370  1.0000 0.1195123963
H   H27       1.0  0.73700  0.12280  0.40630  1.0000 0.1195123963
H   H28       1.0  0.76300  0.87720  0.90630  1.0000 0.1195123963
H   H29       1.0  0.09370  0.26300  0.62280  1.0000 0.1195123963
H   H30       1.0  0.59370  0.23700  0.37720  1.0000 0.1195123963
H   H31       1.0  0.40630  0.73700  0.12280  1.0000 0.1195123963
H   H32       1.0  0.90630  0.76300  0.87720  1.0000 0.1195123963
H   H33       1.0  0.62280  0.09370  0.26300  1.0000 0.1195123963
H   H34       1.0  0.37720  0.59370  0.23700  1.0000 0.1195123963
H   H35       1.0  0.12280  0.40630  0.73700  1.0000 0.1195123963
H   H36       1.0  0.87720  0.90630  0.76300  1.0000 0.1195123963
H   H37       1.0  0.33170  0.42220  0.02270  1.0000 0.0901952544
H   H38       1.0  0.16830  0.57780  0.52270  1.0000 0.0901952544
H   H39       1.0  0.66830  0.92220  0.47730  1.0000 0.0901952544
H   H40       1.0  0.83170  0.07780  0.97730  1.0000 0.0901952544
H   H41       1.0  0.02270  0.33170  0.42220  1.0000 0.0901952544
H   H42       1.0  0.52270  0.16830  0.57780  1.0000 0.0901952544
H   H43       1.0  0.47730  0.66830  0.92220  1.0000 0.0901952544
H   H44       1.0  0.97730  0.83170  0.07780  1.0000 0.0901952544
H   H45       1.0  0.42220  0.02270  0.33170  1.0000 0.0901952544
H   H46       1.0  0.57780  0.52270  0.16830  1.0000 0.0901952544
H   H47       1.0  0.92220  0.47730  0.66830  1.0000 0.0901952544
H   H48       1.0  0.07780  0.97730  0.83170  1.0000 0.0901952544
H   H49       1.0  0.54950  0.51480  0.00240  1.0000 0.2862615942
H   H50       1.0  0.95050  0.48520  0.50240  1.0000 0.2862615942
H   H51       1.0  0.45050  0.01480  0.49760  1.0000 0.2862615942
H   H52       1.0  0.04950  0.98520  0.99760  1.0000 0.2862615942
H   H53       1.0  0.00240  0.54950  0.51480  1.0000 0.2862615942
H   H54       1.0  0.50240  0.95050  0.48520  1.0000 0.2862615942
H   H55       1.0  0.49760  0.45050  0.01480  1.0000 0.2862615942
H   H56       1.0  0.99760  0.04950  0.98520  1.0000 0.2862615942
H   H57       1.0  0.51480  0.00240  0.54950  1.0000 0.2862615942
H   H58       1.0  0.48520  0.50240  0.95050  1.0000 0.2862615942
H   H59       1.0  0.01480  0.49760  0.45050  1.0000 0.2862615942
H   H60       1.0  0.98520  0.99760  0.04950  1.0000 0.2862615942
C   C1        1.0  0.73110  0.26770  0.96590  1.0000 -0.0324622286
C   C2        1.0  0.76890  0.73230  0.46590  1.0000 -0.0324622286
C   C3        1.0  0.26890  0.76770  0.53410  1.0000 -0.0324622286
C   C4        1.0  0.23110  0.23230  0.03410  1.0000 -0.0324622286
C   C5        1.0  0.96590  0.73110  0.26770  1.0000 -0.0324622286
C   C6        1.0  0.46590  0.76890  0.73230  1.0000 -0.0324622286
C   C7        1.0  0.53410  0.26890  0.76770  1.0000 -0.0324622286
C   C8        1.0  0.03410  0.23110  0.23230  1.0000 -0.0324622286
C   C9        1.0  0.26770  0.96590  0.73110  1.0000 -0.0324622286
C   C10       1.0  0.73230  0.46590  0.76890  1.0000 -0.0324622286
C   C11       1.0  0.76770  0.53410  0.26890  1.0000 -0.0324622286
C   C12       1.0  0.23230  0.03410  0.23110  1.0000 -0.0324622286
C   C13       1.0  0.74690  0.23180  0.08150  1.0000 0.1485840427
C   C14       1.0  0.75310  0.76820  0.58150  1.0000 0.1485840427
C   C15       1.0  0.25310  0.73180  0.41850  1.0000 0.1485840427
C   C16       1.0  0.24690  0.26820  0.91850  1.0000 0.1485840427
C   C17       1.0  0.08150  0.74690  0.23180  1.0000 0.1485840427
C   C18       1.0  0.58150  0.75310  0.76820  1.0000 0.1485840427
C   C19       1.0  0.41850  0.25310  0.73180  1.0000 0.1485840427
C   C20       1.0  0.91850  0.24690  0.26820  1.0000 0.1485840427
C   C21       1.0  0.23180  0.08150  0.74690  1.0000 0.1485840427
C   C22       1.0  0.76820  0.58150  0.75310  1.0000 0.1485840427
C   C23       1.0  0.73180  0.41850  0.25310  1.0000 0.1485840427
C   C24       1.0  0.26820  0.91850  0.24690  1.0000 0.1485840427
C   C25       1.0  0.77910  0.31790  0.00120  1.0000 -0.0248305229
C   C26       1.0  0.72090  0.68210  0.50120  1.0000 -0.0248305229
C   C27       1.0  0.22090  0.81790  0.49880  1.0000 -0.0248305229
C   C28       1.0  0.27910  0.18210  0.99880  1.0000 -0.0248305229
C   C29       1.0  0.00120  0.77910  0.31790  1.0000 -0.0324622286
C   C30       1.0  0.50120  0.72090  0.68210  1.0000 -0.0248305229
C   C31       1.0  0.49880  0.22090  0.81790  1.0000 -0.0248305229
C   C32       1.0  0.99880  0.27910  0.18210  1.0000 -0.0248305229
C   C33       1.0  0.31790  0.00120  0.77910  1.0000 -0.0248305229
C   C34       1.0  0.68210  0.50120  0.72090  1.0000 -0.0248305229
C   C35       1.0  0.81790  0.49880  0.22090  1.0000 -0.0248305229
C   C36       1.0  0.18210  0.99880  0.27910  1.0000 -0.0248305229
C   C37       1.0  0.81780  0.38680  0.97510  1.0000 0.5712830806
C   C38       1.0  0.68220  0.61320  0.47510  1.0000 0.5712830806
C   C39       1.0  0.18220  0.88680  0.52490  1.0000 0.5712830806
C   C40       1.0  0.31780  0.11320  0.02490  1.0000 0.5712830806
C   C41       1.0  0.97510  0.81780  0.38680  1.0000 0.5712830806
C   C42       1.0  0.47510  0.68220  0.61320  1.0000 0.5712830806
C   C43       1.0  0.52490  0.18220  0.88680  1.0000 0.5712830806
C   C44       1.0  0.02490  0.31780  0.11320  1.0000 0.5712830806
C   C45       1.0  0.38680  0.97510  0.81780  1.0000 0.5712830806
C   C46       1.0  0.61320  0.47510  0.68220  1.0000 0.5712830806
C   C47       1.0  0.88680  0.52490  0.18220  1.0000 0.5712830806
C   C48       1.0  0.11320  0.02490  0.31780  1.0000 0.5712830806
C   C49       1.0  0.26310  0.57220  0.07710  1.0000 -0.0324622286
C   C50       1.0  0.23690  0.42780  0.57710  1.0000 -0.0324622286
C   C51       1.0  0.73690  0.07220  0.42290  1.0000 -0.0324622286
C   C52       1.0  0.76310  0.92780  0.92290  1.0000 -0.0324622286
C   C53       1.0  0.07710  0.26310  0.57220  1.0000 -0.0324622286
C   C54       1.0  0.57710  0.23690  0.42780  1.0000 -0.0324622286
C   C55       1.0  0.42290  0.73690  0.07220  1.0000 -0.0324622286
C   C56       1.0  0.92290  0.76310  0.92780  1.0000 -0.0324622286
C   C57       1.0  0.57220  0.07710  0.26310  1.0000 -0.0324622286
C   C58       1.0  0.42780  0.57710  0.23690  1.0000 -0.0324622286
C   C59       1.0  0.07220  0.42290  0.73690  1.0000 -0.0324622286
C   C60       1.0  0.92780  0.92290  0.76310  1.0000 -0.0324622286
C   C61       1.0  0.29990  0.46230  0.03760  1.0000 0.1485840427
C   C62       1.0  0.20010  0.53770  0.53760  1.0000 0.1485840427
C   C63       1.0  0.70010  0.96230  0.46240  1.0000 0.1485840427
C   C64       1.0  0.79990  0.03770  0.96240  1.0000 0.1485840427
C   C65       1.0  0.03760  0.29990  0.46230  1.0000 0.1485840427
C   C66       1.0  0.53760  0.20010  0.53770  1.0000 0.1485840427
C   C67       1.0  0.46240  0.70010  0.96230  1.0000 0.1485840427
C   C68       1.0  0.96240  0.79990  0.03770  1.0000 0.1485840427
C   C69       1.0  0.46230  0.03760  0.29990  1.0000 0.1485840427
C   C70       1.0  0.53770  0.53760  0.20010  1.0000 0.1485840427
C   C71       1.0  0.96230  0.46240  0.70010  1.0000 0.1485840427
C   C72       1.0  0.03770  0.96240  0.79990  1.0000 0.1485840427
C   C73       1.0  0.19890  0.52770  0.06710  1.0000 -0.0356556924
C   C74       1.0  0.30110  0.47230  0.56710  1.0000 -0.0356556924
C   C75       1.0  0.80110  0.02770  0.43290  1.0000 -0.0324622286
C   C76       1.0  0.69890  0.97230  0.93290  1.0000 -0.0356556924
C   C77       1.0  0.06710  0.19890  0.52770  1.0000 -0.0356556924
C   C78       1.0  0.56710  0.30110  0.47230  1.0000 -0.0356556924
C   C79       1.0  0.43290  0.80110  0.02770  1.0000 -0.0356556924
C   C80       1.0  0.93290  0.69890  0.97230  1.0000 -0.0356556924
C   C81       1.0  0.52770  0.06710  0.19890  1.0000 -0.0324622286
C   C82       1.0  0.47230  0.56710  0.30110  1.0000 -0.0356556924
C   C83       1.0  0.02770  0.43290  0.80110  1.0000 -0.0356556924
C   C84       1.0  0.97230  0.93290  0.69890  1.0000 -0.0356556924
C   C85       1.0  0.11840  0.53910  0.07520  1.0000 0.5819210444
C   C86       1.0  0.38160  0.46090  0.57520  1.0000 0.5819210444
C   C87       1.0  0.88160  0.03910  0.42480  1.0000 0.5819210444
C   C88       1.0  0.61840  0.96090  0.92480  1.0000 0.5819210444
C   C89       1.0  0.07520  0.11840  0.53910  1.0000 0.5819210444
C   C90       1.0  0.57520  0.38160  0.46090  1.0000 0.5819210444
C   C91       1.0  0.42480  0.88160  0.03910  1.0000 0.5819210444
C   C92       1.0  0.92480  0.61840  0.96090  1.0000 0.5819210444
C   C93       1.0  0.53910  0.07520  0.11840  1.0000 0.5819210444
C   C94       1.0  0.46090  0.57520  0.38160  1.0000 0.5819210444
C   C95       1.0  0.03910  0.42480  0.88160  1.0000 0.5819210444
C   C96       1.0  0.96090  0.92480  0.61840  1.0000 0.5819210444
N   N1        1.0  0.78780  0.29320  0.07550  1.0000 -0.30697554
N   N2        1.0  0.71220  0.70680  0.57550  1.0000 -0.30697554
N   N3        1.0  0.21220  0.79320  0.42450  1.0000 -0.30697554
N   N4        1.0  0.28780  0.20680  0.92450  1.0000 -0.30697554
N   N5        1.0  0.07550  0.78780  0.29320  1.0000 -0.30697554
N   N6        1.0  0.57550  0.71220  0.70680  1.0000 -0.30697554
N   N7        1.0  0.42450  0.21220  0.79320  1.0000 -0.30697554
N   N8        1.0  0.92450  0.28780  0.20680  1.0000 -0.30697554
N   N9        1.0  0.29320  0.07550  0.78780  1.0000 -0.30697554
N   N10       1.0  0.70680  0.57550  0.71220  1.0000 -0.30697554
N   N11       1.0  0.79320  0.42450  0.21220  1.0000 -0.30697554
N   N12       1.0  0.20680  0.92450  0.28780  1.0000 -0.30697554
N   N13       1.0  0.71040  0.21330  0.01560  1.0000 -0.3197926993
N   N14       1.0  0.78960  0.78670  0.51560  1.0000 -0.3197926993
N   N15       1.0  0.28960  0.71330  0.48440  1.0000 -0.3197926993
N   N16       1.0  0.21040  0.28670  0.98440  1.0000 -0.3197926993
N   N17       1.0  0.01560  0.71040  0.21330  1.0000 -0.3197926993
N   N18       1.0  0.51560  0.78960  0.78670  1.0000 -0.3197926993
N   N19       1.0  0.48440  0.28960  0.71330  1.0000 -0.3197926993
N   N20       1.0  0.98440  0.21040  0.28670  1.0000 -0.3197926993
N   N21       1.0  0.21330  0.01560  0.71040  1.0000 -0.3197926993
N   N22       1.0  0.78670  0.51560  0.78960  1.0000 -0.3197926993
N   N23       1.0  0.71330  0.48440  0.28960  1.0000 -0.3197926993
N   N24       1.0  0.28670  0.98440  0.21040  1.0000 -0.3197926993
N   N25       1.0  0.32620  0.53140  0.05920  1.0000 -0.3197926993
N   N26       1.0  0.17380  0.46860  0.55920  1.0000 -0.3197926993
N   N27       1.0  0.67380  0.03140  0.44080  1.0000 -0.3197926993
N   N28       1.0  0.82620  0.96860  0.94080  1.0000 -0.3197926993
N   N29       1.0  0.05920  0.32620  0.53140  1.0000 -0.3197926993
N   N30       1.0  0.55920  0.17380  0.46860  1.0000 -0.3197926993
N   N31       1.0  0.44080  0.67380  0.03140  1.0000 -0.3197926993
N   N32       1.0  0.94080  0.82620  0.96860  1.0000 -0.3197926993
N   N33       1.0  0.53140  0.05920  0.32620  1.0000 -0.3197926993
N   N34       1.0  0.46860  0.55920  0.17380  1.0000 -0.3197926993
N   N35       1.0  0.03140  0.44080  0.67380  1.0000 -0.3197926993
N   N36       1.0  0.96860  0.94080  0.82620  1.0000 -0.3197926993
N   N37       1.0  0.22460  0.45710  0.03980  1.0000 -0.332863464
N   N38       1.0  0.27540  0.54290  0.53980  1.0000 -0.332863464
N   N39       1.0  0.77540  0.95710  0.46020  1.0000 -0.332863464
N   N40       1.0  0.72460  0.04290  0.96020  1.0000 -0.332863464
N   N41       1.0  0.03980  0.22460  0.45710  1.0000 -0.332863464
N   N42       1.0  0.53980  0.27540  0.54290  1.0000 -0.332863464
N   N43       1.0  0.46020  0.77540  0.95710  1.0000 -0.332863464
N   N44       1.0  0.96020  0.72460  0.04290  1.0000 -0.332863464
N   N45       1.0  0.45710  0.03980  0.22460  1.0000 -0.332863464
N   N46       1.0  0.54290  0.53980  0.27540  1.0000 -0.332863464
N   N47       1.0  0.95710  0.46020  0.77540  1.0000 -0.332863464
N   N48       1.0  0.04290  0.96020  0.72460  1.0000 -0.332863464
N   N49       1.0  0.50110  0.49890  0.99890  1.0000 -0.7262395387
N   N50       1.0  0.99890  0.50110  0.49890  1.0000 -0.7262395387
N   N51       1.0  0.49890  0.99890  0.50110  1.0000 -0.7262395387
N   N52       1.0  0.00110  0.00110  0.00110  1.0000 -0.7262395387
O   O1        1.0  0.82060  0.40360  0.90610  1.0000 -0.5012810593
O   O2        1.0  0.67940  0.59640  0.40610  1.0000 -0.5012810593
O   O3        1.0  0.17940  0.90360  0.59390  1.0000 -0.5012810593
O   O4        1.0  0.32060  0.09640  0.09390  1.0000 -0.5012810593
O   O5        1.0  0.90610  0.82060  0.40360  1.0000 -0.5012810593
O   O6        1.0  0.40610  0.67940  0.59640  1.0000 -0.5012810593
O   O7        1.0  0.59390  0.17940  0.90360  1.0000 -0.5012810593
O   O8        1.0  0.09390  0.32060  0.09640  1.0000 -0.5012810593
O   O9        1.0  0.40360  0.90610  0.82060  1.0000 -0.5012810593
O   O10       1.0  0.59640  0.40610  0.67940  1.0000 -0.5012810593
O   O11       1.0  0.90360  0.59390  0.17940  1.0000 -0.5012810593
O   O12       1.0  0.09640  0.09390  0.32060  1.0000 -0.5012810593
O   O13       1.0  0.84910  0.42830  0.02910  1.0000 -0.5863673528
O   O14       1.0  0.65090  0.57170  0.52910  1.0000 -0.5863673528
O   O15       1.0  0.15090  0.92830  0.47090  1.0000 -0.5863673528
O   O16       1.0  0.34910  0.07170  0.97090  1.0000 -0.5863673528
O   O17       1.0  0.02910  0.84910  0.42830  1.0000 -0.5863673528
O   O18       1.0  0.52910  0.65090  0.57170  1.0000 -0.5863673528
O   O19       1.0  0.47090  0.15090  0.92830  1.0000 -0.5863673528
O   O20       1.0  0.97090  0.34910  0.07170  1.0000 -0.5863673528
O   O21       1.0  0.42830  0.02910  0.84910  1.0000 -0.5863673528
O   O22       1.0  0.57170  0.52910  0.65090  1.0000 -0.5863673528
O   O23       1.0  0.92830  0.47090  0.15090  1.0000 -0.5863673528
O   O24       1.0  0.07170  0.97090  0.34910  1.0000 -0.5863673528
O   O25       1.0  0.09190  0.59970  0.10180  1.0000 -0.5116934345
O   O26       1.0  0.40810  0.40030  0.60180  1.0000 -0.5116934345
O   O27       1.0  0.90810  0.09970  0.39820  1.0000 -0.5116934345
O   O28       1.0  0.59190  0.90030  0.89820  1.0000 -0.5116934345
O   O29       1.0  0.10180  0.09190  0.59970  1.0000 -0.5116934345
O   O30       1.0  0.60180  0.40810  0.40030  1.0000 -0.5116934345
O   O31       1.0  0.39820  0.90810  0.09970  1.0000 -0.5116934345
O   O32       1.0  0.89820  0.59190  0.90030  1.0000 -0.5116934345
O   O33       1.0  0.59970  0.10180  0.09190  1.0000 -0.5116934345
O   O34       1.0  0.40030  0.60180  0.40810  1.0000 -0.5116934345
O   O35       1.0  0.09970  0.39820  0.90810  1.0000 -0.5116934345
O   O36       1.0  0.90030  0.89820  0.59190  1.0000 -0.5116934345
O   O37       1.0  0.07700  0.48130  0.05480  1.0000 -0.5863673528
O   O38       1.0  0.42300  0.51870  0.55480  1.0000 -0.5863673528
O   O39       1.0  0.92300  0.98130  0.44520  1.0000 -0.5863673528
O   O40       1.0  0.57700  0.01870  0.94520  1.0000 -0.5863673528
O   O41       1.0  0.05480  0.07700  0.48130  1.0000 -0.5863673528
O   O42       1.0  0.55480  0.42300  0.51870  1.0000 -0.5863673528
O   O43       1.0  0.44520  0.92300  0.98130  1.0000 -0.5863673528
O   O44       1.0  0.94520  0.57700  0.01870  1.0000 -0.5863673528
O   O45       1.0  0.48130  0.05480  0.07700  1.0000 -0.5863673528
O   O46       1.0  0.51870  0.55480  0.42300  1.0000 -0.5863673528
O   O47       1.0  0.98130  0.44520  0.92300  1.0000 -0.5863673528
O   O48       1.0  0.01870  0.94520  0.57700  1.0000 -0.5863673528
