# DDEC6 charges by PACMAN v1.1 (https://github.com/mtap-research/PACMAN-charge/)
data_2015[CoPr][nan]3[FSR]2
_chemical_formula_sum              "Pr4 Co4 H72 C144 N24 O48"
_cell_length_a       22.8381
_cell_length_b       21.4787
_cell_length_c       18.2226
_cell_angle_alpha    69.6814
_cell_angle_beta     61.8792
_cell_angle_gamma    48.4395

_symmetry_space_group_name_H-M    "P 1"
_symmetry_Int_Tables_number       1

loop_
  _symmetry_equiv_pos_as_xyz
  'x, y, z'

loop_
  _atom_site_type_symbol
  _atom_site_label
  _atom_site_symmetry_multiplicity
  _atom_site_fract_x
  _atom_site_fract_y
  _atom_site_fract_z
  _atom_site_occupancy
  _atom_site_charge
Pr  Pr1       1.0  0.97662  0.52338  0.52338  1.0000 2.0821634505
Pr  Pr2       1.0  0.52338  0.97662  0.97662  1.0000 2.0821634505
Pr  Pr3       1.0  0.27338  0.72662  0.72662  1.0000 2.0821634505
Pr  Pr4       1.0  0.72662  0.27338  0.27338  1.0000 2.0821634505
Co  Co1       1.0  0.48240  0.01760  0.48240  1.0000 0.4722762157
Co  Co2       1.0  0.01760  0.48240  0.01760  1.0000 0.4722762157
Co  Co3       1.0  0.76760  0.23240  0.76760  1.0000 0.4722762157
Co  Co4       1.0  0.23240  0.76760  0.23240  1.0000 0.4722762157
H   H1        1.0  0.31210  0.07850  0.53150  1.0000 0.1184102639
H   H2        1.0  0.07850  0.31210  0.07790  1.0000 0.1184102639
H   H3        1.0  0.07790  0.53150  0.07850  1.0000 0.1184102639
H   H4        1.0  0.53150  0.07790  0.31210  1.0000 0.1184102639
H   H5        1.0  0.93790  0.17150  0.71850  1.0000 0.1184102639
H   H6        1.0  0.17150  0.93790  0.17210  1.0000 0.1184102639
H   H7        1.0  0.17210  0.71850  0.17150  1.0000 0.1184102639
H   H8        1.0  0.71850  0.17210  0.93790  1.0000 0.1184102639
H   H9        1.0  0.17590  0.22050  0.54190  1.0000 0.1616107895
H   H10       1.0  0.22050  0.17590  0.06170  1.0000 0.1616107895
H   H11       1.0  0.06170  0.54190  0.22050  1.0000 0.1616107895
H   H12       1.0  0.54190  0.06170  0.17590  1.0000 0.1616107895
H   H13       1.0  0.07410  0.02950  0.70810  1.0000 0.1616107895
H   H14       1.0  0.02950  0.07410  0.18830  1.0000 0.1616107895
H   H15       1.0  0.18830  0.70810  0.02950  1.0000 0.1616107895
H   H16       1.0  0.70810  0.18830  0.07410  1.0000 0.1616107895
H   H17       1.0  0.41420  0.29100  0.43080  1.0000 0.1484785138
H   H18       1.0  0.29100  0.41420  0.86400  1.0000 0.1484785138
H   H19       1.0  0.86400  0.43080  0.29100  1.0000 0.1484785138
H   H20       1.0  0.43080  0.86400  0.41420  1.0000 0.1484785138
H   H21       1.0  0.83580  0.95900  0.81920  1.0000 0.1484785138
H   H22       1.0  0.95900  0.83580  0.38600  1.0000 0.1484785138
H   H23       1.0  0.38600  0.81920  0.95900  1.0000 0.1484785138
H   H24       1.0  0.81920  0.38600  0.83580  1.0000 0.1484785138
H   H25       1.0  0.29680  0.31660  0.44720  1.0000 0.1616107895
H   H26       1.0  0.31660  0.29680  0.93940  1.0000 0.1616107895
H   H27       1.0  0.93940  0.44720  0.31660  1.0000 0.1616107895
H   H28       1.0  0.44720  0.93940  0.29680  1.0000 0.1616107895
H   H29       1.0  0.95320  0.93340  0.80280  1.0000 0.1616107895
H   H30       1.0  0.93340  0.95320  0.31060  1.0000 0.1616107895
H   H31       1.0  0.31060  0.80280  0.93340  1.0000 0.1616107895
H   H32       1.0  0.80280  0.31060  0.95320  1.0000 0.1616107895
H   H33       1.0  0.66000  0.10600  0.39380  1.0000 0.1669360374
H   H34       1.0  0.10600  0.66000  0.84020  1.0000 0.1669360374
H   H35       1.0  0.84020  0.39380  0.10600  1.0000 0.1669360374
H   H36       1.0  0.39380  0.84020  0.66000  1.0000 0.1669360374
H   H37       1.0  0.59000  0.14400  0.85620  1.0000 0.1669360374
H   H38       1.0  0.14400  0.59000  0.40980  1.0000 0.1669360374
H   H39       1.0  0.40980  0.85620  0.14400  1.0000 0.1669360374
H   H40       1.0  0.85620  0.40980  0.59000  1.0000 0.1669360374
H   H41       1.0  0.62800  0.01020  0.42820  1.0000 0.1184102639
H   H42       1.0  0.01020  0.62800  0.93360  1.0000 0.1184102639
H   H43       1.0  0.93360  0.42820  0.01020  1.0000 0.1184102639
H   H44       1.0  0.42820  0.93360  0.62800  1.0000 0.1184102639
H   H45       1.0  0.62200  0.23980  0.82180  1.0000 0.1184102639
H   H46       1.0  0.23980  0.62200  0.31640  1.0000 0.1184102639
H   H47       1.0  0.31640  0.82180  0.23980  1.0000 0.1184102639
H   H48       1.0  0.82180  0.31640  0.62200  1.0000 0.1184102639
H   H49       1.0  0.36280  0.12280  0.63020  1.0000 0.1104397711
H   H50       1.0  0.12280  0.36280  0.88420  1.0000 0.1104397711
H   H51       1.0  0.88420  0.63020  0.12280  1.0000 0.1104397711
H   H52       1.0  0.63020  0.88420  0.36280  1.0000 0.1104397711
H   H53       1.0  0.88720  0.12720  0.61980  1.0000 0.1104397711
H   H54       1.0  0.12720  0.88720  0.36580  1.0000 0.1104397711
H   H55       1.0  0.36580  0.61980  0.12720  1.0000 0.1104397711
H   H56       1.0  0.61980  0.36580  0.88720  1.0000 0.1104397711
H   H57       1.0  0.36870  0.11270  0.75770  1.0000 0.1484785138
H   H58       1.0  0.11270  0.36870  0.76090  1.0000 0.1484785138
H   H59       1.0  0.76090  0.75770  0.11270  1.0000 0.1484785138
H   H60       1.0  0.75770  0.76090  0.36870  1.0000 0.1484785138
H   H61       1.0  0.88130  0.13730  0.49230  1.0000 0.1484785138
H   H62       1.0  0.13730  0.88130  0.48910  1.0000 0.1484785138
H   H63       1.0  0.48910  0.49230  0.13730  1.0000 0.1484785138
H   H64       1.0  0.49230  0.48910  0.88130  1.0000 0.1484785138
H   H65       1.0  0.60250  0.89870  0.68970  1.0000 0.1616107895
H   H66       1.0  0.89870  0.60250  0.80910  1.0000 0.1616107895
H   H67       1.0  0.80910  0.68970  0.89870  1.0000 0.1616107895
H   H68       1.0  0.68970  0.80910  0.60250  1.0000 0.1616107895
H   H69       1.0  0.64750  0.35130  0.56030  1.0000 0.1616107895
H   H70       1.0  0.35130  0.64750  0.44090  1.0000 0.1616107895
H   H71       1.0  0.44090  0.56030  0.35130  1.0000 0.1616107895
H   H72       1.0  0.56030  0.44090  0.64750  1.0000 0.1616107895
C   C1        1.0  0.30103  0.13073  0.51795  1.0000 0.0410098127
C   C2        1.0  0.13073  0.30103  0.05029  1.0000 0.0410098127
C   C3        1.0  0.05029  0.51795  0.13073  1.0000 0.0410098127
C   C4        1.0  0.51795  0.05029  0.30103  1.0000 0.0410098127
C   C5        1.0  0.94897  0.11927  0.73205  1.0000 0.0410098127
C   C6        1.0  0.11927  0.94897  0.19971  1.0000 0.0410098127
C   C7        1.0  0.19971  0.73205  0.11927  1.0000 0.0410098127
C   C8        1.0  0.73205  0.19971  0.94897  1.0000 0.0410098127
C   C9        1.0  0.22615  0.20803  0.51815  1.0000 -0.128874898
C   C10       1.0  0.20803  0.22615  0.04767  1.0000 -0.128874898
C   C11       1.0  0.04767  0.51815  0.20803  1.0000 -0.128874898
C   C12       1.0  0.51815  0.04767  0.22615  1.0000 -0.128874898
C   C13       1.0  0.02385  0.04197  0.73185  1.0000 -0.128874898
C   C14       1.0  0.04197  0.02385  0.20233  1.0000 -0.128874898
C   C15       1.0  0.20233  0.73185  0.04197  1.0000 -0.128874898
C   C16       1.0  0.73185  0.20233  0.02385  1.0000 -0.128874898
C   C17       1.0  0.22398  0.27828  0.49134  1.0000 0.0809736352
C   C18       1.0  0.27828  0.22398  0.00640  1.0000 0.0809736352
C   C19       1.0  0.00640  0.49134  0.27828  1.0000 0.0809736352
C   C20       1.0  0.49134  0.00640  0.22398  1.0000 0.0809736352
C   C21       1.0  0.02602  0.97172  0.75866  1.0000 0.0809736352
C   C22       1.0  0.97172  0.02602  0.24360  1.0000 0.0809736352
C   C23       1.0  0.24360  0.75866  0.97172  1.0000 0.0809736352
C   C24       1.0  0.75866  0.24360  0.02602  1.0000 0.0809736352
C   C25       1.0  0.29693  0.26927  0.46573  1.0000 -0.1656764399
C   C26       1.0  0.26927  0.29693  0.96807  1.0000 -0.1656764399
C   C27       1.0  0.96807  0.46573  0.26927  1.0000 -0.1641851242
C   C28       1.0  0.46573  0.96807  0.29693  1.0000 -0.1656764399
C   C29       1.0  0.95307  0.98073  0.78427  1.0000 -0.1641851242
C   C30       1.0  0.98073  0.95307  0.28193  1.0000 -0.1656764399
C   C31       1.0  0.28193  0.78427  0.98073  1.0000 -0.1656764399
C   C32       1.0  0.78427  0.28193  0.95307  1.0000 -0.1656764399
C   C33       1.0  0.36994  0.19012  0.46764  1.0000 0.1484785138
C   C34       1.0  0.19012  0.36994  0.97230  1.0000 0.1484785138
C   C35       1.0  0.97230  0.46764  0.19012  1.0000 0.1484785138
C   C36       1.0  0.46764  0.97230  0.36994  1.0000 0.1484785138
C   C37       1.0  0.88006  0.05988  0.78236  1.0000 0.1484785138
C   C38       1.0  0.05988  0.88006  0.27770  1.0000 0.1484785138
C   C39       1.0  0.27770  0.78236  0.05988  1.0000 0.1484785138
C   C40       1.0  0.78236  0.27770  0.88006  1.0000 0.1484785138
C   C41       1.0  0.44995  0.17269  0.44531  1.0000 0.1484785138
C   C42       1.0  0.17269  0.44995  0.93205  1.0000 0.1484785138
C   C43       1.0  0.93205  0.44531  0.17269  1.0000 0.1484785138
C   C44       1.0  0.44531  0.93205  0.44995  1.0000 0.1484785138
C   C45       1.0  0.80005  0.07731  0.80469  1.0000 0.1484785138
C   C46       1.0  0.07731  0.80005  0.31795  1.0000 0.1484785138
C   C47       1.0  0.31795  0.80469  0.07731  1.0000 0.1484785138
C   C48       1.0  0.80469  0.31795  0.80005  1.0000 0.1484785138
C   C49       1.0  0.46044  0.23364  0.42672  1.0000 -0.1770663287
C   C50       1.0  0.23364  0.46044  0.87920  1.0000 -0.1770663287
C   C51       1.0  0.87920  0.42672  0.23364  1.0000 -0.1770663287
C   C52       1.0  0.42672  0.87920  0.46044  1.0000 -0.1770663287
C   C53       1.0  0.78956  0.01636  0.82328  1.0000 -0.1770663287
C   C54       1.0  0.01636  0.78956  0.37080  1.0000 -0.1770663287
C   C55       1.0  0.37080  0.82328  0.01636  1.0000 -0.1770663287
C   C56       1.0  0.82328  0.37080  0.78956  1.0000 -0.1770663287
C   C57       1.0  0.53950  0.20916  0.40746  1.0000 0.0674122249
C   C58       1.0  0.20916  0.53950  0.84388  1.0000 0.0674122249
C   C59       1.0  0.84388  0.40746  0.20916  1.0000 0.0674122249
C   C60       1.0  0.40746  0.84388  0.53950  1.0000 0.0674122249
C   C61       1.0  0.71050  0.04084  0.84254  1.0000 0.0674122249
C   C62       1.0  0.04084  0.71050  0.40612  1.0000 0.0674122249
C   C63       1.0  0.40612  0.84254  0.04084  1.0000 0.0674122249
C   C64       1.0  0.84254  0.40612  0.71050  1.0000 0.0674122249
C   C65       1.0  0.60547  0.12475  0.40673  1.0000 -0.128874898
C   C66       1.0  0.12475  0.60547  0.86305  1.0000 -0.128874898
C   C67       1.0  0.86305  0.40673  0.12475  1.0000 -0.128874898
C   C68       1.0  0.40673  0.86305  0.60547  1.0000 -0.128874898
C   C69       1.0  0.64453  0.12525  0.84327  1.0000 -0.128874898
C   C70       1.0  0.12525  0.64453  0.38695  1.0000 -0.128874898
C   C71       1.0  0.38695  0.84327  0.12525  1.0000 -0.128874898
C   C72       1.0  0.84327  0.38695  0.64453  1.0000 -0.128874898
C   C73       1.0  0.59083  0.06719  0.42775  1.0000 0.0410098127
C   C74       1.0  0.06719  0.59083  0.91423  1.0000 0.0410098127
C   C75       1.0  0.91423  0.42775  0.06719  1.0000 0.0410098127
C   C76       1.0  0.42775  0.91423  0.59083  1.0000 0.0410098127
C   C77       1.0  0.65917  0.18281  0.82225  1.0000 0.0410098127
C   C78       1.0  0.18281  0.65917  0.33577  1.0000 0.0410098127
C   C79       1.0  0.33577  0.82225  0.18281  1.0000 0.0410098127
C   C80       1.0  0.82225  0.33577  0.65917  1.0000 0.0410098127
C   C81       1.0  0.14298  0.36388  0.49210  1.0000 0.5602553908
C   C82       1.0  0.36388  0.14298  0.00104  1.0000 0.5602553908
C   C83       1.0  0.00104  0.49210  0.36388  1.0000 0.5602553908
C   C84       1.0  0.49210  0.00104  0.14298  1.0000 0.5602553908
C   C85       1.0  0.10702  0.88612  0.75790  1.0000 0.5602553908
C   C86       1.0  0.88612  0.10702  0.24896  1.0000 0.5602553908
C   C87       1.0  0.24896  0.75790  0.88612  1.0000 0.5602553908
C   C88       1.0  0.75790  0.24896  0.10702  1.0000 0.5602553908
C   C89       1.0  0.55286  0.27484  0.38776  1.0000 0.5960490678
C   C90       1.0  0.27484  0.55286  0.78454  1.0000 0.5960490678
C   C91       1.0  0.78454  0.38776  0.27484  1.0000 0.5960490678
C   C92       1.0  0.38776  0.78454  0.55286  1.0000 0.5960490678
C   C93       1.0  0.69714  0.97516  0.86224  1.0000 0.5960490678
C   C94       1.0  0.97516  0.69714  0.46546  1.0000 0.5960490678
C   C95       1.0  0.46546  0.86224  0.97516  1.0000 0.5960490678
C   C96       1.0  0.86224  0.46546  0.69714  1.0000 0.5960490678
C   C97       1.0  0.40906  0.07310  0.65044  1.0000 0.0410098127
C   C98       1.0  0.07310  0.40906  0.86740  1.0000 0.0410098127
C   C99       1.0  0.86740  0.65044  0.07310  1.0000 0.0410098127
C   C100      1.0  0.65044  0.86740  0.40906  1.0000 0.0410098127
C   C101      1.0  0.84094  0.17690  0.59956  1.0000 0.0410098127
C   C102      1.0  0.17690  0.84094  0.38260  1.0000 0.0410098127
C   C103      1.0  0.38260  0.59956  0.17690  1.0000 0.0410098127
C   C104      1.0  0.59956  0.38260  0.84094  1.0000 0.0410098127
C   C105      1.0  0.41231  0.06753  0.72671  1.0000 -0.128874898
C   C106      1.0  0.06753  0.41231  0.79345  1.0000 -0.128874898
C   C107      1.0  0.79345  0.72671  0.06753  1.0000 -0.128874898
C   C108      1.0  0.72671  0.79345  0.41231  1.0000 -0.128874898
C   C109      1.0  0.83769  0.18247  0.52329  1.0000 -0.128874898
C   C110      1.0  0.18247  0.83769  0.45655  1.0000 -0.128874898
C   C111      1.0  0.45655  0.52329  0.18247  1.0000 -0.128874898
C   C112      1.0  0.52329  0.45655  0.83769  1.0000 -0.128874898
C   C113      1.0  0.48536  0.00310  0.74370  1.0000 0.0809736352
C   C114      1.0  0.00310  0.48536  0.76784  1.0000 0.0809736352
C   C115      1.0  0.76784  0.74370  0.00310  1.0000 0.0809736352
C   C116      1.0  0.74370  0.76784  0.48536  1.0000 0.0809736352
C   C117      1.0  0.76464  0.24690  0.50630  1.0000 0.0809736352
C   C118      1.0  0.24690  0.76464  0.48216  1.0000 0.0809736352
C   C119      1.0  0.48216  0.50630  0.24690  1.0000 0.0809736352
C   C120      1.0  0.50630  0.48216  0.76464  1.0000 0.0809736352
C   C121      1.0  0.55246  0.94398  0.68542  1.0000 -0.1373800512
C   C122      1.0  0.94398  0.55246  0.81814  1.0000 -0.1373800512
C   C123      1.0  0.81814  0.68542  0.94398  1.0000 -0.1373800512
C   C124      1.0  0.68542  0.81814  0.55246  1.0000 -0.1373800512
C   C125      1.0  0.69754  0.30602  0.56458  1.0000 -0.1373800512
C   C126      1.0  0.30602  0.69754  0.43186  1.0000 -0.1373800512
C   C127      1.0  0.43186  0.56458  0.30602  1.0000 -0.1373800512
C   C128      1.0  0.56458  0.43186  0.69754  1.0000 -0.1373800512
C   C129      1.0  0.54532  0.95124  0.61062  1.0000 0.1373428379
C   C130      1.0  0.95124  0.54532  0.89282  1.0000 0.1373428379
C   C131      1.0  0.89282  0.61062  0.95124  1.0000 0.1373428379
C   C132      1.0  0.61062  0.89282  0.54532  1.0000 0.1373428379
C   C133      1.0  0.70468  0.29876  0.63938  1.0000 0.1373428379
C   C134      1.0  0.29876  0.70468  0.35718  1.0000 0.1373428379
C   C135      1.0  0.35718  0.63938  0.29876  1.0000 0.1373428379
C   C136      1.0  0.63938  0.35718  0.70468  1.0000 0.1373428379
C   C137      1.0  0.49367  0.99719  0.82441  1.0000 0.5503093872
C   C138      1.0  0.99719  0.49367  0.68473  1.0000 0.5503093872
C   C139      1.0  0.68473  0.82441  0.99719  1.0000 0.5503093872
C   C140      1.0  0.82441  0.68473  0.49367  1.0000 0.5503093872
C   C141      1.0  0.75633  0.25281  0.42559  1.0000 0.5503093872
C   C142      1.0  0.25281  0.75633  0.56527  1.0000 0.5503093872
C   C143      1.0  0.56527  0.42559  0.25281  1.0000 0.5503093872
C   C144      1.0  0.42559  0.56527  0.75633  1.0000 0.5503093872
N   N1        1.0  0.37207  0.12153  0.49259  1.0000 -0.2033586695
N   N2        1.0  0.12153  0.37207  0.01381  1.0000 -0.2033586695
N   N3        1.0  0.01381  0.49259  0.12153  1.0000 -0.2033586695
N   N4        1.0  0.49259  0.01381  0.37207  1.0000 -0.2033586695
N   N5        1.0  0.87793  0.12847  0.75741  1.0000 -0.2033586695
N   N6        1.0  0.12847  0.87793  0.23619  1.0000 -0.2033586695
N   N7        1.0  0.23619  0.75741  0.12847  1.0000 -0.2033586695
N   N8        1.0  0.75741  0.23619  0.87793  1.0000 -0.2033586695
N   N9        1.0  0.51431  0.09039  0.44679  1.0000 -0.2097048375
N   N10       1.0  0.09039  0.51431  0.94851  1.0000 -0.2097048375
N   N11       1.0  0.94851  0.44679  0.09039  1.0000 -0.2097048375
N   N12       1.0  0.44679  0.94851  0.51431  1.0000 -0.2097048375
N   N13       1.0  0.73569  0.15961  0.80321  1.0000 -0.2097048375
N   N14       1.0  0.15961  0.73569  0.30149  1.0000 -0.2097048375
N   N15       1.0  0.30149  0.80321  0.15961  1.0000 -0.2097048375
N   N16       1.0  0.80321  0.30149  0.73569  1.0000 -0.2097048375
N   N17       1.0  0.47431  0.01629  0.59331  1.0000 -0.2033586695
N   N18       1.0  0.01629  0.47431  0.91609  1.0000 -0.2033586695
N   N19       1.0  0.91609  0.59331  0.01629  1.0000 -0.2033586695
N   N20       1.0  0.59331  0.91609  0.47431  1.0000 -0.2033586695
N   N21       1.0  0.77569  0.23371  0.65669  1.0000 -0.2033586695
N   N22       1.0  0.23371  0.77569  0.33391  1.0000 -0.2033586695
N   N23       1.0  0.33391  0.65669  0.23371  1.0000 -0.2033586695
N   N24       1.0  0.65669  0.33391  0.77569  1.0000 -0.2033586695
O   O1        1.0  0.08296  0.36722  0.50078  1.0000 -0.6003050342
O   O2        1.0  0.36722  0.08296  0.04904  1.0000 -0.6003050342
O   O3        1.0  0.04904  0.50078  0.36722  1.0000 -0.6003050342
O   O4        1.0  0.50078  0.04904  0.08296  1.0000 -0.6003050342
O   O5        1.0  0.16704  0.88278  0.74922  1.0000 -0.6003050342
O   O6        1.0  0.88278  0.16704  0.20096  1.0000 -0.6003050342
O   O7        1.0  0.20096  0.74922  0.88278  1.0000 -0.6003050342
O   O8        1.0  0.74922  0.20096  0.16704  1.0000 -0.6003050342
O   O9        1.0  0.13810  0.42748  0.48580  1.0000 -0.6003050342
O   O10       1.0  0.42748  0.13810  0.94862  1.0000 -0.6003050342
O   O11       1.0  0.94862  0.48580  0.42748  1.0000 -0.6050009753
O   O12       1.0  0.48580  0.94862  0.13810  1.0000 -0.6050009753
O   O13       1.0  0.11190  0.82252  0.76420  1.0000 -0.6003050342
O   O14       1.0  0.82252  0.11190  0.30138  1.0000 -0.6003050342
O   O15       1.0  0.30138  0.76420  0.82252  1.0000 -0.6003050342
O   O16       1.0  0.76420  0.30138  0.11190  1.0000 -0.6003050342
O   O17       1.0  0.48945  0.34955  0.40111  1.0000 -0.5572138454
O   O18       1.0  0.34955  0.48945  0.75989  1.0000 -0.5572138454
O   O19       1.0  0.75989  0.40111  0.34955  1.0000 -0.5572138454
O   O20       1.0  0.40111  0.75989  0.48945  1.0000 -0.5572138454
O   O21       1.0  0.76055  0.90045  0.84889  1.0000 -0.5572138454
O   O22       1.0  0.90045  0.76055  0.49011  1.0000 -0.5572138454
O   O23       1.0  0.49011  0.84889  0.90045  1.0000 -0.5572138454
O   O24       1.0  0.84889  0.49011  0.76055  1.0000 -0.5572138454
O   O25       1.0  0.62791  0.24611  0.36075  1.0000 -0.6530096631
O   O26       1.0  0.24611  0.62791  0.76523  1.0000 -0.6530096631
O   O27       1.0  0.76523  0.36075  0.24611  1.0000 -0.6530096631
O   O28       1.0  0.36075  0.76523  0.62791  1.0000 -0.6530096631
O   O29       1.0  0.62209  0.00389  0.88925  1.0000 -0.6530096631
O   O30       1.0  0.00389  0.62209  0.48477  1.0000 -0.6530096631
O   O31       1.0  0.48477  0.88925  0.00389  1.0000 -0.6530096631
O   O32       1.0  0.88925  0.48477  0.62209  1.0000 -0.6530096631
O   O33       1.0  0.42750  0.03272  0.88590  1.0000 -0.6003050342
O   O34       1.0  0.03272  0.42750  0.65388  1.0000 -0.6003050342
O   O35       1.0  0.65388  0.88590  0.03272  1.0000 -0.6003050342
O   O36       1.0  0.88590  0.65388  0.42750  1.0000 -0.6003050342
O   O37       1.0  0.82250  0.21728  0.36410  1.0000 -0.6003050342
O   O38       1.0  0.21728  0.82250  0.59612  1.0000 -0.6003050342
O   O39       1.0  0.59612  0.36410  0.21728  1.0000 -0.6003050342
O   O40       1.0  0.36410  0.59612  0.82250  1.0000 -0.6003050342
O   O41       1.0  0.56462  0.95564  0.82576  1.0000 -0.5713987526
O   O42       1.0  0.95564  0.56462  0.65398  1.0000 -0.5713987526
O   O43       1.0  0.65398  0.82576  0.95564  1.0000 -0.5713987526
O   O44       1.0  0.82576  0.65398  0.56462  1.0000 -0.5713987526
O   O45       1.0  0.68538  0.29436  0.42424  1.0000 -0.5713987526
O   O46       1.0  0.29436  0.68538  0.59602  1.0000 -0.5713987526
O   O47       1.0  0.59602  0.42424  0.29436  1.0000 -0.5713987526
O   O48       1.0  0.42424  0.59602  0.68538  1.0000 -0.5713987526
