# DDEC6 charges by PACMAN v1.1 (https://github.com/mtap-research/PACMAN-charge/)
data_2015[CoSi][nan]3[FSR]1
_chemical_formula_sum              "Co12 Si8 H128 C224 O64"
_cell_length_a       13.8219
_cell_length_b       21.882
_cell_length_c       26.982
_cell_angle_alpha    90
_cell_angle_beta     90
_cell_angle_gamma    90

_symmetry_space_group_name_H-M    "P 1"
_symmetry_Int_Tables_number       1

loop_
  _symmetry_equiv_pos_as_xyz
  'x, y, z'

loop_
  _atom_site_type_symbol
  _atom_site_label
  _atom_site_symmetry_multiplicity
  _atom_site_fract_x
  _atom_site_fract_y
  _atom_site_fract_z
  _atom_site_occupancy
  _atom_site_charge
Co  Co1       1.0  0.75000  0.75000  0.12840  1.0000 1.0574322843
Co  Co2       1.0  0.75000  0.25000  0.37160  1.0000 1.0574322843
Co  Co3       1.0  0.25000  0.25000  0.87160  1.0000 1.0574322843
Co  Co4       1.0  0.25000  0.75000  0.62840  1.0000 1.0574322843
Co  Co5       1.0  0.96662  0.68528  0.11772  1.0000 0.9808813834
Co  Co6       1.0  0.96662  0.31472  0.38228  1.0000 0.9808813834
Co  Co7       1.0  0.53338  0.18528  0.38228  1.0000 0.9808813834
Co  Co8       1.0  0.53338  0.81472  0.11772  1.0000 0.9808813834
Co  Co9       1.0  0.03338  0.31472  0.88228  1.0000 0.9808813834
Co  Co10      1.0  0.03338  0.68528  0.61772  1.0000 0.9808813834
Co  Co11      1.0  0.46662  0.81472  0.61772  1.0000 0.9808813834
Co  Co12      1.0  0.46662  0.18528  0.88228  1.0000 0.9808813834
Si  Si1       1.0  0.46551  0.44566  0.13160  1.0000 0.6507401073
Si  Si2       1.0  0.46551  0.55434  0.36840  1.0000 0.6507401073
Si  Si3       1.0  0.03449  0.94566  0.36840  1.0000 0.6507401073
Si  Si4       1.0  0.03449  0.05434  0.13160  1.0000 0.6507401073
Si  Si5       1.0  0.53449  0.55434  0.86840  1.0000 0.6507401073
Si  Si6       1.0  0.53449  0.44566  0.63160  1.0000 0.6507401073
Si  Si7       1.0  0.96551  0.05434  0.63160  1.0000 0.6507401073
Si  Si8       1.0  0.96551  0.94566  0.86840  1.0000 0.6507401073
H   H1        1.0  0.67430  0.33770  0.24300  1.0000 0.1380574626
H   H2        1.0  0.67430  0.66230  0.25700  1.0000 0.1380574626
H   H3        1.0  0.82570  0.83770  0.25700  1.0000 0.1380574626
H   H4        1.0  0.82570  0.16230  0.24300  1.0000 0.1380574626
H   H5        1.0  0.32570  0.66230  0.75700  1.0000 0.1380574626
H   H6        1.0  0.32570  0.33770  0.74300  1.0000 0.1380574626
H   H7        1.0  0.17430  0.16230  0.74300  1.0000 0.1380574626
H   H8        1.0  0.17430  0.83770  0.75700  1.0000 0.1380574626
H   H9        1.0  0.40010  0.31330  0.27260  1.0000 0.1380574626
H   H10       1.0  0.40010  0.68670  0.22740  1.0000 0.1380574626
H   H11       1.0  0.09990  0.81330  0.22740  1.0000 0.1380574626
H   H12       1.0  0.09990  0.18670  0.27260  1.0000 0.1380574626
H   H13       1.0  0.59990  0.68670  0.72740  1.0000 0.1380574626
H   H14       1.0  0.59990  0.31330  0.77260  1.0000 0.1380574626
H   H15       1.0  0.90010  0.18670  0.77260  1.0000 0.1380574626
H   H16       1.0  0.90010  0.81330  0.72740  1.0000 0.1380574626
H   H17       1.0  0.54020  0.27910  0.02160  1.0000 0.1380574626
H   H18       1.0  0.54020  0.72090  0.47840  1.0000 0.1380574626
H   H19       1.0  0.95980  0.77910  0.47840  1.0000 0.1380574626
H   H20       1.0  0.95980  0.22090  0.02160  1.0000 0.1380574626
H   H21       1.0  0.45980  0.72090  0.97840  1.0000 0.1380574626
H   H22       1.0  0.45980  0.27910  0.52160  1.0000 0.1380574626
H   H23       1.0  0.04020  0.22090  0.52160  1.0000 0.1380574626
H   H24       1.0  0.04020  0.77910  0.97840  1.0000 0.1380574626
H   H25       1.0  0.28990  0.35340  0.99610  1.0000 0.1380574626
H   H26       1.0  0.28990  0.64660  0.50390  1.0000 0.1380574626
H   H27       1.0  0.21010  0.85340  0.50390  1.0000 0.1380574626
H   H28       1.0  0.21010  0.14660  0.99610  1.0000 0.1380574626
H   H29       1.0  0.71010  0.64660  0.00390  1.0000 0.1380574626
H   H30       1.0  0.71010  0.35340  0.49610  1.0000 0.1380574626
H   H31       1.0  0.78990  0.14660  0.49610  1.0000 0.1380574626
H   H32       1.0  0.78990  0.85340  0.00390  1.0000 0.1380574626
H   H33       1.0  0.68750  0.61150  0.17020  1.0000 0.1207934714
H   H34       1.0  0.68750  0.38850  0.32980  1.0000 0.1207934714
H   H35       1.0  0.81250  0.11150  0.32980  1.0000 0.1207934714
H   H36       1.0  0.81250  0.88850  0.17020  1.0000 0.1207934714
H   H37       1.0  0.31250  0.38850  0.82980  1.0000 0.1207934714
H   H38       1.0  0.31250  0.61150  0.67020  1.0000 0.1207934714
H   H39       1.0  0.18750  0.88850  0.67020  1.0000 0.1207934714
H   H40       1.0  0.18750  0.11150  0.82980  1.0000 0.1207934714
H   H41       1.0  0.55360  0.54850  0.17860  1.0000 0.1119615191
H   H42       1.0  0.55360  0.45150  0.32140  1.0000 0.1119615191
H   H43       1.0  0.94640  0.04850  0.32140  1.0000 0.1119615191
H   H44       1.0  0.94640  0.95150  0.17860  1.0000 0.1119615191
H   H45       1.0  0.44640  0.45150  0.82140  1.0000 0.1119615191
H   H46       1.0  0.44640  0.54850  0.67860  1.0000 0.1119615191
H   H47       1.0  0.05360  0.95150  0.67860  1.0000 0.1119615191
H   H48       1.0  0.05360  0.04850  0.82140  1.0000 0.1119615191
H   H49       1.0  0.63430  0.39990  0.17940  1.0000 0.1207934714
H   H50       1.0  0.63430  0.60010  0.32060  1.0000 0.1207934714
H   H51       1.0  0.86570  0.89990  0.32060  1.0000 0.1207934714
H   H52       1.0  0.86570  0.10010  0.17940  1.0000 0.1207934714
H   H53       1.0  0.36570  0.60010  0.82060  1.0000 0.1207934714
H   H54       1.0  0.36570  0.39990  0.67940  1.0000 0.1207934714
H   H55       1.0  0.13430  0.10010  0.67940  1.0000 0.1207934714
H   H56       1.0  0.13430  0.89990  0.82060  1.0000 0.1207934714
H   H57       1.0  0.31650  0.42350  0.05950  1.0000 0.1207934714
H   H58       1.0  0.31650  0.57650  0.44050  1.0000 0.1207934714
H   H59       1.0  0.18350  0.92350  0.44050  1.0000 0.1207934714
H   H60       1.0  0.18350  0.07650  0.05950  1.0000 0.1207934714
H   H61       1.0  0.68350  0.57650  0.94050  1.0000 0.1207934714
H   H62       1.0  0.68350  0.42350  0.55950  1.0000 0.1207934714
H   H63       1.0  0.81650  0.07650  0.55950  1.0000 0.1207934714
H   H64       1.0  0.81650  0.92350  0.94050  1.0000 0.1207934714
H   H65       1.0  0.56360  0.34660  0.08540  1.0000 0.1207934714
H   H66       1.0  0.56360  0.65340  0.41460  1.0000 0.1207934714
H   H67       1.0  0.93640  0.84660  0.41460  1.0000 0.1207934714
H   H68       1.0  0.93640  0.15340  0.08540  1.0000 0.1207934714
H   H69       1.0  0.43640  0.65340  0.91460  1.0000 0.1207934714
H   H70       1.0  0.43640  0.34660  0.58540  1.0000 0.1207934714
H   H71       1.0  0.06360  0.15340  0.58540  1.0000 0.1207934714
H   H72       1.0  0.06360  0.84660  0.91460  1.0000 0.1207934714
H   H73       1.0  0.62090  0.46170  0.05570  1.0000 0.1119615191
H   H74       1.0  0.62090  0.53830  0.44430  1.0000 0.1119615191
H   H75       1.0  0.87910  0.96170  0.44430  1.0000 0.1119615191
H   H76       1.0  0.87910  0.03830  0.05570  1.0000 0.1119615191
H   H77       1.0  0.37910  0.53830  0.94430  1.0000 0.1119615191
H   H78       1.0  0.37910  0.46170  0.55570  1.0000 0.1119615191
H   H79       1.0  0.12090  0.03830  0.55570  1.0000 0.1119615191
H   H80       1.0  0.12090  0.96170  0.94430  1.0000 0.1119615191
H   H81       1.0  0.75290  0.52320  0.04630  1.0000 0.1207934714
H   H82       1.0  0.75290  0.47680  0.45370  1.0000 0.1207934714
H   H83       1.0  0.74710  0.02320  0.45370  1.0000 0.1207934714
H   H84       1.0  0.74710  0.97680  0.04630  1.0000 0.1207934714
H   H85       1.0  0.24710  0.47680  0.95370  1.0000 0.1207934714
H   H86       1.0  0.24710  0.52320  0.54630  1.0000 0.1207934714
H   H87       1.0  0.25290  0.97680  0.54630  1.0000 0.1207934714
H   H88       1.0  0.25290  0.02320  0.95370  1.0000 0.1207934714
H   H89       1.0  0.36190  0.38260  0.21230  1.0000 0.1119615191
H   H90       1.0  0.36190  0.61740  0.28770  1.0000 0.1119615191
H   H91       1.0  0.13810  0.88260  0.28770  1.0000 0.1119615191
H   H92       1.0  0.13810  0.11740  0.21230  1.0000 0.1119615191
H   H93       1.0  0.63810  0.61740  0.78770  1.0000 0.1119615191
H   H94       1.0  0.63810  0.38260  0.71230  1.0000 0.1119615191
H   H95       1.0  0.86190  0.11740  0.71230  1.0000 0.1119615191
H   H96       1.0  0.86190  0.88260  0.78770  1.0000 0.1119615191
H   H97       1.0  0.23530  0.59780  0.07840  1.0000 0.1380574626
H   H98       1.0  0.23530  0.40220  0.42160  1.0000 0.1380574626
H   H99       1.0  0.26470  0.09780  0.42160  1.0000 0.1380574626
H   H100      1.0  0.26470  0.90220  0.07840  1.0000 0.1380574626
H   H101      1.0  0.76470  0.40220  0.92160  1.0000 0.1380574626
H   H102      1.0  0.76470  0.59780  0.57840  1.0000 0.1380574626
H   H103      1.0  0.73530  0.90220  0.57840  1.0000 0.1380574626
H   H104      1.0  0.73530  0.09780  0.92160  1.0000 0.1380574626
H   H105      1.0  0.37940  0.54270  0.07840  1.0000 0.1207934714
H   H106      1.0  0.37940  0.45730  0.42160  1.0000 0.1207934714
H   H107      1.0  0.12060  0.04270  0.42160  1.0000 0.1207934714
H   H108      1.0  0.12060  0.95730  0.07840  1.0000 0.1207934714
H   H109      1.0  0.62060  0.45730  0.92160  1.0000 0.1207934714
H   H110      1.0  0.62060  0.54270  0.57840  1.0000 0.1207934714
H   H111      1.0  0.87940  0.95730  0.57840  1.0000 0.1207934714
H   H112      1.0  0.87940  0.04270  0.92160  1.0000 0.1207934714
H   H113      1.0  0.16810  0.52390  0.20380  1.0000 0.1346954869
H   H114      1.0  0.16810  0.47610  0.29620  1.0000 0.1346954869
H   H115      1.0  0.33190  0.02390  0.29620  1.0000 0.1346954869
H   H116      1.0  0.33190  0.97610  0.20380  1.0000 0.1346954869
H   H117      1.0  0.83190  0.47610  0.79620  1.0000 0.1346954869
H   H118      1.0  0.83190  0.52390  0.70380  1.0000 0.1346954869
H   H119      1.0  0.66810  0.97610  0.70380  1.0000 0.1346954869
H   H120      1.0  0.66810  0.02390  0.79620  1.0000 0.1346954869
H   H121      1.0  0.29790  0.46320  0.19660  1.0000 0.1207934714
H   H122      1.0  0.29790  0.53680  0.30340  1.0000 0.1207934714
H   H123      1.0  0.20210  0.96320  0.30340  1.0000 0.1207934714
H   H124      1.0  0.20210  0.03680  0.19660  1.0000 0.1207934714
H   H125      1.0  0.70210  0.53680  0.80340  1.0000 0.1207934714
H   H126      1.0  0.70210  0.46320  0.69660  1.0000 0.1207934714
H   H127      1.0  0.79790  0.03680  0.69660  1.0000 0.1207934714
H   H128      1.0  0.79790  0.96320  0.80340  1.0000 0.1207934714
C   C1        1.0  0.09820  0.60680  0.14190  1.0000 0.5624667311
C   C2        1.0  0.09820  0.39320  0.35810  1.0000 0.5624667311
C   C3        1.0  0.40180  0.10680  0.35810  1.0000 0.5624667311
C   C4        1.0  0.40180  0.89320  0.14190  1.0000 0.5624667311
C   C5        1.0  0.90180  0.39320  0.85810  1.0000 0.5624667311
C   C6        1.0  0.90180  0.60680  0.64190  1.0000 0.5624667311
C   C7        1.0  0.59820  0.89320  0.64190  1.0000 0.5624667311
C   C8        1.0  0.59820  0.10680  0.85810  1.0000 0.5624667311
C   C9        1.0  0.57100  0.27760  0.30740  1.0000 0.5997899079
C   C10       1.0  0.57100  0.72240  0.19260  1.0000 0.5997899079
C   C11       1.0  0.92900  0.77760  0.19260  1.0000 0.5997899079
C   C12       1.0  0.92900  0.22240  0.30740  1.0000 0.5997899079
C   C13       1.0  0.42900  0.72240  0.69260  1.0000 0.5997899079
C   C14       1.0  0.42900  0.27760  0.80740  1.0000 0.5997899079
C   C15       1.0  0.07100  0.22240  0.80740  1.0000 0.5997899079
C   C16       1.0  0.07100  0.77760  0.69260  1.0000 0.5997899079
C   C17       1.0  0.54040  0.31810  0.26600  1.0000 -0.0180769015
C   C18       1.0  0.54040  0.68190  0.23400  1.0000 -0.0180769015
C   C19       1.0  0.95960  0.81810  0.23400  1.0000 -0.0180769015
C   C20       1.0  0.95960  0.18190  0.26600  1.0000 -0.0180769015
C   C21       1.0  0.45960  0.68190  0.73400  1.0000 -0.0180769015
C   C22       1.0  0.45960  0.31810  0.76600  1.0000 -0.0180769015
C   C23       1.0  0.04040  0.18190  0.76600  1.0000 -0.0180769015
C   C24       1.0  0.04040  0.81810  0.73400  1.0000 -0.0180769015
C   C25       1.0  0.60930  0.34530  0.23660  1.0000 -0.0994604814
C   C26       1.0  0.60930  0.65470  0.26340  1.0000 -0.0994604814
C   C27       1.0  0.89070  0.84530  0.26340  1.0000 -0.0994604814
C   C28       1.0  0.89070  0.15470  0.23660  1.0000 -0.0994604814
C   C29       1.0  0.39070  0.65470  0.76340  1.0000 -0.0994604814
C   C30       1.0  0.39070  0.34530  0.73660  1.0000 -0.0994604814
C   C31       1.0  0.10930  0.15470  0.73660  1.0000 -0.0994604814
C   C32       1.0  0.10930  0.84530  0.76340  1.0000 -0.0994604814
C   C33       1.0  0.44980  0.33160  0.25480  1.0000 -0.0907556524
C   C34       1.0  0.44980  0.66840  0.24520  1.0000 -0.0907556524
C   C35       1.0  0.05020  0.83160  0.24520  1.0000 -0.0907556524
C   C36       1.0  0.05020  0.16840  0.25480  1.0000 -0.0907556524
C   C37       1.0  0.55020  0.66840  0.74520  1.0000 -0.0907556524
C   C38       1.0  0.55020  0.33160  0.75480  1.0000 -0.0907556524
C   C39       1.0  0.94980  0.16840  0.75480  1.0000 -0.0907556524
C   C40       1.0  0.94980  0.83160  0.74520  1.0000 -0.0907556524
C   C41       1.0  0.40540  0.27520  0.95250  1.0000 0.5997899079
C   C42       1.0  0.40540  0.72480  0.54750  1.0000 0.5997899079
C   C43       1.0  0.09460  0.77520  0.54750  1.0000 0.5997899079
C   C44       1.0  0.09460  0.22480  0.95250  1.0000 0.5997899079
C   C45       1.0  0.59460  0.72480  0.04750  1.0000 0.5997899079
C   C46       1.0  0.59460  0.27520  0.45250  1.0000 0.5997899079
C   C47       1.0  0.90540  0.22480  0.45250  1.0000 0.5997899079
C   C48       1.0  0.90540  0.77520  0.04750  1.0000 0.5997899079
C   C49       1.0  0.42050  0.31620  0.99650  1.0000 -0.0008282288
C   C50       1.0  0.42050  0.68380  0.50350  1.0000 -0.0008282288
C   C51       1.0  0.07950  0.81620  0.50350  1.0000 -0.0008282288
C   C52       1.0  0.07950  0.18380  0.99650  1.0000 -0.0008282288
C   C53       1.0  0.57950  0.68380  0.00350  1.0000 -0.0008282288
C   C54       1.0  0.57950  0.31620  0.49650  1.0000 -0.0008282288
C   C55       1.0  0.92050  0.18380  0.49650  1.0000 -0.0008282288
C   C56       1.0  0.92050  0.81620  0.00350  1.0000 -0.0008282288
C   C57       1.0  0.49560  0.31030  0.02680  1.0000 -0.0994604814
C   C58       1.0  0.49560  0.68970  0.47320  1.0000 -0.0994604814
C   C59       1.0  0.00440  0.81030  0.47320  1.0000 -0.0994604814
C   C60       1.0  0.00440  0.18970  0.02680  1.0000 -0.0994604814
C   C61       1.0  0.50440  0.68970  0.97320  1.0000 -0.0994604814
C   C62       1.0  0.50440  0.31030  0.52680  1.0000 -0.0994604814
C   C63       1.0  0.99560  0.18970  0.52680  1.0000 -0.0994604814
C   C64       1.0  0.99560  0.81030  0.97320  1.0000 -0.0994604814
C   C65       1.0  0.34960  0.35430  0.01200  1.0000 -0.0907556524
C   C66       1.0  0.34960  0.64570  0.48800  1.0000 -0.0907556524
C   C67       1.0  0.15040  0.85430  0.48800  1.0000 -0.0907556524
C   C68       1.0  0.15040  0.14570  0.01200  1.0000 -0.0907556524
C   C69       1.0  0.65040  0.64570  0.98800  1.0000 -0.0907556524
C   C70       1.0  0.65040  0.35430  0.51200  1.0000 -0.0907556524
C   C71       1.0  0.84960  0.14570  0.51200  1.0000 -0.0907556524
C   C72       1.0  0.84960  0.85430  0.98800  1.0000 -0.0907556524
C   C73       1.0  0.35610  0.49400  0.13860  1.0000 -0.1699261407
C   C74       1.0  0.35610  0.50600  0.36140  1.0000 -0.1699261407
C   C75       1.0  0.14390  0.99400  0.36140  1.0000 -0.1699261407
C   C76       1.0  0.14390  0.00600  0.13860  1.0000 -0.1699261407
C   C77       1.0  0.64390  0.50600  0.86140  1.0000 -0.1699261407
C   C78       1.0  0.64390  0.49400  0.63860  1.0000 -0.1699261407
C   C79       1.0  0.85610  0.00600  0.63860  1.0000 -0.1699261407
C   C80       1.0  0.85610  0.99400  0.86140  1.0000 -0.1699261407
C   C81       1.0  0.44800  0.39270  0.07813  1.0000 -0.1699261407
C   C82       1.0  0.44800  0.60730  0.42187  1.0000 -0.1699261407
C   C83       1.0  0.05200  0.89270  0.42187  1.0000 -0.1699261407
C   C84       1.0  0.05200  0.10730  0.07813  1.0000 -0.1699261407
C   C85       1.0  0.55200  0.60730  0.92187  1.0000 -0.1699261407
C   C86       1.0  0.55200  0.39270  0.57813  1.0000 -0.1699261407
C   C87       1.0  0.94800  0.10730  0.57813  1.0000 -0.1699261407
C   C88       1.0  0.94800  0.89270  0.92187  1.0000 -0.1699261407
C   C89       1.0  0.57130  0.49660  0.11940  1.0000 -0.1879150874
C   C90       1.0  0.57130  0.50340  0.38060  1.0000 -0.1879150874
C   C91       1.0  0.92870  0.99660  0.38060  1.0000 -0.1879150874
C   C92       1.0  0.92870  0.00340  0.11940  1.0000 -0.1879150874
C   C93       1.0  0.42870  0.50340  0.88060  1.0000 -0.1879150874
C   C94       1.0  0.42870  0.49660  0.61940  1.0000 -0.1879150874
C   C95       1.0  0.07130  0.00340  0.61940  1.0000 -0.1879150874
C   C96       1.0  0.07130  0.99660  0.88060  1.0000 -0.1879150874
C   C97       1.0  0.49380  0.39750  0.18728  1.0000 -0.1844864782
C   C98       1.0  0.49380  0.60250  0.31272  1.0000 -0.1844864782
C   C99       1.0  0.00620  0.89750  0.31272  1.0000 -0.1879150874
C   C100      1.0  0.00620  0.10250  0.18728  1.0000 -0.1879150874
C   C101      1.0  0.50620  0.60250  0.81272  1.0000 -0.1844864782
C   C102      1.0  0.50620  0.39750  0.68728  1.0000 -0.1844864782
C   C103      1.0  0.99380  0.10250  0.68728  1.0000 -0.1844864782
C   C104      1.0  0.99380  0.89750  0.81272  1.0000 -0.1844864782
C   C105      1.0  0.73350  0.57540  0.10720  1.0000 -0.0065185621
C   C106      1.0  0.73350  0.42460  0.39280  1.0000 -0.0065185621
C   C107      1.0  0.76650  0.07540  0.39280  1.0000 -0.0065185621
C   C108      1.0  0.76650  0.92460  0.10720  1.0000 -0.0065185621
C   C109      1.0  0.26650  0.42460  0.89280  1.0000 -0.0065185621
C   C110      1.0  0.26650  0.57540  0.60720  1.0000 -0.0065185621
C   C111      1.0  0.23350  0.92460  0.60720  1.0000 -0.0065185621
C   C112      1.0  0.23350  0.07540  0.89280  1.0000 -0.0065185621
C   C113      1.0  0.67500  0.58170  0.14650  1.0000 -0.080721016
C   C114      1.0  0.67500  0.41830  0.35350  1.0000 -0.080721016
C   C115      1.0  0.82500  0.08170  0.35350  1.0000 -0.080721016
C   C116      1.0  0.82500  0.91830  0.14650  1.0000 -0.080721016
C   C117      1.0  0.32500  0.41830  0.85350  1.0000 -0.080721016
C   C118      1.0  0.32500  0.58170  0.64650  1.0000 -0.080721016
C   C119      1.0  0.17500  0.91830  0.64650  1.0000 -0.080721016
C   C120      1.0  0.17500  0.08170  0.85350  1.0000 -0.080721016
C   C121      1.0  0.59410  0.54250  0.15150  1.0000 -0.0907556524
C   C122      1.0  0.59410  0.45750  0.34850  1.0000 -0.0907556524
C   C123      1.0  0.90590  0.04250  0.34850  1.0000 -0.0907556524
C   C124      1.0  0.90590  0.95750  0.15150  1.0000 -0.0907556524
C   C125      1.0  0.40590  0.45750  0.84850  1.0000 -0.0907556524
C   C126      1.0  0.40590  0.54250  0.65150  1.0000 -0.0907556524
C   C127      1.0  0.09410  0.95750  0.65150  1.0000 -0.0907556524
C   C128      1.0  0.09410  0.04250  0.84850  1.0000 -0.0907556524
C   C129      1.0  0.81980  0.61450  0.10200  1.0000 0.5746167504
C   C130      1.0  0.81980  0.38550  0.39800  1.0000 0.5746167504
C   C131      1.0  0.68020  0.11450  0.39800  1.0000 0.5746167504
C   C132      1.0  0.68020  0.88550  0.10200  1.0000 0.5746167504
C   C133      1.0  0.18020  0.38550  0.89800  1.0000 0.5746167504
C   C134      1.0  0.18020  0.61450  0.60200  1.0000 0.5746167504
C   C135      1.0  0.31980  0.88550  0.60200  1.0000 0.5746167504
C   C136      1.0  0.31980  0.11450  0.89800  1.0000 0.5746167504
C   C137      1.0  0.58500  0.38320  0.19850  1.0000 -0.0907556524
C   C138      1.0  0.58500  0.61680  0.30150  1.0000 -0.0907556524
C   C139      1.0  0.91500  0.88320  0.30150  1.0000 -0.0907556524
C   C140      1.0  0.91500  0.11680  0.19850  1.0000 -0.0907556524
C   C141      1.0  0.41500  0.61680  0.80150  1.0000 -0.0907556524
C   C142      1.0  0.41500  0.38320  0.69850  1.0000 -0.0907556524
C   C143      1.0  0.08500  0.11680  0.69850  1.0000 -0.0994604814
C   C144      1.0  0.08500  0.88320  0.80150  1.0000 -0.0994604814
C   C145      1.0  0.36400  0.39500  0.05150  1.0000 -0.0994604814
C   C146      1.0  0.36400  0.60500  0.44850  1.0000 -0.0994604814
C   C147      1.0  0.13600  0.89500  0.44850  1.0000 -0.0994604814
C   C148      1.0  0.13600  0.10500  0.05150  1.0000 -0.0994604814
C   C149      1.0  0.63600  0.60500  0.94850  1.0000 -0.0994604814
C   C150      1.0  0.63600  0.39500  0.55150  1.0000 -0.0994604814
C   C151      1.0  0.86400  0.10500  0.55150  1.0000 -0.0994604814
C   C152      1.0  0.86400  0.89500  0.94850  1.0000 -0.0994604814
C   C153      1.0  0.50790  0.35060  0.06630  1.0000 -0.080721016
C   C154      1.0  0.50790  0.64940  0.43370  1.0000 -0.080721016
C   C155      1.0  0.99210  0.85060  0.43370  1.0000 -0.080721016
C   C156      1.0  0.99210  0.14940  0.06630  1.0000 -0.080721016
C   C157      1.0  0.49210  0.64940  0.93370  1.0000 -0.080721016
C   C158      1.0  0.49210  0.35060  0.56630  1.0000 -0.080721016
C   C159      1.0  0.00790  0.14940  0.56630  1.0000 -0.080721016
C   C160      1.0  0.00790  0.85060  0.93370  1.0000 -0.080721016
C   C161      1.0  0.63320  0.49150  0.07940  1.0000 -0.0994604814
C   C162      1.0  0.63320  0.50850  0.42060  1.0000 -0.0994604814
C   C163      1.0  0.86680  0.99150  0.42060  1.0000 -0.0994604814
C   C164      1.0  0.86680  0.00850  0.07940  1.0000 -0.0994604814
C   C165      1.0  0.36680  0.50850  0.92060  1.0000 -0.0994604814
C   C166      1.0  0.36680  0.49150  0.57940  1.0000 -0.0994604814
C   C167      1.0  0.13320  0.00850  0.57940  1.0000 -0.0994604814
C   C168      1.0  0.13320  0.99150  0.92060  1.0000 -0.0994604814
C   C169      1.0  0.71250  0.52900  0.07340  1.0000 -0.080721016
C   C170      1.0  0.71250  0.47100  0.42660  1.0000 -0.080721016
C   C171      1.0  0.78750  0.02900  0.42660  1.0000 -0.080721016
C   C172      1.0  0.78750  0.97100  0.07340  1.0000 -0.080721016
C   C173      1.0  0.28750  0.47100  0.92660  1.0000 -0.080721016
C   C174      1.0  0.28750  0.52900  0.57340  1.0000 -0.080721016
C   C175      1.0  0.21250  0.97100  0.57340  1.0000 -0.080721016
C   C176      1.0  0.21250  0.02900  0.92660  1.0000 -0.080721016
C   C177      1.0  0.42660  0.37230  0.21720  1.0000 -0.0994604814
C   C178      1.0  0.42660  0.62770  0.28280  1.0000 -0.0994604814
C   C179      1.0  0.07340  0.87230  0.28280  1.0000 -0.0994604814
C   C180      1.0  0.07340  0.12770  0.21720  1.0000 -0.0994604814
C   C181      1.0  0.57340  0.62770  0.78280  1.0000 -0.0994604814
C   C182      1.0  0.57340  0.37230  0.71720  1.0000 -0.0994604814
C   C183      1.0  0.92660  0.12770  0.71720  1.0000 -0.0994604814
C   C184      1.0  0.92660  0.87230  0.78280  1.0000 -0.0994604814
C   C185      1.0  0.19050  0.56720  0.14250  1.0000 0.0152058841
C   C186      1.0  0.19050  0.43280  0.35750  1.0000 0.0152058841
C   C187      1.0  0.30950  0.06720  0.35750  1.0000 0.0152058841
C   C188      1.0  0.30950  0.93280  0.14250  1.0000 0.0152058841
C   C189      1.0  0.80950  0.43280  0.85750  1.0000 0.0152058841
C   C190      1.0  0.80950  0.56720  0.64250  1.0000 0.0152058841
C   C191      1.0  0.69050  0.93280  0.64250  1.0000 0.0152058841
C   C192      1.0  0.69050  0.06720  0.85750  1.0000 0.0152058841
C   C193      1.0  0.24970  0.57170  0.10450  1.0000 -0.0994604814
C   C194      1.0  0.24970  0.42830  0.39550  1.0000 -0.0994604814
C   C195      1.0  0.25030  0.07170  0.39550  1.0000 -0.0994604814
C   C196      1.0  0.25030  0.92830  0.10450  1.0000 -0.0994604814
C   C197      1.0  0.75030  0.42830  0.89550  1.0000 -0.0994604814
C   C198      1.0  0.75030  0.57170  0.60450  1.0000 -0.0994604814
C   C199      1.0  0.74970  0.92830  0.60450  1.0000 -0.0994604814
C   C200      1.0  0.74970  0.07170  0.89550  1.0000 -0.0994604814
C   C201      1.0  0.33530  0.53640  0.10390  1.0000 -0.0994604814
C   C202      1.0  0.33530  0.46360  0.39610  1.0000 -0.0994604814
C   C203      1.0  0.16470  0.03640  0.39610  1.0000 -0.0994604814
C   C204      1.0  0.16470  0.96360  0.10390  1.0000 -0.0994604814
C   C205      1.0  0.66470  0.46360  0.89610  1.0000 -0.0994604814
C   C206      1.0  0.66470  0.53640  0.60390  1.0000 -0.0994604814
C   C207      1.0  0.83530  0.96360  0.60390  1.0000 -0.0994604814
C   C208      1.0  0.83530  0.03640  0.89610  1.0000 -0.0994604814
C   C209      1.0  0.20890  0.52800  0.17660  1.0000 -0.0907556524
C   C210      1.0  0.20890  0.47200  0.32340  1.0000 -0.0907556524
C   C211      1.0  0.29110  0.02800  0.32340  1.0000 -0.0907556524
C   C212      1.0  0.29110  0.97200  0.17660  1.0000 -0.0994604814
C   C213      1.0  0.79110  0.47200  0.82340  1.0000 -0.0907556524
C   C214      1.0  0.79110  0.52800  0.67660  1.0000 -0.0907556524
C   C215      1.0  0.70890  0.97200  0.67660  1.0000 -0.0907556524
C   C216      1.0  0.70890  0.02800  0.82340  1.0000 -0.0907556524
C   C217      1.0  0.28960  0.49260  0.17200  1.0000 -0.1070011093
C   C218      1.0  0.28960  0.50740  0.32800  1.0000 -0.1070011093
C   C219      1.0  0.21040  0.99260  0.32800  1.0000 -0.1070011093
C   C220      1.0  0.21040  0.00740  0.17200  1.0000 -0.1070011093
C   C221      1.0  0.71040  0.50740  0.82800  1.0000 -0.1070011093
C   C222      1.0  0.71040  0.49260  0.67200  1.0000 -0.1070011093
C   C223      1.0  0.78960  0.00740  0.67200  1.0000 -0.1070011093
C   C224      1.0  0.78960  0.99260  0.82800  1.0000 -0.1070011093
O   O1        1.0  0.09820  0.64930  0.10710  1.0000 -0.5400274044
O   O2        1.0  0.09820  0.35070  0.39290  1.0000 -0.5400274044
O   O3        1.0  0.40180  0.14930  0.39290  1.0000 -0.5400274044
O   O4        1.0  0.40180  0.85070  0.10710  1.0000 -0.5400274044
O   O5        1.0  0.90180  0.35070  0.89290  1.0000 -0.5400274044
O   O6        1.0  0.90180  0.64930  0.60710  1.0000 -0.5400274044
O   O7        1.0  0.59820  0.85070  0.60710  1.0000 -0.5400274044
O   O8        1.0  0.59820  0.14930  0.89290  1.0000 -0.5400274044
O   O9        1.0  0.65930  0.27698  0.31703  1.0000 -0.5488407111
O   O10       1.0  0.65930  0.72302  0.18297  1.0000 -0.5488407111
O   O11       1.0  0.84070  0.77698  0.18297  1.0000 -0.5488407111
O   O12       1.0  0.84070  0.22302  0.31703  1.0000 -0.5488407111
O   O13       1.0  0.34070  0.72302  0.68297  1.0000 -0.5488407111
O   O14       1.0  0.34070  0.27698  0.81703  1.0000 -0.5488407111
O   O15       1.0  0.15930  0.22302  0.81703  1.0000 -0.5488407111
O   O16       1.0  0.15930  0.77698  0.68297  1.0000 -0.5488407111
O   O17       1.0  0.46730  0.23580  0.94346  1.0000 -0.5009409632
O   O18       1.0  0.46730  0.76420  0.55654  1.0000 -0.5009409632
O   O19       1.0  0.03270  0.73580  0.55654  1.0000 -0.5009409632
O   O20       1.0  0.03270  0.26420  0.94346  1.0000 -0.5009409632
O   O21       1.0  0.53270  0.76420  0.05654  1.0000 -0.5009409632
O   O22       1.0  0.53270  0.23580  0.44346  1.0000 -0.5009409632
O   O23       1.0  0.96730  0.26420  0.44346  1.0000 -0.5009409632
O   O24       1.0  0.96730  0.73580  0.05654  1.0000 -0.5009409632
O   O25       1.0  0.82630  0.66064  0.13043  1.0000 -0.5837030506
O   O26       1.0  0.82630  0.33936  0.36957  1.0000 -0.5837030506
O   O27       1.0  0.67370  0.16064  0.36957  1.0000 -0.5837030506
O   O28       1.0  0.67370  0.83936  0.13043  1.0000 -0.5837030506
O   O29       1.0  0.17370  0.33936  0.86957  1.0000 -0.5837030506
O   O30       1.0  0.17370  0.66064  0.63043  1.0000 -0.5837030506
O   O31       1.0  0.32630  0.83936  0.63043  1.0000 -0.5837030506
O   O32       1.0  0.32630  0.16064  0.86957  1.0000 -0.5837030506
O   O33       1.0  0.88310  0.60150  0.07163  1.0000 -0.5009409632
O   O34       1.0  0.88310  0.39850  0.42837  1.0000 -0.5009409632
O   O35       1.0  0.61690  0.10150  0.42837  1.0000 -0.5009409632
O   O36       1.0  0.61690  0.89850  0.07163  1.0000 -0.5009409632
O   O37       1.0  0.11690  0.39850  0.92837  1.0000 -0.5009409632
O   O38       1.0  0.11690  0.60150  0.57163  1.0000 -0.5009409632
O   O39       1.0  0.38310  0.89850  0.57163  1.0000 -0.5009409632
O   O40       1.0  0.38310  0.10150  0.92837  1.0000 -0.5009409632
O   O41       1.0  0.50530  0.24620  0.32968  1.0000 -0.5400274044
O   O42       1.0  0.50530  0.75380  0.17032  1.0000 -0.5400274044
O   O43       1.0  0.99470  0.74620  0.17032  1.0000 -0.5400274044
O   O44       1.0  0.99470  0.25380  0.32968  1.0000 -0.5400274044
O   O45       1.0  0.49470  0.75380  0.67032  1.0000 -0.5400274044
O   O46       1.0  0.49470  0.24620  0.82968  1.0000 -0.5400274044
O   O47       1.0  0.00530  0.25380  0.82968  1.0000 -0.5400274044
O   O48       1.0  0.00530  0.74620  0.67032  1.0000 -0.5400274044
O   O49       1.0  0.33260  0.28518  0.92659  1.0000 -0.5622422194
O   O50       1.0  0.33260  0.71482  0.57341  1.0000 -0.5622422194
O   O51       1.0  0.16740  0.78518  0.57341  1.0000 -0.5622422194
O   O52       1.0  0.16740  0.21482  0.92659  1.0000 -0.5622422194
O   O53       1.0  0.66740  0.71482  0.07341  1.0000 -0.5622422194
O   O54       1.0  0.66740  0.28518  0.42659  1.0000 -0.5622422194
O   O55       1.0  0.83260  0.21482  0.42659  1.0000 -0.5622422194
O   O56       1.0  0.83260  0.78518  0.07341  1.0000 -0.5622422194
O   O57       1.0  0.03490  0.59830  0.17180  1.0000 -0.5009409632
O   O58       1.0  0.03490  0.40170  0.32820  1.0000 -0.5009409632
O   O59       1.0  0.46510  0.09830  0.32820  1.0000 -0.5009409632
O   O60       1.0  0.46510  0.90170  0.17180  1.0000 -0.5009409632
O   O61       1.0  0.96510  0.40170  0.82820  1.0000 -0.5009409632
O   O62       1.0  0.96510  0.59830  0.67180  1.0000 -0.5009409632
O   O63       1.0  0.53490  0.90170  0.67180  1.0000 -0.5009409632
O   O64       1.0  0.53490  0.09830  0.82820  1.0000 -0.5009409632
