# DDEC6 charges by PACMAN v1.1 (https://github.com/mtap-research/PACMAN-charge/)
data_2015[Ni][frl]3[FSR]1
_chemical_formula_sum              "Ni3 P4 H30 C30 N8 O14"
_cell_length_a       8.944
_cell_length_b       10.776
_cell_length_c       13.789
_cell_angle_alpha    68.768
_cell_angle_beta     78.142
_cell_angle_gamma    79.991

_symmetry_space_group_name_H-M    "P 1"
_symmetry_Int_Tables_number       1

loop_
  _symmetry_equiv_pos_as_xyz
  'x, y, z'

loop_
  _atom_site_type_symbol
  _atom_site_label
  _atom_site_symmetry_multiplicity
  _atom_site_fract_x
  _atom_site_fract_y
  _atom_site_fract_z
  _atom_site_occupancy
  _atom_site_charge
Ni  Ni1       1.0  0.50000  0.50000  0.00000  1.0000 0.9688576834
Ni  Ni2       1.0  0.31062  0.90013  0.14913  1.0000 0.8747918682
Ni  Ni3       1.0  0.68938  0.09987  0.85087  1.0000 0.8747918682
P   P1        1.0  0.53205  0.81894  0.96769  1.0000 1.2487915532
P   P2        1.0  0.46795  0.18106  0.03231  1.0000 1.2487915532
P   P3        1.0  0.21761  0.71696  0.04987  1.0000 1.2035714762
P   P4        1.0  0.78239  0.28304  0.95013  1.0000 1.2035714762
H   H1        1.0  0.22590  0.04880  0.95460  1.0000 0.3592088597
H   H2        1.0  0.77410  0.95120  0.04540  1.0000 0.3592088597
H   H3        1.0  0.02470  0.74880  0.98180  1.0000 0.3908097224
H   H4        1.0  0.97530  0.25120  0.01820  1.0000 0.3908097224
H   H5        1.0  0.36220  0.97210  0.79640  1.0000 0.1367717014
H   H6        1.0  0.63780  0.02790  0.20360  1.0000 0.1367717014
H   H7        1.0  0.35480  0.82180  0.81310  1.0000 0.1203540088
H   H8        1.0  0.64520  0.17820  0.18690  1.0000 0.1203540088
H   H9        1.0  0.04200  0.05900  0.88690  1.0000 0.1203540088
H   H10       1.0  0.95800  0.94100  0.11310  1.0000 0.1203540088
H   H11       1.0  0.87900  0.92190  0.70740  1.0000 0.1203540088
H   H12       1.0  0.12100  0.07810  0.29260  1.0000 0.1203540088
H   H13       1.0  0.14600  0.82040  0.71590  1.0000 0.1295155778
H   H14       1.0  0.85400  0.17960  0.28410  1.0000 0.1295155778
H   H15       1.0  0.32440  0.63300  0.32630  1.0000 0.1203540088
H   H16       1.0  0.67560  0.36700  0.67370  1.0000 0.1203540088
H   H17       1.0  0.34990  0.54180  0.50190  1.0000 0.1295155778
H   H18       1.0  0.65010  0.45820  0.49810  1.0000 0.1295155778
H   H19       1.0  0.44930  0.89730  0.48460  1.0000 0.1295155778
H   H20       1.0  0.55070  0.10270  0.51540  1.0000 0.1295155778
H   H21       1.0  0.40130  0.98310  0.31460  1.0000 0.1104633288
H   H22       1.0  0.59870  0.01690  0.68540  1.0000 0.1104633288
H   H23       1.0  0.30820  0.45610  0.85890  1.0000 0.1295155778
H   H24       1.0  0.69180  0.54390  0.14110  1.0000 0.1295155778
H   H25       1.0  0.26870  0.53050  0.68570  1.0000 0.1295155778
H   H26       1.0  0.73130  0.46950  0.31430  1.0000 0.1295155778
H   H27       1.0  0.62250  0.74850  0.60720  1.0000 0.1295155778
H   H28       1.0  0.37750  0.25150  0.39280  1.0000 0.1295155778
H   H29       1.0  0.66010  0.66320  0.78030  1.0000 0.1295155778
H   H30       1.0  0.33990  0.33680  0.21970  1.0000 0.1295155778
C   C1        1.0  0.32400  0.85710  0.95310  1.0000 -0.2550199552
C   C2        1.0  0.67600  0.14290  0.04690  1.0000 -0.2550199552
C   C3        1.0  0.30610  0.89550  0.83710  1.0000 -0.1712319849
C   C4        1.0  0.69390  0.10450  0.16290  1.0000 -0.1712319849
C   C5        1.0  0.03350  0.01230  0.84360  1.0000 0.0972811097
C   C6        1.0  0.96650  0.98770  0.15640  1.0000 0.0972811097
C   C7        1.0  0.94510  0.93690  0.74500  1.0000 -0.0200998632
C   C8        1.0  0.05490  0.06310  0.25500  1.0000 -0.0200998632
C   C9        1.0  0.09310  0.87990  0.74930  1.0000 -0.1194457224
C   C10       1.0  0.90690  0.12010  0.25070  1.0000 -0.1194457224
C   C11       1.0  0.34780  0.68770  0.35870  1.0000 0.1104633288
C   C12       1.0  0.65220  0.31230  0.64130  1.0000 0.1104633288
C   C13       1.0  0.36700  0.63050  0.46460  1.0000 -0.2135056896
C   C14       1.0  0.63300  0.36950  0.53540  1.0000 -0.2135056896
C   C15       1.0  0.41150  0.70680  0.51350  1.0000 0.1104633288
C   C16       1.0  0.58850  0.29320  0.48650  1.0000 0.1104633288
C   C17       1.0  0.42300  0.84120  0.45450  1.0000 -0.2135056896
C   C18       1.0  0.57700  0.15880  0.54550  1.0000 -0.2135056896
C   C19       1.0  0.39570  0.89230  0.35150  1.0000 0.061120175
C   C20       1.0  0.60430  0.10770  0.64850  1.0000 0.061120175
C   C21       1.0  0.37180  0.51560  0.80790  1.0000 0.1203540088
C   C22       1.0  0.62820  0.48440  0.19210  1.0000 0.1203540088
C   C23       1.0  0.34730  0.56060  0.70340  1.0000 -0.2181829913
C   C24       1.0  0.65270  0.43940  0.29660  1.0000 -0.2181829913
C   C25       1.0  0.44020  0.65060  0.62540  1.0000 0.0934542345
C   C26       1.0  0.55980  0.34940  0.37460  1.0000 0.0934542345
C   C27       1.0  0.55750  0.68890  0.65670  1.0000 -0.2135056896
C   C28       1.0  0.44250  0.31110  0.34330  1.0000 -0.2181829913
C   C29       1.0  0.57840  0.63860  0.76160  1.0000 0.0972811097
C   C30       1.0  0.42160  0.36140  0.23840  1.0000 0.0972811097
N   N1        1.0  0.90770  0.02000  0.80440  1.0000 -0.2726026697
N   N2        1.0  0.09230  0.98000  0.19560  1.0000 -0.2726026697
N   N3        1.0  0.14800  0.92830  0.81300  1.0000 0.0444012658
N   N4        1.0  0.85200  0.07170  0.18700  1.0000 0.0444012658
N   N5        1.0  0.36090  0.81470  0.30220  1.0000 -0.2006405665
N   N6        1.0  0.63910  0.18530  0.69780  1.0000 -0.2006405665
N   N7        1.0  0.48440  0.55530  0.83760  1.0000 -0.2181829913
N   N8        1.0  0.51560  0.44470  0.16240  1.0000 -0.2181829913
O   O1        1.0  0.26660  0.97210  0.98890  1.0000 -0.45288942
O   O2        1.0  0.73340  0.02790  0.01110  1.0000 -0.45288942
O   O3        1.0  0.58920  0.67670  0.96820  1.0000 -0.7702357991
O   O4        1.0  0.41080  0.32330  0.03180  1.0000 -0.7702357991
O   O5        1.0  0.53240  0.84030  0.07250  1.0000 -0.7373269721
O   O6        1.0  0.46760  0.15970  0.92750  1.0000 -0.7373269721
O   O7        1.0  0.61310  0.92310  0.87240  1.0000 -0.7557603343
O   O8        1.0  0.38690  0.07690  0.12760  1.0000 -0.7520983639
O   O9        1.0  0.03870  0.75120  0.04020  1.0000 -0.6130915208
O   O10       1.0  0.96130  0.24880  0.95980  1.0000 -0.6130915208
O   O11       1.0  0.27590  0.59090  0.02370  1.0000 -0.7520983639
O   O12       1.0  0.72410  0.40910  0.97630  1.0000 -0.7520983639
O   O13       1.0  0.23420  0.72310  0.15480  1.0000 -0.7338471038
O   O14       1.0  0.76580  0.27690  0.84520  1.0000 -0.7338471038
