# DDEC6 charges by PACMAN v1.1 (https://github.com/mtap-research/PACMAN-charge/)
data_2015[Zn][acs]3[FSR]2
_chemical_formula_sum              "Zn2 H6 C6 O12"
_cell_length_a       7.309
_cell_length_b       7.309
_cell_length_c       8.1701
_cell_angle_alpha    90
_cell_angle_beta     90
_cell_angle_gamma    120

_symmetry_space_group_name_H-M    "P 1"
_symmetry_Int_Tables_number       1

loop_
  _symmetry_equiv_pos_as_xyz
  'x, y, z'

loop_
  _atom_site_type_symbol
  _atom_site_label
  _atom_site_symmetry_multiplicity
  _atom_site_fract_x
  _atom_site_fract_y
  _atom_site_fract_z
  _atom_site_occupancy
  _atom_site_charge
Zn  Zn1       1.0  0.33333  0.66667  0.25000  1.0000 0.9474776502
Zn  Zn2       1.0  0.66667  0.33333  0.75000  1.0000 0.9474776502
H   H1        1.0  0.00000  0.43460  0.00000  1.0000 0.112815332
H   H2        1.0  0.56540  0.00000  0.50000  1.0000 0.112815332
H   H3        1.0  0.56540  0.56540  0.00000  1.0000 0.112815332
H   H4        1.0  0.00000  0.56540  0.50000  1.0000 0.112815332
H   H5        1.0  0.43460  0.00000  0.00000  1.0000 0.112815332
H   H6        1.0  0.43460  0.43460  0.50000  1.0000 0.112815332
C   C1        1.0  0.00000  0.56220  0.00000  1.0000 0.4947518225
C   C2        1.0  0.43780  0.00000  0.50000  1.0000 0.4947518225
C   C3        1.0  0.43780  0.43780  0.00000  1.0000 0.4947518225
C   C4        1.0  0.00000  0.43780  0.50000  1.0000 0.4947518225
C   C5        1.0  0.56220  0.00000  0.00000  1.0000 0.4947518225
C   C6        1.0  0.56220  0.56220  0.50000  1.0000 0.4947518225
O   O1        1.0  0.11034  0.69483  0.10519  1.0000 -0.4616965189
O   O2        1.0  0.41551  0.11034  0.60519  1.0000 -0.4616965189
O   O3        1.0  0.30517  0.41551  0.10519  1.0000 -0.4616965189
O   O4        1.0  0.88966  0.30517  0.60519  1.0000 -0.4616965189
O   O5        1.0  0.58449  0.88966  0.10519  1.0000 -0.4616965189
O   O6        1.0  0.69483  0.58449  0.60519  1.0000 -0.4616965189
O   O7        1.0  0.41551  0.30517  0.89481  1.0000 -0.4616965189
O   O8        1.0  0.88966  0.58449  0.89481  1.0000 -0.4616965189
O   O9        1.0  0.69483  0.11034  0.89481  1.0000 -0.4616965189
O   O10       1.0  0.30517  0.88966  0.39481  1.0000 -0.4616965189
O   O11       1.0  0.58449  0.69483  0.39481  1.0000 -0.4616965189
O   O12       1.0  0.11034  0.41551  0.39481  1.0000 -0.4616965189
