# DDEC6 charges by PACMAN v1.1 (https://github.com/mtap-research/PACMAN-charge/)
data_2015[Zn][nan]3[FSR]31
_chemical_formula_sum              "Zn16 H128 C192 N64 O40"
_cell_length_a       9.962
_cell_length_b       18.58
_cell_length_c       32.732
_cell_angle_alpha    90
_cell_angle_beta     90
_cell_angle_gamma    90

_symmetry_space_group_name_H-M    "P 1"
_symmetry_Int_Tables_number       1

loop_
  _symmetry_equiv_pos_as_xyz
  'x, y, z'

loop_
  _atom_site_type_symbol
  _atom_site_label
  _atom_site_symmetry_multiplicity
  _atom_site_fract_x
  _atom_site_fract_y
  _atom_site_fract_z
  _atom_site_occupancy
  _atom_site_charge
Zn  Zn1       1.0  0.72539  0.91930  0.05860  1.0000 0.719608
Zn  Zn2       1.0  0.27461  0.58070  0.55860  1.0000 0.719608
Zn  Zn3       1.0  0.77461  0.41930  0.94140  1.0000 0.719608
Zn  Zn4       1.0  0.22539  0.08070  0.44140  1.0000 0.719608
Zn  Zn5       1.0  0.27461  0.08070  0.94140  1.0000 0.719608
Zn  Zn6       1.0  0.72539  0.41930  0.44140  1.0000 0.719608
Zn  Zn7       1.0  0.22539  0.58070  0.05860  1.0000 0.719608
Zn  Zn8       1.0  0.77461  0.91930  0.55860  1.0000 0.719608
Zn  Zn9       1.0  0.97172  0.93570  0.21891  1.0000 0.6836247355
Zn  Zn10      1.0  0.02828  0.56430  0.71891  1.0000 0.6836247355
Zn  Zn11      1.0  0.52828  0.43570  0.78109  1.0000 0.6836247355
Zn  Zn12      1.0  0.47172  0.06430  0.28109  1.0000 0.6836247355
Zn  Zn13      1.0  0.02828  0.06430  0.78109  1.0000 0.6836247355
Zn  Zn14      1.0  0.97172  0.43570  0.28109  1.0000 0.6836247355
Zn  Zn15      1.0  0.47172  0.56430  0.21891  1.0000 0.6836247355
Zn  Zn16      1.0  0.52828  0.93570  0.71891  1.0000 0.6836247355
H   H1        1.0  0.65470  0.04890  0.06960  1.0000 0.3689660341
H   H2        1.0  0.34530  0.45110  0.56960  1.0000 0.3689660341
H   H3        1.0  0.84530  0.54890  0.93040  1.0000 0.3689660341
H   H4        1.0  0.15470  0.95110  0.43040  1.0000 0.3689660341
H   H5        1.0  0.34530  0.95110  0.93040  1.0000 0.3689660341
H   H6        1.0  0.65470  0.54890  0.43040  1.0000 0.3689660341
H   H7        1.0  0.15470  0.45110  0.06960  1.0000 0.3689660341
H   H8        1.0  0.84530  0.04890  0.56960  1.0000 0.3689660341
H   H9        1.0  0.54690  0.01470  0.04940  1.0000 0.3803768218
H   H10       1.0  0.45310  0.48530  0.54940  1.0000 0.3803768218
H   H11       1.0  0.95310  0.51470  0.95060  1.0000 0.3803768218
H   H12       1.0  0.04690  0.98530  0.45060  1.0000 0.3803768218
H   H13       1.0  0.45310  0.98530  0.95060  1.0000 0.3803768218
H   H14       1.0  0.54690  0.51470  0.45060  1.0000 0.3803768218
H   H15       1.0  0.04690  0.48530  0.04940  1.0000 0.3803768218
H   H16       1.0  0.95310  0.01470  0.54940  1.0000 0.3803768218
H   H17       1.0  0.91930  0.82750  0.99930  1.0000 0.1114202112
H   H18       1.0  0.08070  0.67250  0.49930  1.0000 0.1114202112
H   H19       1.0  0.58070  0.32750  0.00070  1.0000 0.1114202112
H   H20       1.0  0.41930  0.17250  0.50070  1.0000 0.1114202112
H   H21       1.0  0.08070  0.17250  0.00070  1.0000 0.1114202112
H   H22       1.0  0.91930  0.32750  0.50070  1.0000 0.1114202112
H   H23       1.0  0.41930  0.67250  0.99930  1.0000 0.1114202112
H   H24       1.0  0.58070  0.82750  0.49930  1.0000 0.1114202112
H   H25       1.0  0.96430  0.70930  0.98400  1.0000 0.1374697447
H   H26       1.0  0.03570  0.79070  0.48400  1.0000 0.1374697447
H   H27       1.0  0.53570  0.20930  0.01600  1.0000 0.1374697447
H   H28       1.0  0.46430  0.29070  0.51600  1.0000 0.1374697447
H   H29       1.0  0.03570  0.29070  0.01600  1.0000 0.1374697447
H   H30       1.0  0.96430  0.20930  0.51600  1.0000 0.1374697447
H   H31       1.0  0.46430  0.79070  0.98400  1.0000 0.1374697447
H   H32       1.0  0.53570  0.70930  0.48400  1.0000 0.1374697447
H   H33       1.0  0.84460  0.62000  0.01600  1.0000 0.120904569
H   H34       1.0  0.15540  0.88000  0.51600  1.0000 0.120904569
H   H35       1.0  0.65540  0.12000  0.98400  1.0000 0.120904569
H   H36       1.0  0.34460  0.38000  0.48400  1.0000 0.120904569
H   H37       1.0  0.15540  0.38000  0.98400  1.0000 0.120904569
H   H38       1.0  0.84460  0.12000  0.48400  1.0000 0.120904569
H   H39       1.0  0.34460  0.88000  0.01600  1.0000 0.120904569
H   H40       1.0  0.65540  0.62000  0.51600  1.0000 0.120904569
H   H41       1.0  0.68470  0.65070  0.06340  1.0000 0.1293296626
H   H42       1.0  0.31530  0.84930  0.56340  1.0000 0.1293296626
H   H43       1.0  0.81530  0.15070  0.93660  1.0000 0.1293296626
H   H44       1.0  0.18470  0.34930  0.43660  1.0000 0.1293296626
H   H45       1.0  0.31530  0.34930  0.93660  1.0000 0.1293296626
H   H46       1.0  0.68470  0.15070  0.43660  1.0000 0.1293296626
H   H47       1.0  0.18470  0.84930  0.06340  1.0000 0.1293296626
H   H48       1.0  0.81530  0.65070  0.56340  1.0000 0.1293296626
H   H49       1.0  0.54180  0.68740  0.10930  1.0000 0.1293296626
H   H50       1.0  0.45820  0.81260  0.60930  1.0000 0.1293296626
H   H51       1.0  0.95820  0.18740  0.89070  1.0000 0.1293296626
H   H52       1.0  0.04180  0.31260  0.39070  1.0000 0.1293296626
H   H53       1.0  0.45820  0.31260  0.89070  1.0000 0.1293296626
H   H54       1.0  0.54180  0.18740  0.39070  1.0000 0.1293296626
H   H55       1.0  0.04180  0.81260  0.10930  1.0000 0.1293296626
H   H56       1.0  0.95820  0.68740  0.60930  1.0000 0.1293296626
H   H57       1.0  0.38640  0.73400  0.15360  1.0000 0.120904569
H   H58       1.0  0.61360  0.76600  0.65360  1.0000 0.120904569
H   H59       1.0  0.11360  0.23400  0.84640  1.0000 0.120904569
H   H60       1.0  0.88640  0.26600  0.34640  1.0000 0.120904569
H   H61       1.0  0.61360  0.26600  0.84640  1.0000 0.120904569
H   H62       1.0  0.38640  0.23400  0.34640  1.0000 0.120904569
H   H63       1.0  0.88640  0.76600  0.15360  1.0000 0.120904569
H   H64       1.0  0.11360  0.73400  0.65360  1.0000 0.120904569
H   H65       1.0  0.36860  0.85610  0.16160  1.0000 0.1485530495
H   H66       1.0  0.63140  0.64390  0.66160  1.0000 0.1485530495
H   H67       1.0  0.13140  0.35610  0.83840  1.0000 0.1485530495
H   H68       1.0  0.86860  0.14390  0.33840  1.0000 0.1485530495
H   H69       1.0  0.63140  0.14390  0.83840  1.0000 0.1485530495
H   H70       1.0  0.36860  0.35610  0.33840  1.0000 0.1485530495
H   H71       1.0  0.86860  0.64390  0.16160  1.0000 0.1485530495
H   H72       1.0  0.13140  0.85610  0.66160  1.0000 0.1485530495
H   H73       1.0  0.50270  0.93020  0.12240  1.0000 0.1114202112
H   H74       1.0  0.49730  0.56980  0.62240  1.0000 0.1114202112
H   H75       1.0  0.99730  0.43020  0.87760  1.0000 0.1114202112
H   H76       1.0  0.00270  0.06980  0.37760  1.0000 0.1114202112
H   H77       1.0  0.49730  0.06980  0.87760  1.0000 0.1114202112
H   H78       1.0  0.50270  0.43020  0.37760  1.0000 0.1114202112
H   H79       1.0  0.00270  0.56980  0.12240  1.0000 0.1114202112
H   H80       1.0  0.99730  0.93020  0.62240  1.0000 0.1114202112
H   H81       1.0  0.02570  0.99150  0.03260  1.0000 0.1374697447
H   H82       1.0  0.97430  0.50850  0.53260  1.0000 0.1374697447
H   H83       1.0  0.47430  0.49150  0.96740  1.0000 0.1374697447
H   H84       1.0  0.52570  0.00850  0.46740  1.0000 0.1374697447
H   H85       1.0  0.97430  0.00850  0.96740  1.0000 0.1374697447
H   H86       1.0  0.02570  0.49150  0.46740  1.0000 0.1374697447
H   H87       1.0  0.52570  0.50850  0.03260  1.0000 0.1374697447
H   H88       1.0  0.47430  0.99150  0.53260  1.0000 0.1374697447
H   H89       1.0  0.34390  0.03740  0.10330  1.0000 0.1114202112
H   H90       1.0  0.65610  0.46260  0.60330  1.0000 0.1114202112
H   H91       1.0  0.15610  0.53740  0.89670  1.0000 0.1114202112
H   H92       1.0  0.84390  0.96260  0.39670  1.0000 0.1114202112
H   H93       1.0  0.65610  0.96260  0.89670  1.0000 0.1114202112
H   H94       1.0  0.34390  0.53740  0.39670  1.0000 0.1114202112
H   H95       1.0  0.84390  0.46260  0.10330  1.0000 0.1114202112
H   H96       1.0  0.15610  0.03740  0.60330  1.0000 0.1114202112
H   H97       1.0  0.23300  0.00040  0.16130  1.0000 0.1374697447
H   H98       1.0  0.76700  0.49960  0.66130  1.0000 0.1374697447
H   H99       1.0  0.26700  0.50040  0.83870  1.0000 0.1374697447
H   H100      1.0  0.73300  0.99960  0.33870  1.0000 0.1374697447
H   H101      1.0  0.76700  0.99960  0.83870  1.0000 0.1374697447
H   H102      1.0  0.23300  0.50040  0.33870  1.0000 0.1374697447
H   H103      1.0  0.73300  0.49960  0.16130  1.0000 0.1374697447
H   H104      1.0  0.26700  0.00040  0.66130  1.0000 0.1374697447
H   H105      1.0  0.89890  0.72660  0.25800  1.0000 0.120904569
H   H106      1.0  0.10110  0.77340  0.75800  1.0000 0.120904569
H   H107      1.0  0.60110  0.22660  0.74200  1.0000 0.120904569
H   H108      1.0  0.39890  0.27340  0.24200  1.0000 0.120904569
H   H109      1.0  0.10110  0.27340  0.74200  1.0000 0.120904569
H   H110      1.0  0.89890  0.22660  0.24200  1.0000 0.120904569
H   H111      1.0  0.39890  0.77340  0.25800  1.0000 0.120904569
H   H112      1.0  0.60110  0.72660  0.75800  1.0000 0.120904569
H   H113      1.0  0.87830  0.60500  0.27100  1.0000 0.1293296626
H   H114      1.0  0.12170  0.89500  0.77100  1.0000 0.1293296626
H   H115      1.0  0.62170  0.10500  0.72900  1.0000 0.1293296626
H   H116      1.0  0.37830  0.39500  0.22900  1.0000 0.1293296626
H   H117      1.0  0.12170  0.39500  0.72900  1.0000 0.1293296626
H   H118      1.0  0.87830  0.10500  0.22900  1.0000 0.1293296626
H   H119      1.0  0.37830  0.89500  0.27100  1.0000 0.1293296626
H   H120      1.0  0.62170  0.60500  0.77100  1.0000 0.1293296626
H   H121      1.0  0.27270  0.70170  0.21440  1.0000 0.120904569
H   H122      1.0  0.72730  0.79830  0.71440  1.0000 0.120904569
H   H123      1.0  0.22730  0.20170  0.78560  1.0000 0.120904569
H   H124      1.0  0.77270  0.29830  0.28560  1.0000 0.120904569
H   H125      1.0  0.72730  0.29830  0.78560  1.0000 0.120904569
H   H126      1.0  0.27270  0.20170  0.28560  1.0000 0.120904569
H   H127      1.0  0.77270  0.79830  0.21440  1.0000 0.120904569
H   H128      1.0  0.22730  0.70170  0.71440  1.0000 0.120904569
C   C1        1.0  0.87110  0.79140  0.01243  1.0000 0.0693993554
C   C2        1.0  0.12890  0.70860  0.51243  1.0000 0.0693993554
C   C3        1.0  0.62890  0.29140  0.98757  1.0000 0.0693993554
C   C4        1.0  0.37110  0.20860  0.48757  1.0000 0.0693993554
C   C5        1.0  0.12890  0.20860  0.98757  1.0000 0.0693993554
C   C6        1.0  0.87110  0.29140  0.48757  1.0000 0.0693993554
C   C7        1.0  0.37110  0.70860  0.01243  1.0000 0.0693993554
C   C8        1.0  0.62890  0.79140  0.51243  1.0000 0.0693993554
C   C9        1.0  0.89850  0.72070  0.00306  1.0000 -0.1407860458
C   C10       1.0  0.10150  0.77930  0.50306  1.0000 -0.1407860458
C   C11       1.0  0.60150  0.22070  0.99694  1.0000 -0.1407860458
C   C12       1.0  0.39850  0.27930  0.49694  1.0000 -0.1407860458
C   C13       1.0  0.10150  0.27930  0.99694  1.0000 -0.1407860458
C   C14       1.0  0.89850  0.22070  0.49694  1.0000 -0.1407860458
C   C15       1.0  0.39850  0.77930  0.00306  1.0000 -0.1407860458
C   C16       1.0  0.60150  0.72070  0.50306  1.0000 -0.1407860458
C   C17       1.0  0.82820  0.66820  0.02205  1.0000 -0.0297740216
C   C18       1.0  0.17180  0.83180  0.52205  1.0000 -0.0297740216
C   C19       1.0  0.67180  0.16820  0.97795  1.0000 -0.0297740216
C   C20       1.0  0.32820  0.33180  0.47795  1.0000 -0.0297740216
C   C21       1.0  0.17180  0.33180  0.97795  1.0000 -0.0297740216
C   C22       1.0  0.82820  0.16820  0.47795  1.0000 -0.0297740216
C   C23       1.0  0.32820  0.83180  0.02205  1.0000 -0.0297740216
C   C24       1.0  0.67180  0.66820  0.52205  1.0000 -0.0297740216
C   C25       1.0  0.73330  0.68640  0.05004  1.0000 -0.1793573333
C   C26       1.0  0.26670  0.81360  0.55004  1.0000 -0.1793573333
C   C27       1.0  0.76670  0.18640  0.94996  1.0000 -0.1793573333
C   C28       1.0  0.23330  0.31360  0.44996  1.0000 -0.1793573333
C   C29       1.0  0.26670  0.31360  0.94996  1.0000 -0.1793573333
C   C30       1.0  0.73330  0.18640  0.44996  1.0000 -0.1793573333
C   C31       1.0  0.23330  0.81360  0.05004  1.0000 -0.1793573333
C   C32       1.0  0.76670  0.68640  0.55004  1.0000 -0.1793573333
C   C33       1.0  0.70900  0.75788  0.05865  1.0000 0.1661034584
C   C34       1.0  0.29100  0.74212  0.55865  1.0000 0.1661034584
C   C35       1.0  0.79100  0.25788  0.94135  1.0000 0.1661034584
C   C36       1.0  0.20900  0.24212  0.44135  1.0000 0.1661034584
C   C37       1.0  0.29100  0.24212  0.94135  1.0000 0.1661034584
C   C38       1.0  0.70900  0.25788  0.44135  1.0000 0.1661034584
C   C39       1.0  0.20900  0.74212  0.05865  1.0000 0.1661034584
C   C40       1.0  0.79100  0.75788  0.55865  1.0000 0.1661034584
C   C41       1.0  0.60870  0.78340  0.08866  1.0000 0.1621659458
C   C42       1.0  0.39130  0.71660  0.58866  1.0000 0.1621659458
C   C43       1.0  0.89130  0.28340  0.91134  1.0000 0.1621659458
C   C44       1.0  0.10870  0.21660  0.41134  1.0000 0.1621659458
C   C45       1.0  0.39130  0.21660  0.91134  1.0000 0.1621659458
C   C46       1.0  0.60870  0.28340  0.41134  1.0000 0.1621659458
C   C47       1.0  0.10870  0.71660  0.08866  1.0000 0.1621659458
C   C48       1.0  0.89130  0.78340  0.58866  1.0000 0.1621659458
C   C49       1.0  0.53160  0.73700  0.11187  1.0000 -0.1526094243
C   C50       1.0  0.46840  0.76300  0.61187  1.0000 -0.1526094243
C   C51       1.0  0.96840  0.23700  0.88813  1.0000 -0.1526094243
C   C52       1.0  0.03160  0.26300  0.38813  1.0000 -0.1526094243
C   C53       1.0  0.46840  0.26300  0.88813  1.0000 -0.1526094243
C   C54       1.0  0.53160  0.23700  0.38813  1.0000 -0.1526094243
C   C55       1.0  0.03160  0.76300  0.11187  1.0000 -0.1526094243
C   C56       1.0  0.96840  0.73700  0.61187  1.0000 -0.1526094243
C   C57       1.0  0.44080  0.76470  0.13847  1.0000 -0.0160188587
C   C58       1.0  0.55920  0.73530  0.63847  1.0000 -0.0160188587
C   C59       1.0  0.05920  0.26470  0.86153  1.0000 -0.0160188587
C   C60       1.0  0.94080  0.23530  0.36153  1.0000 -0.0160188587
C   C61       1.0  0.55920  0.23530  0.86153  1.0000 -0.0160188587
C   C62       1.0  0.44080  0.26470  0.36153  1.0000 -0.0160188587
C   C63       1.0  0.94080  0.73530  0.13847  1.0000 -0.0160188587
C   C64       1.0  0.05920  0.76470  0.63847  1.0000 -0.0160188587
C   C65       1.0  0.42920  0.83660  0.14301  1.0000 -0.1202024199
C   C66       1.0  0.57080  0.66340  0.64301  1.0000 -0.1202024199
C   C67       1.0  0.07080  0.33660  0.85699  1.0000 -0.1202024199
C   C68       1.0  0.92920  0.16340  0.35699  1.0000 -0.1202024199
C   C69       1.0  0.57080  0.16340  0.85699  1.0000 -0.1202024199
C   C70       1.0  0.42920  0.33660  0.35699  1.0000 -0.1202024199
C   C71       1.0  0.92920  0.66340  0.14301  1.0000 -0.1202024199
C   C72       1.0  0.07080  0.83660  0.64301  1.0000 -0.1202024199
C   C73       1.0  0.50990  0.88060  0.11933  1.0000 0.0881881327
C   C74       1.0  0.49010  0.61940  0.61933  1.0000 0.0881881327
C   C75       1.0  0.99010  0.38060  0.88067  1.0000 0.0881881327
C   C76       1.0  0.00990  0.11940  0.38067  1.0000 0.0881881327
C   C77       1.0  0.49010  0.11940  0.88067  1.0000 0.0881881327
C   C78       1.0  0.50990  0.38060  0.38067  1.0000 0.0881881327
C   C79       1.0  0.00990  0.61940  0.11933  1.0000 0.0881881327
C   C80       1.0  0.99010  0.88060  0.61933  1.0000 0.0881881327
C   C81       1.0  0.00010  0.97051  0.09312  1.0000 0.1000963509
C   C82       1.0  0.99990  0.52949  0.59312  1.0000 0.1000963509
C   C83       1.0  0.49990  0.47051  0.90688  1.0000 0.1000963509
C   C84       1.0  0.50010  0.02949  0.40688  1.0000 0.1000963509
C   C85       1.0  0.99990  0.02949  0.90688  1.0000 0.1000963509
C   C86       1.0  0.00010  0.47051  0.40688  1.0000 0.1000963509
C   C87       1.0  0.50010  0.52949  0.09312  1.0000 0.1000963509
C   C88       1.0  0.49990  0.97051  0.59312  1.0000 0.1000963509
C   C89       1.0  0.06680  0.99320  0.05807  1.0000 -0.1857564241
C   C90       1.0  0.93320  0.50680  0.55807  1.0000 -0.1793573333
C   C91       1.0  0.43320  0.49320  0.94193  1.0000 -0.1793573333
C   C92       1.0  0.56680  0.00680  0.44193  1.0000 -0.1793573333
C   C93       1.0  0.93320  0.00680  0.94193  1.0000 -0.1793573333
C   C94       1.0  0.06680  0.49320  0.44193  1.0000 -0.1793573333
C   C95       1.0  0.56680  0.50680  0.05807  1.0000 -0.1793573333
C   C96       1.0  0.43320  0.99320  0.55807  1.0000 -0.1857564241
C   C97       1.0  0.19530  0.01813  0.06252  1.0000 -0.0297740216
C   C98       1.0  0.80470  0.48187  0.56252  1.0000 -0.0297740216
C   C99       1.0  0.30470  0.51813  0.93748  1.0000 -0.0297740216
C   C100      1.0  0.69530  0.98187  0.43748  1.0000 -0.0297740216
C   C101      1.0  0.80470  0.98187  0.93748  1.0000 -0.0297740216
C   C102      1.0  0.19530  0.51813  0.43748  1.0000 -0.0297740216
C   C103      1.0  0.69530  0.48187  0.06252  1.0000 -0.0297740216
C   C104      1.0  0.30470  0.01813  0.56252  1.0000 -0.0297740216
C   C105      1.0  0.26980  0.04309  0.02500  1.0000 0.5478971064
C   C106      1.0  0.73020  0.45691  0.52500  1.0000 0.5478971064
C   C107      1.0  0.23020  0.54309  0.97500  1.0000 0.5478971064
C   C108      1.0  0.76980  0.95691  0.47500  1.0000 0.5478971064
C   C109      1.0  0.73020  0.95691  0.97500  1.0000 0.5478971064
C   C110      1.0  0.26980  0.54309  0.47500  1.0000 0.5478971064
C   C111      1.0  0.76980  0.45691  0.02500  1.0000 0.5478971064
C   C112      1.0  0.23020  0.04309  0.52500  1.0000 0.5478971064
C   C113      1.0  0.25640  0.02043  0.10121  1.0000 -0.1202024199
C   C114      1.0  0.74360  0.47957  0.60121  1.0000 -0.1202024199
C   C115      1.0  0.24360  0.52043  0.89879  1.0000 -0.1202024199
C   C116      1.0  0.75640  0.97957  0.39879  1.0000 -0.1202024199
C   C117      1.0  0.74360  0.97957  0.89879  1.0000 -0.1202024199
C   C118      1.0  0.25640  0.52043  0.39879  1.0000 -0.1202024199
C   C119      1.0  0.75640  0.47957  0.10121  1.0000 -0.1202024199
C   C120      1.0  0.24360  0.02043  0.60121  1.0000 -0.1202024199
C   C121      1.0  0.19170  0.99853  0.13587  1.0000 -0.1564181406
C   C122      1.0  0.80830  0.50147  0.63587  1.0000 -0.1564181406
C   C123      1.0  0.30830  0.49853  0.86413  1.0000 -0.1564181406
C   C124      1.0  0.69170  0.00147  0.36413  1.0000 -0.1564181406
C   C125      1.0  0.80830  0.00147  0.86413  1.0000 -0.1564181406
C   C126      1.0  0.19170  0.49853  0.36413  1.0000 -0.1564181406
C   C127      1.0  0.69170  0.50147  0.13587  1.0000 -0.1564181406
C   C128      1.0  0.30830  0.99853  0.63587  1.0000 -0.1564181406
C   C129      1.0  0.06020  0.97317  0.13121  1.0000 0.120904569
C   C130      1.0  0.93980  0.52683  0.63121  1.0000 0.120904569
C   C131      1.0  0.43980  0.47317  0.86879  1.0000 0.120904569
C   C132      1.0  0.56020  0.02683  0.36879  1.0000 0.120904569
C   C133      1.0  0.93980  0.02683  0.86879  1.0000 0.120904569
C   C134      1.0  0.06020  0.47317  0.36879  1.0000 0.120904569
C   C135      1.0  0.56020  0.52683  0.13121  1.0000 0.120904569
C   C136      1.0  0.43980  0.97317  0.63121  1.0000 0.120904569
C   C137      1.0  0.09130  0.80370  0.22382  1.0000 0.5478971064
C   C138      1.0  0.90870  0.69630  0.72382  1.0000 0.5478971064
C   C139      1.0  0.40870  0.30370  0.77618  1.0000 0.5478971064
C   C140      1.0  0.59130  0.19630  0.27618  1.0000 0.5478971064
C   C141      1.0  0.90870  0.19630  0.77618  1.0000 0.5478971064
C   C142      1.0  0.09130  0.30370  0.27618  1.0000 0.5478971064
C   C143      1.0  0.59130  0.69630  0.22382  1.0000 0.5478971064
C   C144      1.0  0.40870  0.80370  0.72382  1.0000 0.5478971064
C   C145      1.0  0.08800  0.72480  0.23485  1.0000 -0.0297740216
C   C146      1.0  0.91200  0.77520  0.73485  1.0000 -0.0297740216
C   C147      1.0  0.41200  0.22480  0.76515  1.0000 -0.0297740216
C   C148      1.0  0.58800  0.27520  0.26515  1.0000 -0.0297740216
C   C149      1.0  0.91200  0.27520  0.76515  1.0000 -0.0297740216
C   C150      1.0  0.08800  0.22480  0.26515  1.0000 -0.0297740216
C   C151      1.0  0.58800  0.77520  0.23485  1.0000 -0.0297740216
C   C152      1.0  0.41200  0.72480  0.73485  1.0000 -0.0297740216
C   C153      1.0  0.97010  0.69595  0.25218  1.0000 -0.0961229294
C   C154      1.0  0.02990  0.80405  0.75218  1.0000 -0.0961229294
C   C155      1.0  0.52990  0.19595  0.74782  1.0000 -0.0961229294
C   C156      1.0  0.47010  0.30405  0.24782  1.0000 -0.0961229294
C   C157      1.0  0.02990  0.30405  0.74782  1.0000 -0.0961229294
C   C158      1.0  0.97010  0.19595  0.24782  1.0000 -0.0961229294
C   C159      1.0  0.47010  0.80405  0.25218  1.0000 -0.0961229294
C   C160      1.0  0.52990  0.69595  0.75218  1.0000 -0.0961229294
C   C161      1.0  0.95750  0.62428  0.26062  1.0000 -0.1564181406
C   C162      1.0  0.04250  0.87572  0.76062  1.0000 -0.1564181406
C   C163      1.0  0.54250  0.12428  0.73938  1.0000 -0.1564181406
C   C164      1.0  0.45750  0.37572  0.23938  1.0000 -0.1564181406
C   C165      1.0  0.04250  0.37572  0.73938  1.0000 -0.1564181406
C   C166      1.0  0.95750  0.12428  0.23938  1.0000 -0.1564181406
C   C167      1.0  0.45750  0.87572  0.26062  1.0000 -0.1564181406
C   C168      1.0  0.54250  0.62428  0.76062  1.0000 -0.1564181406
C   C169      1.0  0.06970  0.58150  0.25292  1.0000 0.1114202112
C   C170      1.0  0.93030  0.91850  0.75292  1.0000 0.1114202112
C   C171      1.0  0.43030  0.08150  0.74708  1.0000 0.1114202112
C   C172      1.0  0.56970  0.41850  0.24708  1.0000 0.1114202112
C   C173      1.0  0.93030  0.41850  0.74708  1.0000 0.1114202112
C   C174      1.0  0.06970  0.08150  0.24708  1.0000 0.1114202112
C   C175      1.0  0.56970  0.91850  0.25292  1.0000 0.1114202112
C   C176      1.0  0.43030  0.58150  0.75292  1.0000 0.1114202112
C   C177      1.0  0.18740  0.61015  0.23717  1.0000 0.1114202112
C   C178      1.0  0.81260  0.88985  0.73717  1.0000 0.1114202112
C   C179      1.0  0.31260  0.11015  0.76283  1.0000 0.1114202112
C   C180      1.0  0.68740  0.38985  0.26283  1.0000 0.1114202112
C   C181      1.0  0.81260  0.38985  0.76283  1.0000 0.1114202112
C   C182      1.0  0.18740  0.11015  0.26283  1.0000 0.1114202112
C   C183      1.0  0.68740  0.88985  0.23717  1.0000 0.1114202112
C   C184      1.0  0.31260  0.61015  0.73717  1.0000 0.1114202112
C   C185      1.0  0.19610  0.68284  0.22659  1.0000 -0.1674484924
C   C186      1.0  0.80390  0.81716  0.72659  1.0000 -0.1674484924
C   C187      1.0  0.30390  0.18284  0.77341  1.0000 -0.1674484924
C   C188      1.0  0.69610  0.31716  0.27341  1.0000 -0.1674484924
C   C189      1.0  0.80390  0.31716  0.77341  1.0000 -0.1674484924
C   C190      1.0  0.19610  0.18284  0.27341  1.0000 -0.1674484924
C   C191      1.0  0.69610  0.81716  0.22659  1.0000 -0.1674484924
C   C192      1.0  0.30390  0.68284  0.72659  1.0000 -0.1674484924
N   N1        1.0  0.59700  0.85458  0.09246  1.0000 -0.2572277799
N   N2        1.0  0.40300  0.64542  0.59246  1.0000 -0.2572277799
N   N3        1.0  0.90300  0.35458  0.90754  1.0000 -0.2572277799
N   N4        1.0  0.09700  0.14542  0.40754  1.0000 -0.2572277799
N   N5        1.0  0.40300  0.14542  0.90754  1.0000 -0.2572277799
N   N6        1.0  0.59700  0.35458  0.40754  1.0000 -0.2572277799
N   N7        1.0  0.09700  0.64542  0.09246  1.0000 -0.2572277799
N   N8        1.0  0.90300  0.85458  0.59246  1.0000 -0.2572277799
N   N9        1.0  0.77750  0.80985  0.03979  1.0000 -0.2572277799
N   N10       1.0  0.22250  0.69015  0.53979  1.0000 -0.2572277799
N   N11       1.0  0.72250  0.30985  0.96021  1.0000 -0.2572277799
N   N12       1.0  0.27750  0.19015  0.46021  1.0000 -0.2572277799
N   N13       1.0  0.22250  0.19015  0.96021  1.0000 -0.2572277799
N   N14       1.0  0.77750  0.30985  0.46021  1.0000 -0.2572277799
N   N15       1.0  0.27750  0.69015  0.03979  1.0000 -0.2572277799
N   N16       1.0  0.72250  0.80985  0.53979  1.0000 -0.2572277799
N   N17       1.0  0.87436  0.94240  0.09857  1.0000 -0.2404736519
N   N18       1.0  0.12564  0.55760  0.59857  1.0000 -0.2404736519
N   N19       1.0  0.62564  0.44240  0.90143  1.0000 -0.2404736519
N   N20       1.0  0.37436  0.05760  0.40143  1.0000 -0.2404736519
N   N21       1.0  0.12564  0.05760  0.90143  1.0000 -0.2404736519
N   N22       1.0  0.87436  0.44240  0.40143  1.0000 -0.2404736519
N   N23       1.0  0.37436  0.55760  0.09857  1.0000 -0.2404736519
N   N24       1.0  0.62564  0.94240  0.59857  1.0000 -0.2404736519
N   N25       1.0  0.85841  0.92946  0.13808  1.0000 -0.0655231174
N   N26       1.0  0.14159  0.57054  0.63808  1.0000 -0.0655231174
N   N27       1.0  0.64159  0.42946  0.86192  1.0000 -0.0655231174
N   N28       1.0  0.35841  0.07054  0.36192  1.0000 -0.0655231174
N   N29       1.0  0.14159  0.07054  0.86192  1.0000 -0.0655231174
N   N30       1.0  0.85841  0.42946  0.36192  1.0000 -0.0655231174
N   N31       1.0  0.35841  0.57054  0.13808  1.0000 -0.0655231174
N   N32       1.0  0.64159  0.92946  0.63808  1.0000 -0.0655231174
N   N33       1.0  0.96871  0.94743  0.15851  1.0000 -0.2190277219
N   N34       1.0  0.03129  0.55257  0.65851  1.0000 -0.2190277219
N   N35       1.0  0.53129  0.44743  0.84149  1.0000 -0.2190277219
N   N36       1.0  0.46871  0.05257  0.34149  1.0000 -0.2190277219
N   N37       1.0  0.03129  0.05257  0.84149  1.0000 -0.2190277219
N   N38       1.0  0.96871  0.44743  0.34149  1.0000 -0.2190277219
N   N39       1.0  0.46871  0.55257  0.15851  1.0000 -0.2190277219
N   N40       1.0  0.53129  0.94743  0.65851  1.0000 -0.2190277219
N   N41       1.0  0.27662  0.55466  0.23467  1.0000 -0.2107119798
N   N42       1.0  0.72338  0.94534  0.73467  1.0000 -0.2107119798
N   N43       1.0  0.22338  0.05466  0.76533  1.0000 -0.2107119798
N   N44       1.0  0.77662  0.44534  0.26533  1.0000 -0.2107119798
N   N45       1.0  0.72338  0.44534  0.76533  1.0000 -0.2107119798
N   N46       1.0  0.27662  0.05466  0.26533  1.0000 -0.2107119798
N   N47       1.0  0.77662  0.94534  0.23467  1.0000 -0.2107119798
N   N48       1.0  0.22338  0.55466  0.73467  1.0000 -0.2107119798
N   N49       1.0  0.21716  0.49564  0.24718  1.0000 -0.0509663239
N   N50       1.0  0.78284  0.00436  0.74718  1.0000 -0.0509663239
N   N51       1.0  0.28284  0.99564  0.75282  1.0000 -0.0509663239
N   N52       1.0  0.71716  0.50436  0.25282  1.0000 -0.0509663239
N   N53       1.0  0.78284  0.50436  0.75282  1.0000 -0.0509663239
N   N54       1.0  0.21716  0.99564  0.25282  1.0000 -0.0509663239
N   N55       1.0  0.71716  0.00436  0.24718  1.0000 -0.0509663239
N   N56       1.0  0.28284  0.49564  0.74718  1.0000 -0.0509663239
N   N57       1.0  0.09167  0.50980  0.25846  1.0000 -0.2404736519
N   N58       1.0  0.90833  0.99020  0.75846  1.0000 -0.2404736519
N   N59       1.0  0.40833  0.00980  0.74154  1.0000 -0.2404736519
N   N60       1.0  0.59167  0.49020  0.24154  1.0000 -0.2404736519
N   N61       1.0  0.90833  0.49020  0.74154  1.0000 -0.2404736519
N   N62       1.0  0.09167  0.00980  0.24154  1.0000 -0.2404736519
N   N63       1.0  0.59167  0.99020  0.25846  1.0000 -0.2404736519
N   N64       1.0  0.40833  0.50980  0.75846  1.0000 -0.2404736519
O   O1        1.0  0.99844  0.84086  0.24001  1.0000 -0.5231318563
O   O2        1.0  0.00156  0.65914  0.74001  1.0000 -0.5231318563
O   O3        1.0  0.50156  0.34086  0.75999  1.0000 -0.5231318563
O   O4        1.0  0.49844  0.15914  0.25999  1.0000 -0.5231318563
O   O5        1.0  0.00156  0.15914  0.75999  1.0000 -0.5231318563
O   O6        1.0  0.99844  0.34086  0.25999  1.0000 -0.5231318563
O   O7        1.0  0.49844  0.65914  0.24001  1.0000 -0.5231318563
O   O8        1.0  0.50156  0.84086  0.74001  1.0000 -0.5231318563
O   O9        1.0  0.60610  0.00977  0.06896  1.0000 -0.6575019747
O   O10       1.0  0.39390  0.49023  0.56896  1.0000 -0.6575019747
O   O11       1.0  0.89390  0.50977  0.93104  1.0000 -0.6575019747
O   O12       1.0  0.10610  0.99023  0.43104  1.0000 -0.6575019747
O   O13       1.0  0.39390  0.99023  0.93104  1.0000 -0.6575019747
O   O14       1.0  0.60610  0.50977  0.43104  1.0000 -0.6575019747
O   O15       1.0  0.10610  0.49023  0.06896  1.0000 -0.6575019747
O   O16       1.0  0.89390  0.00977  0.56896  1.0000 -0.6575019747
O   O17       1.0  0.17600  0.82675  0.20044  1.0000 -0.5421385072
O   O18       1.0  0.82400  0.67325  0.70044  1.0000 -0.5421385072
O   O19       1.0  0.32400  0.32675  0.79956  1.0000 -0.5421385072
O   O20       1.0  0.67600  0.17325  0.29956  1.0000 -0.5421385072
O   O21       1.0  0.82400  0.17325  0.79956  1.0000 -0.5421385072
O   O22       1.0  0.17600  0.32675  0.29956  1.0000 -0.5421385072
O   O23       1.0  0.67600  0.67325  0.20044  1.0000 -0.5421385072
O   O24       1.0  0.32400  0.82675  0.70044  1.0000 -0.5421385072
O   O25       1.0  0.38805  0.06182  0.02699  1.0000 -0.5624919921
O   O26       1.0  0.61195  0.43818  0.52699  1.0000 -0.5624919921
O   O27       1.0  0.11195  0.56182  0.97301  1.0000 -0.5624919921
O   O28       1.0  0.88805  0.93818  0.47301  1.0000 -0.5624919921
O   O29       1.0  0.61195  0.93818  0.97301  1.0000 -0.5624919921
O   O30       1.0  0.38805  0.56182  0.47301  1.0000 -0.5624919921
O   O31       1.0  0.88805  0.43818  0.02699  1.0000 -0.5624919921
O   O32       1.0  0.11195  0.06182  0.52699  1.0000 -0.5624919921
O   O33       1.0  0.20054  0.04453  0.99288  1.0000 -0.5421385072
O   O34       1.0  0.79946  0.45547  0.49288  1.0000 -0.5421385072
O   O35       1.0  0.29946  0.54453  0.00712  1.0000 -0.5421385072
O   O36       1.0  0.70054  0.95547  0.50712  1.0000 -0.5421385072
O   O37       1.0  0.79946  0.95547  0.00712  1.0000 -0.5421385072
O   O38       1.0  0.20054  0.54453  0.50712  1.0000 -0.5421385072
O   O39       1.0  0.70054  0.45547  0.99288  1.0000 -0.5421385072
O   O40       1.0  0.29946  0.04453  0.49288  1.0000 -0.5421385072
