# DDEC6 charges by PACMAN v1.1 (https://github.com/mtap-research/PACMAN-charge/)
data_2015[Al][fon]3[FSR]1
_chemical_formula_sum              "Al16 H128 C224 O80"
_cell_length_a       18.878
_cell_length_b       18.878
_cell_length_c       37.043
_cell_angle_alpha    90
_cell_angle_beta     90
_cell_angle_gamma    90

_symmetry_space_group_name_H-M    "P 1"
_symmetry_Int_Tables_number       1

loop_
  _symmetry_equiv_pos_as_xyz
  'x, y, z'

loop_
  _atom_site_type_symbol
  _atom_site_label
  _atom_site_symmetry_multiplicity
  _atom_site_fract_x
  _atom_site_fract_y
  _atom_site_fract_z
  _atom_site_occupancy
  _atom_site_charge
Al  Al1       1.0  0.83462  0.16538  0.00000  1.0000 1.6095822061
Al  Al2       1.0  0.16538  0.83462  0.00000  1.0000 1.6095822061
Al  Al3       1.0  0.33462  0.33462  0.50000  1.0000 1.6095822061
Al  Al4       1.0  0.66538  0.66538  0.50000  1.0000 1.6095822061
Al  Al5       1.0  0.00000  0.00000  0.11447  1.0000 1.6373913492
Al  Al6       1.0  0.50000  0.50000  0.61447  1.0000 1.6373913492
Al  Al7       1.0  0.50000  0.50000  0.38553  1.0000 1.6373913492
Al  Al8       1.0  0.00000  0.00000  0.88553  1.0000 1.6373913492
Al  Al9       1.0  0.86862  0.09558  0.08073  1.0000 1.6220322604
Al  Al10      1.0  0.13138  0.90442  0.08073  1.0000 1.6220322604
Al  Al11      1.0  0.40442  0.36862  0.58073  1.0000 1.6220322604
Al  Al12      1.0  0.59558  0.63138  0.58073  1.0000 1.6220322604
Al  Al13      1.0  0.63138  0.59558  0.41927  1.0000 1.6220322604
Al  Al14      1.0  0.36862  0.40442  0.41927  1.0000 1.6220322604
Al  Al15      1.0  0.09558  0.86862  0.91927  1.0000 1.6220322604
Al  Al16      1.0  0.90442  0.13138  0.91927  1.0000 1.6220322604
H   H1        1.0  0.78800  0.36250  0.04640  1.0000 0.1325177201
H   H2        1.0  0.21200  0.63750  0.04640  1.0000 0.1325177201
H   H3        1.0  0.13750  0.28800  0.54640  1.0000 0.1325177201
H   H4        1.0  0.86250  0.71200  0.54640  1.0000 0.1325177201
H   H5        1.0  0.71200  0.86250  0.45360  1.0000 0.1325177201
H   H6        1.0  0.28800  0.13750  0.45360  1.0000 0.1325177201
H   H7        1.0  0.36250  0.78800  0.95360  1.0000 0.1325177201
H   H8        1.0  0.63750  0.21200  0.95360  1.0000 0.1325177201
H   H9        1.0  0.58750  0.49060  0.28340  1.0000 0.1325177201
H   H10       1.0  0.41250  0.50940  0.28340  1.0000 0.1325177201
H   H11       1.0  0.00940  0.08750  0.78340  1.0000 0.1325177201
H   H12       1.0  0.99060  0.91250  0.78340  1.0000 0.1325177201
H   H13       1.0  0.91250  0.99060  0.21660  1.0000 0.1350471879
H   H14       1.0  0.08750  0.00940  0.21660  1.0000 0.1350471879
H   H15       1.0  0.49060  0.58750  0.71660  1.0000 0.1325177201
H   H16       1.0  0.50940  0.41250  0.71660  1.0000 0.1325177201
H   H17       1.0  0.79680  0.24450  0.13790  1.0000 0.1325177201
H   H18       1.0  0.20320  0.75550  0.13790  1.0000 0.1325177201
H   H19       1.0  0.25550  0.29680  0.63790  1.0000 0.1325177201
H   H20       1.0  0.74450  0.70320  0.63790  1.0000 0.1325177201
H   H21       1.0  0.70320  0.74450  0.36210  1.0000 0.1325177201
H   H22       1.0  0.29680  0.25550  0.36210  1.0000 0.1325177201
H   H23       1.0  0.24450  0.79680  0.86210  1.0000 0.1325177201
H   H24       1.0  0.75550  0.20320  0.86210  1.0000 0.1325177201
H   H25       1.0  0.79860  0.34810  0.17230  1.0000 0.1185209914
H   H26       1.0  0.20140  0.65190  0.17230  1.0000 0.1185209914
H   H27       1.0  0.15190  0.29860  0.67230  1.0000 0.1185209914
H   H28       1.0  0.84810  0.70140  0.67230  1.0000 0.1185209914
H   H29       1.0  0.70140  0.84810  0.32770  1.0000 0.1185209914
H   H30       1.0  0.29860  0.15190  0.32770  1.0000 0.1185209914
H   H31       1.0  0.34810  0.79860  0.82770  1.0000 0.1185209914
H   H32       1.0  0.65190  0.20140  0.82770  1.0000 0.1185209914
H   H33       1.0  0.75260  0.59750  0.32700  1.0000 0.1325177201
H   H34       1.0  0.24740  0.40250  0.32700  1.0000 0.1325177201
H   H35       1.0  0.90250  0.25260  0.82700  1.0000 0.1325177201
H   H36       1.0  0.09750  0.74740  0.82700  1.0000 0.1325177201
H   H37       1.0  0.74740  0.09750  0.17300  1.0000 0.1325177201
H   H38       1.0  0.25260  0.90250  0.17300  1.0000 0.1325177201
H   H39       1.0  0.59750  0.75260  0.67300  1.0000 0.1325177201
H   H40       1.0  0.40250  0.24740  0.67300  1.0000 0.1325177201
H   H41       1.0  0.86450  0.53950  0.11920  1.0000 0.1185209914
H   H42       1.0  0.13550  0.46050  0.11920  1.0000 0.1185209914
H   H43       1.0  0.96050  0.36450  0.61920  1.0000 0.1185209914
H   H44       1.0  0.03950  0.63550  0.61920  1.0000 0.1185209914
H   H45       1.0  0.63550  0.03950  0.38080  1.0000 0.1185209914
H   H46       1.0  0.36450  0.96050  0.38080  1.0000 0.1185209914
H   H47       1.0  0.53950  0.86450  0.88080  1.0000 0.1185209914
H   H48       1.0  0.46050  0.13550  0.88080  1.0000 0.1185209914
H   H49       1.0  0.79200  0.46570  0.08120  1.0000 0.1185209914
H   H50       1.0  0.20800  0.53430  0.08120  1.0000 0.1185209914
H   H51       1.0  0.03430  0.29200  0.58120  1.0000 0.1185209914
H   H52       1.0  0.96570  0.70800  0.58120  1.0000 0.1185209914
H   H53       1.0  0.70800  0.96570  0.41880  1.0000 0.1185209914
H   H54       1.0  0.29200  0.03430  0.41880  1.0000 0.1185209914
H   H55       1.0  0.46570  0.79200  0.91880  1.0000 0.1185209914
H   H56       1.0  0.53430  0.20800  0.91880  1.0000 0.1185209914
H   H57       1.0  0.87470  0.83800  0.14450  1.0000 0.1325177201
H   H58       1.0  0.12530  0.16200  0.14450  1.0000 0.1325177201
H   H59       1.0  0.66200  0.37470  0.64450  1.0000 0.1325177201
H   H60       1.0  0.33800  0.62530  0.64450  1.0000 0.1325177201
H   H61       1.0  0.62530  0.33800  0.35550  1.0000 0.1325177201
H   H62       1.0  0.37470  0.66200  0.35550  1.0000 0.1325177201
H   H63       1.0  0.83800  0.87470  0.85550  1.0000 0.1325177201
H   H64       1.0  0.16200  0.12530  0.85550  1.0000 0.1325177201
H   H65       1.0  0.64120  0.49600  0.22660  1.0000 0.1185209914
H   H66       1.0  0.35880  0.50400  0.22660  1.0000 0.1185209914
H   H67       1.0  0.00400  0.14120  0.72660  1.0000 0.1185209914
H   H68       1.0  0.99600  0.85880  0.72660  1.0000 0.1185209914
H   H69       1.0  0.85880  0.99600  0.27340  1.0000 0.1185209914
H   H70       1.0  0.14120  0.00400  0.27340  1.0000 0.1185209914
H   H71       1.0  0.49600  0.64120  0.77340  1.0000 0.1185209914
H   H72       1.0  0.50400  0.35880  0.77340  1.0000 0.1185209914
H   H73       1.0  0.81100  0.73760  0.16390  1.0000 0.1185209914
H   H74       1.0  0.18900  0.26240  0.16390  1.0000 0.1185209914
H   H75       1.0  0.76240  0.31100  0.66390  1.0000 0.1185209914
H   H76       1.0  0.23760  0.68900  0.66390  1.0000 0.1185209914
H   H77       1.0  0.68900  0.23760  0.33610  1.0000 0.1185209914
H   H78       1.0  0.31100  0.76240  0.33610  1.0000 0.1185209914
H   H79       1.0  0.73760  0.81100  0.83610  1.0000 0.1185209914
H   H80       1.0  0.26240  0.18900  0.83610  1.0000 0.1185209914
H   H81       1.0  0.03640  0.70930  0.11200  1.0000 0.1185209914
H   H82       1.0  0.96360  0.29070  0.11200  1.0000 0.1185209914
H   H83       1.0  0.79070  0.53640  0.61200  1.0000 0.1185209914
H   H84       1.0  0.20930  0.46360  0.61200  1.0000 0.1185209914
H   H85       1.0  0.46360  0.20930  0.38800  1.0000 0.1185209914
H   H86       1.0  0.53640  0.79070  0.38800  1.0000 0.1185209914
H   H87       1.0  0.70930  0.03640  0.88800  1.0000 0.1185209914
H   H88       1.0  0.29070  0.96360  0.88800  1.0000 0.1185209914
H   H89       1.0  0.80850  0.60210  0.27100  1.0000 0.1185209914
H   H90       1.0  0.19150  0.39790  0.27100  1.0000 0.1185209914
H   H91       1.0  0.89790  0.30850  0.77100  1.0000 0.1185209914
H   H92       1.0  0.10210  0.69150  0.77100  1.0000 0.1185209914
H   H93       1.0  0.69150  0.10210  0.22900  1.0000 0.1185209914
H   H94       1.0  0.30850  0.89790  0.22900  1.0000 0.1185209914
H   H95       1.0  0.60210  0.80850  0.72900  1.0000 0.1185209914
H   H96       1.0  0.39790  0.19150  0.72900  1.0000 0.1185209914
H   H97       1.0  0.80860  0.64570  0.21000  1.0000 0.1185209914
H   H98       1.0  0.19140  0.35430  0.21000  1.0000 0.1185209914
H   H99       1.0  0.85430  0.30860  0.71000  1.0000 0.1185209914
H   H100      1.0  0.14570  0.69140  0.71000  1.0000 0.1185209914
H   H101      1.0  0.69140  0.14570  0.29000  1.0000 0.1185209914
H   H102      1.0  0.30860  0.85430  0.29000  1.0000 0.1119787871
H   H103      1.0  0.64570  0.80860  0.79000  1.0000 0.1185209914
H   H104      1.0  0.35430  0.19140  0.79000  1.0000 0.1185209914
H   H105      1.0  0.73880  0.44640  0.19380  1.0000 0.1185209914
H   H106      1.0  0.26120  0.55360  0.19380  1.0000 0.1185209914
H   H107      1.0  0.05360  0.23880  0.69380  1.0000 0.1185209914
H   H108      1.0  0.94640  0.76120  0.69380  1.0000 0.1185209914
H   H109      1.0  0.76120  0.94640  0.30620  1.0000 0.1185209914
H   H110      1.0  0.23880  0.05360  0.30620  1.0000 0.1185209914
H   H111      1.0  0.44640  0.73880  0.80620  1.0000 0.1185209914
H   H112      1.0  0.55360  0.26120  0.80620  1.0000 0.1185209914
H   H113      1.0  0.71610  0.01660  0.03110  1.0000 0.0500123853
H   H114      1.0  0.28390  0.98340  0.03110  1.0000 0.0500123853
H   H115      1.0  0.48340  0.21610  0.53110  1.0000 0.0500123853
H   H116      1.0  0.51660  0.78390  0.53110  1.0000 0.0500123853
H   H117      1.0  0.78390  0.51660  0.46890  1.0000 0.0500123853
H   H118      1.0  0.21610  0.48340  0.46890  1.0000 0.0500123853
H   H119      1.0  0.01660  0.71610  0.96890  1.0000 0.0500123853
H   H120      1.0  0.98340  0.28390  0.96890  1.0000 0.0500123853
H   H121      1.0  0.97010  0.61130  0.12990  1.0000 0.1119787871
H   H122      1.0  0.02990  0.38870  0.12990  1.0000 0.1119787871
H   H123      1.0  0.88870  0.47010  0.62990  1.0000 0.1119787871
H   H124      1.0  0.11130  0.52990  0.62990  1.0000 0.1119787871
H   H125      1.0  0.52990  0.11130  0.37010  1.0000 0.1119787871
H   H126      1.0  0.47010  0.88870  0.37010  1.0000 0.1119787871
H   H127      1.0  0.61130  0.97010  0.87010  1.0000 0.1119787871
H   H128      1.0  0.38870  0.02990  0.87010  1.0000 0.1119787871
C   C1        1.0  0.96170  0.78360  0.12597  1.0000 -0.0490994697
C   C2        1.0  0.03830  0.21640  0.12597  1.0000 -0.0490994697
C   C3        1.0  0.71640  0.46170  0.62597  1.0000 -0.0490994697
C   C4        1.0  0.28360  0.53830  0.62597  1.0000 -0.0490994697
C   C5        1.0  0.53830  0.28360  0.37403  1.0000 -0.0490994697
C   C6        1.0  0.46170  0.71640  0.37403  1.0000 -0.0490994697
C   C7        1.0  0.78360  0.96170  0.87403  1.0000 -0.0490994697
C   C8        1.0  0.21640  0.03830  0.87403  1.0000 -0.0490994697
C   C9        1.0  0.00040  0.84680  0.11393  1.0000 0.6091482023
C   C10       1.0  0.99960  0.15320  0.11393  1.0000 0.6091482023
C   C11       1.0  0.65320  0.50040  0.61393  1.0000 0.6091482023
C   C12       1.0  0.34680  0.49960  0.61393  1.0000 0.6091482023
C   C13       1.0  0.49960  0.34680  0.38607  1.0000 0.6091482023
C   C14       1.0  0.50040  0.65320  0.38607  1.0000 0.6091482023
C   C15       1.0  0.84680  0.00040  0.88607  1.0000 0.6091482023
C   C16       1.0  0.15320  0.99960  0.88607  1.0000 0.6091482023
C   C17       1.0  0.79230  0.29360  0.08877  1.0000 -0.036515008
C   C18       1.0  0.20770  0.70640  0.08877  1.0000 -0.036515008
C   C19       1.0  0.20640  0.29230  0.58877  1.0000 -0.036515008
C   C20       1.0  0.79360  0.70770  0.58877  1.0000 -0.036515008
C   C21       1.0  0.70770  0.79360  0.41123  1.0000 -0.0348996354
C   C22       1.0  0.29230  0.20640  0.41123  1.0000 -0.0348996354
C   C23       1.0  0.29360  0.79230  0.91123  1.0000 -0.036515008
C   C24       1.0  0.70640  0.20770  0.91123  1.0000 -0.036515008
C   C25       1.0  0.62710  0.54470  0.34611  1.0000 0.6091482023
C   C26       1.0  0.37290  0.45530  0.34611  1.0000 0.6091482023
C   C27       1.0  0.95530  0.12710  0.84611  1.0000 0.6091482023
C   C28       1.0  0.04470  0.87290  0.84611  1.0000 0.6091482023
C   C29       1.0  0.87290  0.04470  0.15389  1.0000 0.6091482023
C   C30       1.0  0.12710  0.95530  0.15389  1.0000 0.6091482023
C   C31       1.0  0.54470  0.62710  0.65389  1.0000 0.6091482023
C   C32       1.0  0.45530  0.37290  0.65389  1.0000 0.6091482023
C   C33       1.0  0.79070  0.35940  0.07198  1.0000 -0.0817702358
C   C34       1.0  0.20930  0.64060  0.07198  1.0000 -0.0817702358
C   C35       1.0  0.14060  0.29070  0.57198  1.0000 -0.0817702358
C   C36       1.0  0.85940  0.70930  0.57198  1.0000 -0.0817702358
C   C37       1.0  0.70930  0.85940  0.42802  1.0000 -0.0817702358
C   C38       1.0  0.29070  0.14060  0.42802  1.0000 -0.0817702358
C   C39       1.0  0.35940  0.79070  0.92802  1.0000 -0.0817702358
C   C40       1.0  0.64060  0.20930  0.92802  1.0000 -0.0817702358
C   C41       1.0  0.66400  0.54550  0.31033  1.0000 -0.036515008
C   C42       1.0  0.33600  0.45450  0.31033  1.0000 -0.036515008
C   C43       1.0  0.95450  0.16400  0.81033  1.0000 -0.036515008
C   C44       1.0  0.04550  0.83600  0.81033  1.0000 -0.036515008
C   C45       1.0  0.83600  0.04550  0.18967  1.0000 -0.036515008
C   C46       1.0  0.16400  0.95450  0.18967  1.0000 -0.036515008
C   C47       1.0  0.54550  0.66400  0.68967  1.0000 -0.036515008
C   C48       1.0  0.45450  0.33600  0.68967  1.0000 -0.036515008
C   C49       1.0  0.79730  0.22750  0.06715  1.0000 0.6091482023
C   C50       1.0  0.20270  0.77250  0.06715  1.0000 0.6091482023
C   C51       1.0  0.27250  0.29730  0.56715  1.0000 0.6091482023
C   C52       1.0  0.72750  0.70270  0.56715  1.0000 0.6091482023
C   C53       1.0  0.70270  0.72750  0.43285  1.0000 0.6091482023
C   C54       1.0  0.29730  0.27250  0.43285  1.0000 0.6091482023
C   C55       1.0  0.22750  0.79730  0.93285  1.0000 0.6091482023
C   C56       1.0  0.77250  0.20270  0.93285  1.0000 0.6091482023
C   C57       1.0  0.63190  0.51370  0.28067  1.0000 -0.0884260182
C   C58       1.0  0.36810  0.48630  0.28067  1.0000 -0.0884260182
C   C59       1.0  0.98630  0.13190  0.78067  1.0000 -0.0884260182
C   C60       1.0  0.01370  0.86810  0.78067  1.0000 -0.0884260182
C   C61       1.0  0.86810  0.01370  0.21933  1.0000 -0.0884260182
C   C62       1.0  0.13190  0.98630  0.21933  1.0000 -0.0884260182
C   C63       1.0  0.51370  0.63190  0.71933  1.0000 -0.0884260182
C   C64       1.0  0.48630  0.36810  0.71933  1.0000 -0.0884260182
C   C65       1.0  0.79560  0.28940  0.12630  1.0000 -0.0747195577
C   C66       1.0  0.20440  0.71060  0.12630  1.0000 -0.0747195577
C   C67       1.0  0.21060  0.29560  0.62630  1.0000 -0.0747195577
C   C68       1.0  0.78940  0.70440  0.62630  1.0000 -0.0747195577
C   C69       1.0  0.70440  0.78940  0.37370  1.0000 -0.0747195577
C   C70       1.0  0.29560  0.21060  0.37370  1.0000 -0.0747195577
C   C71       1.0  0.28940  0.79560  0.87370  1.0000 -0.0817702358
C   C72       1.0  0.71060  0.20440  0.87370  1.0000 -0.0817702358
C   C73       1.0  0.79720  0.35120  0.14675  1.0000 -0.1499760666
C   C74       1.0  0.20280  0.64880  0.14675  1.0000 -0.1499760666
C   C75       1.0  0.14880  0.29720  0.64675  1.0000 -0.1499760666
C   C76       1.0  0.85120  0.70280  0.64675  1.0000 -0.1499760666
C   C77       1.0  0.70280  0.85120  0.35325  1.0000 -0.1499760666
C   C78       1.0  0.29720  0.14880  0.35325  1.0000 -0.1499760666
C   C79       1.0  0.35120  0.79720  0.85325  1.0000 -0.1499760666
C   C80       1.0  0.64880  0.20280  0.85325  1.0000 -0.1499760666
C   C81       1.0  0.73020  0.57700  0.30652  1.0000 -0.0884260182
C   C82       1.0  0.26980  0.42300  0.30652  1.0000 -0.0884260182
C   C83       1.0  0.92300  0.23020  0.80652  1.0000 -0.0884260182
C   C84       1.0  0.07700  0.76980  0.80652  1.0000 -0.0884260182
C   C85       1.0  0.76980  0.07700  0.19348  1.0000 -0.0884260182
C   C86       1.0  0.23020  0.92300  0.19348  1.0000 -0.0884260182
C   C87       1.0  0.57700  0.73020  0.69348  1.0000 -0.0884260182
C   C88       1.0  0.42300  0.26980  0.69348  1.0000 -0.0884260182
C   C89       1.0  0.84030  0.54130  0.14170  1.0000 -0.2012110848
C   C90       1.0  0.15970  0.45870  0.14170  1.0000 -0.2012110848
C   C91       1.0  0.95870  0.34030  0.64170  1.0000 -0.2012110848
C   C92       1.0  0.04130  0.65970  0.64170  1.0000 -0.2012110848
C   C93       1.0  0.65970  0.04130  0.35830  1.0000 -0.2012110848
C   C94       1.0  0.34030  0.95870  0.35830  1.0000 -0.2012110848
C   C95       1.0  0.54130  0.84030  0.85830  1.0000 -0.2012110848
C   C96       1.0  0.45870  0.15970  0.85830  1.0000 -0.2012110848
C   C97       1.0  0.79300  0.42080  0.09270  1.0000 -0.1423778628
C   C98       1.0  0.20700  0.57920  0.09270  1.0000 -0.1423778628
C   C99       1.0  0.07920  0.29300  0.59270  1.0000 -0.1423778628
C   C100      1.0  0.92080  0.70700  0.59270  1.0000 -0.1423778628
C   C101      1.0  0.70700  0.92080  0.40730  1.0000 -0.1423778628
C   C102      1.0  0.29300  0.07920  0.40730  1.0000 -0.1423778628
C   C103      1.0  0.42080  0.79300  0.90730  1.0000 -0.1423778628
C   C104      1.0  0.57920  0.20700  0.90730  1.0000 -0.1423778628
C   C105      1.0  0.89450  0.79200  0.14180  1.0000 -0.0817702358
C   C106      1.0  0.10550  0.20800  0.14180  1.0000 -0.0817702358
C   C107      1.0  0.70800  0.39450  0.64180  1.0000 -0.0817702358
C   C108      1.0  0.29200  0.60550  0.64180  1.0000 -0.0817702358
C   C109      1.0  0.60550  0.29200  0.35820  1.0000 -0.0817702358
C   C110      1.0  0.39450  0.70800  0.35820  1.0000 -0.0817702358
C   C111      1.0  0.79200  0.89450  0.85820  1.0000 -0.0817702358
C   C112      1.0  0.20800  0.10550  0.85820  1.0000 -0.0817702358
C   C113      1.0  0.66450  0.51560  0.24700  1.0000 -0.1560186913
C   C114      1.0  0.33550  0.48440  0.24700  1.0000 -0.1560186913
C   C115      1.0  0.98440  0.16450  0.74700  1.0000 -0.1560186913
C   C116      1.0  0.01560  0.83550  0.74700  1.0000 -0.1560186913
C   C117      1.0  0.83550  0.01560  0.25300  1.0000 -0.1560186913
C   C118      1.0  0.16450  0.98440  0.25300  1.0000 -0.1560186913
C   C119      1.0  0.51560  0.66450  0.75300  1.0000 -0.1560186913
C   C120      1.0  0.48440  0.33550  0.75300  1.0000 -0.1560186913
C   C121      1.0  0.85670  0.73200  0.15360  1.0000 -0.1499760666
C   C122      1.0  0.14330  0.26800  0.15360  1.0000 -0.1499760666
C   C123      1.0  0.76800  0.35670  0.65360  1.0000 -0.1499760666
C   C124      1.0  0.23200  0.64330  0.65360  1.0000 -0.1499760666
C   C125      1.0  0.64330  0.23200  0.34640  1.0000 -0.1499760666
C   C126      1.0  0.35670  0.76800  0.34640  1.0000 -0.1499760666
C   C127      1.0  0.73200  0.85670  0.84640  1.0000 -0.1499760666
C   C128      1.0  0.26800  0.14330  0.84640  1.0000 -0.1499760666
C   C129      1.0  0.73260  0.54670  0.24310  1.0000 0.0800760424
C   C130      1.0  0.26740  0.45330  0.24310  1.0000 0.0800760424
C   C131      1.0  0.95330  0.23260  0.74310  1.0000 0.0800760424
C   C132      1.0  0.04670  0.76740  0.74310  1.0000 0.0800760424
C   C133      1.0  0.76740  0.04670  0.25690  1.0000 0.0800760424
C   C134      1.0  0.23260  0.95330  0.25690  1.0000 0.0800760424
C   C135      1.0  0.54670  0.73260  0.75690  1.0000 0.0800760424
C   C136      1.0  0.45330  0.26740  0.75690  1.0000 0.0800760424
C   C137      1.0  0.84550  0.60150  0.16270  1.0000 0.0887722805
C   C138      1.0  0.15450  0.39850  0.16270  1.0000 0.0887722805
C   C139      1.0  0.89850  0.34550  0.66270  1.0000 0.0887722805
C   C140      1.0  0.10150  0.65450  0.66270  1.0000 0.0887722805
C   C141      1.0  0.65450  0.10150  0.33730  1.0000 0.0887722805
C   C142      1.0  0.34550  0.89850  0.33730  1.0000 0.0887722805
C   C143      1.0  0.60150  0.84550  0.83730  1.0000 0.0887722805
C   C144      1.0  0.39850  0.15450  0.83730  1.0000 0.0887722805
C   C145      1.0  0.79680  0.41690  0.13048  1.0000 0.0724865057
C   C146      1.0  0.20320  0.58310  0.13048  1.0000 0.0724865057
C   C147      1.0  0.08310  0.29680  0.63048  1.0000 0.0724865057
C   C148      1.0  0.91690  0.70320  0.63048  1.0000 0.0724865057
C   C149      1.0  0.70320  0.91690  0.36952  1.0000 0.0724865057
C   C150      1.0  0.29680  0.08310  0.36952  1.0000 0.0724865057
C   C151      1.0  0.41690  0.79680  0.86952  1.0000 0.0724865057
C   C152      1.0  0.58310  0.20320  0.86952  1.0000 0.0724865057
C   C153      1.0  0.80000  0.48280  0.15280  1.0000 0.0887722805
C   C154      1.0  0.20000  0.51720  0.15280  1.0000 0.0887722805
C   C155      1.0  0.01720  0.30000  0.65280  1.0000 0.0887722805
C   C156      1.0  0.98280  0.70000  0.65280  1.0000 0.0887722805
C   C157      1.0  0.70000  0.98280  0.34720  1.0000 0.0887722805
C   C158      1.0  0.30000  0.01720  0.34720  1.0000 0.0887722805
C   C159      1.0  0.48280  0.80000  0.84720  1.0000 0.0887722805
C   C160      1.0  0.51720  0.20000  0.84720  1.0000 0.0887722805
C   C161      1.0  0.99070  0.71550  0.12222  1.0000 -0.0817702358
C   C162      1.0  0.00930  0.28450  0.12222  1.0000 -0.0817702358
C   C163      1.0  0.78450  0.49070  0.62222  1.0000 -0.0817702358
C   C164      1.0  0.21550  0.50930  0.62222  1.0000 -0.0817702358
C   C165      1.0  0.50930  0.21550  0.37778  1.0000 -0.0817702358
C   C166      1.0  0.49070  0.78450  0.37778  1.0000 -0.0817702358
C   C167      1.0  0.71550  0.99070  0.87778  1.0000 -0.0817702358
C   C168      1.0  0.28450  0.00930  0.87778  1.0000 -0.0817702358
C   C169      1.0  0.76400  0.57900  0.27330  1.0000 -0.1499760666
C   C170      1.0  0.23600  0.42100  0.27330  1.0000 -0.1499760666
C   C171      1.0  0.92100  0.26400  0.77330  1.0000 -0.1560186913
C   C172      1.0  0.07900  0.73600  0.77330  1.0000 -0.1560186913
C   C173      1.0  0.73600  0.07900  0.22670  1.0000 -0.1560186913
C   C174      1.0  0.26400  0.92100  0.22670  1.0000 -0.1560186913
C   C175      1.0  0.57900  0.76400  0.72670  1.0000 -0.1499760666
C   C176      1.0  0.42100  0.23600  0.72670  1.0000 -0.1499760666
C   C177      1.0  0.80750  0.60390  0.19580  1.0000 -0.2012110848
C   C178      1.0  0.19250  0.39610  0.19580  1.0000 -0.2012110848
C   C179      1.0  0.89610  0.30750  0.69580  1.0000 -0.2012110848
C   C180      1.0  0.10390  0.69250  0.69580  1.0000 -0.2012110848
C   C181      1.0  0.69250  0.10390  0.30420  1.0000 -0.2012110848
C   C182      1.0  0.30750  0.89610  0.30420  1.0000 -0.2012110848
C   C183      1.0  0.60390  0.80750  0.80420  1.0000 -0.2012110848
C   C184      1.0  0.39610  0.19250  0.80420  1.0000 -0.2012110848
C   C185      1.0  0.76540  0.48620  0.18590  1.0000 -0.1913377067
C   C186      1.0  0.23460  0.51380  0.18590  1.0000 -0.1913377067
C   C187      1.0  0.01380  0.26540  0.68590  1.0000 -0.1913377067
C   C188      1.0  0.98620  0.73460  0.68590  1.0000 -0.1913377067
C   C189      1.0  0.73460  0.98620  0.31410  1.0000 -0.1913377067
C   C190      1.0  0.26540  0.01380  0.31410  1.0000 -0.1913377067
C   C191      1.0  0.48620  0.76540  0.81410  1.0000 -0.1913377067
C   C192      1.0  0.51380  0.23460  0.81410  1.0000 -0.1913377067
C   C193      1.0  0.75540  0.04740  0.03426  1.0000 0.4928799848
C   C194      1.0  0.24460  0.95260  0.03426  1.0000 0.4928799848
C   C195      1.0  0.45260  0.25540  0.53426  1.0000 0.4928799848
C   C196      1.0  0.54740  0.74460  0.53426  1.0000 0.4928799848
C   C197      1.0  0.74460  0.54740  0.46574  1.0000 0.4928799848
C   C198      1.0  0.25540  0.45260  0.46574  1.0000 0.4928799848
C   C199      1.0  0.04740  0.75540  0.96574  1.0000 0.4928799848
C   C200      1.0  0.95260  0.24460  0.96574  1.0000 0.4928799848
C   C201      1.0  0.76820  0.54520  0.20770  1.0000 0.0800760424
C   C202      1.0  0.23180  0.45480  0.20770  1.0000 0.0800760424
C   C203      1.0  0.95480  0.26820  0.70770  1.0000 0.0800760424
C   C204      1.0  0.04520  0.73180  0.70770  1.0000 0.0800760424
C   C205      1.0  0.73180  0.04520  0.29230  1.0000 0.0800760424
C   C206      1.0  0.26820  0.95480  0.29230  1.0000 0.0800760424
C   C207      1.0  0.54520  0.76820  0.79230  1.0000 0.0800760424
C   C208      1.0  0.45480  0.23180  0.79230  1.0000 0.0800760424
C   C209      1.0  0.88610  0.66370  0.15030  1.0000 0.0724865057
C   C210      1.0  0.11390  0.33630  0.15030  1.0000 0.0724865057
C   C211      1.0  0.83630  0.38610  0.65030  1.0000 0.0724865057
C   C212      1.0  0.16370  0.61390  0.65030  1.0000 0.0724865057
C   C213      1.0  0.61390  0.16370  0.34970  1.0000 0.0724865057
C   C214      1.0  0.38610  0.83630  0.34970  1.0000 0.0724865057
C   C215      1.0  0.66370  0.88610  0.84970  1.0000 0.0724865057
C   C216      1.0  0.33630  0.11390  0.84970  1.0000 0.0724865057
C   C217      1.0  0.95130  0.65740  0.13370  1.0000 -0.1499760666
C   C218      1.0  0.04870  0.34260  0.13370  1.0000 -0.1499760666
C   C219      1.0  0.84260  0.45130  0.63370  1.0000 -0.1499760666
C   C220      1.0  0.15740  0.54870  0.63370  1.0000 -0.1499760666
C   C221      1.0  0.54870  0.15740  0.36630  1.0000 -0.1499760666
C   C222      1.0  0.45130  0.84260  0.36630  1.0000 -0.1499760666
C   C223      1.0  0.65740  0.95130  0.86630  1.0000 -0.1499760666
C   C224      1.0  0.34260  0.04870  0.86630  1.0000 -0.1499760666
O   O1        1.0  0.80240  0.16970  0.08450  1.0000 -0.5594367948
O   O2        1.0  0.19760  0.83030  0.08450  1.0000 -0.5594367948
O   O3        1.0  0.33030  0.30240  0.58450  1.0000 -0.5594367948
O   O4        1.0  0.66970  0.69760  0.58450  1.0000 -0.5594367948
O   O5        1.0  0.69760  0.66970  0.41550  1.0000 -0.5594367948
O   O6        1.0  0.30240  0.33030  0.41550  1.0000 -0.5594367948
O   O7        1.0  0.16970  0.80240  0.91550  1.0000 -0.5594367948
O   O8        1.0  0.83030  0.19760  0.91550  1.0000 -0.5594367948
O   O9        1.0  0.06350  0.84050  0.10250  1.0000 -0.5289086331
O   O10       1.0  0.93650  0.15950  0.10250  1.0000 -0.5289086331
O   O11       1.0  0.65950  0.56350  0.60250  1.0000 -0.5289086331
O   O12       1.0  0.34050  0.43650  0.60250  1.0000 -0.5289086331
O   O13       1.0  0.43650  0.34050  0.39750  1.0000 -0.5289086331
O   O14       1.0  0.56350  0.65950  0.39750  1.0000 -0.5289086331
O   O15       1.0  0.84050  0.06350  0.89750  1.0000 -0.5289086331
O   O16       1.0  0.15950  0.93650  0.89750  1.0000 -0.5289086331
O   O17       1.0  0.79640  0.03460  0.06117  1.0000 -0.5169119631
O   O18       1.0  0.20360  0.96540  0.06117  1.0000 -0.5169119631
O   O19       1.0  0.46540  0.29640  0.56117  1.0000 -0.5144516146
O   O20       1.0  0.53460  0.70360  0.56117  1.0000 -0.5144516146
O   O21       1.0  0.70360  0.53460  0.43883  1.0000 -0.5144516146
O   O22       1.0  0.29640  0.46540  0.43883  1.0000 -0.5144516146
O   O23       1.0  0.03460  0.79640  0.93883  1.0000 -0.5169119631
O   O24       1.0  0.96540  0.20360  0.93883  1.0000 -0.5144516146
O   O25       1.0  0.93250  0.02170  0.07946  1.0000 -0.7793813542
O   O26       1.0  0.06750  0.97830  0.07946  1.0000 -0.7793813542
O   O27       1.0  0.47830  0.43250  0.57946  1.0000 -0.7793813542
O   O28       1.0  0.52170  0.56750  0.57946  1.0000 -0.7793813542
O   O29       1.0  0.56750  0.52170  0.42054  1.0000 -0.7723846679
O   O30       1.0  0.43250  0.47830  0.42054  1.0000 -0.7723846679
O   O31       1.0  0.02170  0.93250  0.92054  1.0000 -0.7793813542
O   O32       1.0  0.97830  0.06750  0.92054  1.0000 -0.7793813542
O   O33       1.0  0.89470  0.12770  0.03497  1.0000 -0.7793813542
O   O34       1.0  0.10530  0.87230  0.03497  1.0000 -0.790114899
O   O35       1.0  0.37230  0.39470  0.53497  1.0000 -0.7723846679
O   O36       1.0  0.62770  0.60530  0.53497  1.0000 -0.7723846679
O   O37       1.0  0.60530  0.62770  0.46503  1.0000 -0.790114899
O   O38       1.0  0.39470  0.37230  0.46503  1.0000 -0.790114899
O   O39       1.0  0.12770  0.89470  0.96503  1.0000 -0.7793813542
O   O40       1.0  0.87230  0.10530  0.96503  1.0000 -0.7793813542
O   O41       1.0  0.66260  0.56960  0.37273  1.0000 -0.5594367948
O   O42       1.0  0.33740  0.43040  0.37273  1.0000 -0.5594367948
O   O43       1.0  0.93040  0.16260  0.87273  1.0000 -0.5594367948
O   O44       1.0  0.06960  0.83740  0.87273  1.0000 -0.5594367948
O   O45       1.0  0.83740  0.06960  0.12727  1.0000 -0.554514954
O   O46       1.0  0.16260  0.93040  0.12727  1.0000 -0.554514954
O   O47       1.0  0.56960  0.66260  0.62727  1.0000 -0.5594367948
O   O48       1.0  0.43040  0.33740  0.62727  1.0000 -0.5594367948
O   O49       1.0  0.56570  0.52040  0.34775  1.0000 -0.5371806035
O   O50       1.0  0.43430  0.47960  0.34775  1.0000 -0.5371806035
O   O51       1.0  0.97960  0.06570  0.84775  1.0000 -0.5371806035
O   O52       1.0  0.02040  0.93430  0.84775  1.0000 -0.5371806035
O   O53       1.0  0.93430  0.02040  0.15225  1.0000 -0.5371806035
O   O54       1.0  0.06570  0.97960  0.15225  1.0000 -0.5371806035
O   O55       1.0  0.52040  0.56570  0.65225  1.0000 -0.5289086331
O   O56       1.0  0.47960  0.43430  0.65225  1.0000 -0.5289086331
O   O57       1.0  0.79870  0.23280  0.03321  1.0000 -0.5371806035
O   O58       1.0  0.20130  0.76720  0.03321  1.0000 -0.5371806035
O   O59       1.0  0.26720  0.29870  0.53321  1.0000 -0.5371806035
O   O60       1.0  0.73280  0.70130  0.53321  1.0000 -0.5371806035
O   O61       1.0  0.70130  0.73280  0.46679  1.0000 -0.5371806035
O   O62       1.0  0.29870  0.26720  0.46679  1.0000 -0.5371806035
O   O63       1.0  0.23280  0.79870  0.96679  1.0000 -0.5371806035
O   O64       1.0  0.76720  0.20130  0.96679  1.0000 -0.5371806035
O   O65       1.0  0.96700  0.90570  0.11604  1.0000 -0.5289086331
O   O66       1.0  0.03300  0.09430  0.11604  1.0000 -0.5289086331
O   O67       1.0  0.59430  0.46700  0.61604  1.0000 -0.5289086331
O   O68       1.0  0.40570  0.53300  0.61604  1.0000 -0.5289086331
O   O69       1.0  0.53300  0.40570  0.38396  1.0000 -0.5289086331
O   O70       1.0  0.46700  0.59430  0.38396  1.0000 -0.5289086331
O   O71       1.0  0.90570  0.96700  0.88396  1.0000 -0.5289086331
O   O72       1.0  0.09430  0.03300  0.88396  1.0000 -0.5289086331
O   O73       1.0  0.76230  0.09670  0.01165  1.0000 -0.5017266517
O   O74       1.0  0.23770  0.90330  0.01165  1.0000 -0.5017266517
O   O75       1.0  0.40330  0.26230  0.51165  1.0000 -0.5017266517
O   O76       1.0  0.59670  0.73770  0.51165  1.0000 -0.5017266517
O   O77       1.0  0.73770  0.59670  0.48835  1.0000 -0.5017266517
O   O78       1.0  0.26230  0.40330  0.48835  1.0000 -0.5017266517
O   O79       1.0  0.09670  0.76230  0.98835  1.0000 -0.5017266517
O   O80       1.0  0.90330  0.23770  0.98835  1.0000 -0.5017266517
