# DDEC6 charges by PACMAN v1.1 (https://github.com/mtap-research/PACMAN-charge/)
data_2015[Zn][pcu]3[FSR]15
_chemical_formula_sum              "Zn4 H50 C78 N6 O18"
_cell_length_a       15.1431
_cell_length_b       15.2322
_cell_length_c       16.0597
_cell_angle_alpha    98.484
_cell_angle_beta     102.682
_cell_angle_gamma    104.206

_symmetry_space_group_name_H-M    "P 1"
_symmetry_Int_Tables_number       1

loop_
  _symmetry_equiv_pos_as_xyz
  'x, y, z'

loop_
  _atom_site_type_symbol
  _atom_site_label
  _atom_site_symmetry_multiplicity
  _atom_site_fract_x
  _atom_site_fract_y
  _atom_site_fract_z
  _atom_site_occupancy
  _atom_site_charge
Zn  Zn1       1.0  0.61147  0.17098  0.60253  1.0000 0.8379073872
Zn  Zn2       1.0  0.66652  0.21488  0.79623  1.0000 0.8379073872
Zn  Zn3       1.0  0.38853  0.82902  0.39747  1.0000 0.8379073872
Zn  Zn4       1.0  0.33348  0.78512  0.20377  1.0000 0.8348295424
H   H1        1.0  0.61890  0.88140  0.56220  1.0000 0.12135875
H   H2        1.0  0.62920  0.73220  0.56740  1.0000 0.1095059917
H   H3        1.0  0.63310  0.77860  0.82270  1.0000 0.1095059917
H   H4        1.0  0.63010  0.92980  0.81830  1.0000 0.12135875
H   H5        1.0  0.96660  0.21000  0.84710  1.0000 0.1286872212
H   H6        1.0  0.11010  0.19030  0.83580  1.0000 0.1095059917
H   H7        1.0  0.03170  0.17510  0.57710  1.0000 0.1095059917
H   H8        1.0  0.88830  0.19280  0.58730  1.0000 0.1286872212
H   H9        1.0  0.70720  0.51700  0.83430  1.0000 0.12135875
H   H10       1.0  0.70070  0.66750  0.82990  1.0000 0.1095059917
H   H11       1.0  0.57400  0.58680  0.56980  1.0000 0.1095059917
H   H12       1.0  0.58200  0.43660  0.57450  1.0000 0.1095059917
H   H13       1.0  0.39180  0.19070  0.81770  1.0000 0.12135875
H   H14       1.0  0.24380  0.19950  0.82840  1.0000 0.1095059917
H   H15       1.0  0.15180  0.14300  0.56710  1.0000 0.1095059917
H   H16       1.0  0.29810  0.12870  0.55710  1.0000 0.12135875
H   H17       1.0  0.62230  0.29300  0.47360  1.0000 0.1095059917
H   H18       1.0  0.63090  0.28620  0.32990  1.0000 0.1286872212
H   H19       1.0  0.60260  0.01300  0.30610  1.0000 0.1286872212
H   H20       1.0  0.60070  0.02790  0.45060  1.0000 0.12135875
H   H21       1.0  0.54950  0.10540  0.88660  1.0000 0.12135875
H   H22       1.0  0.54010  0.09250  0.02700  1.0000 0.1418703567
H   H23       1.0  0.76360  0.32050  0.12200  1.0000 0.1418703567
H   H24       1.0  0.77110  0.32270  0.98040  1.0000 0.12135875
H   H25       1.0  0.67780  0.25790  0.21590  1.0000 0.2758818154
H   H26       1.0  0.38110  0.11860  0.43780  1.0000 0.12135875
H   H27       1.0  0.37080  0.26780  0.43260  1.0000 0.1095059917
H   H28       1.0  0.36690  0.22140  0.17730  1.0000 0.1095059917
H   H29       1.0  0.36990  0.07020  0.18170  1.0000 0.12135875
H   H30       1.0  0.03340  0.79000  0.15290  1.0000 0.1286872212
H   H31       1.0  0.88990  0.80970  0.16420  1.0000 0.1095059917
H   H32       1.0  0.96830  0.82490  0.42290  1.0000 0.1095059917
H   H33       1.0  0.11170  0.80720  0.41270  1.0000 0.1286872212
H   H34       1.0  0.29280  0.48300  0.16570  1.0000 0.12135875
H   H35       1.0  0.29930  0.33250  0.17010  1.0000 0.1095059917
H   H36       1.0  0.42600  0.41320  0.43020  1.0000 0.1095059917
H   H37       1.0  0.41800  0.56340  0.42550  1.0000 0.1095059917
H   H38       1.0  0.60820  0.80930  0.18230  1.0000 0.12135875
H   H39       1.0  0.75620  0.80050  0.17160  1.0000 0.1095059917
H   H40       1.0  0.84820  0.85700  0.43290  1.0000 0.1095059917
H   H41       1.0  0.70190  0.87130  0.44290  1.0000 0.12135875
H   H42       1.0  0.37770  0.70700  0.52640  1.0000 0.1095059917
H   H43       1.0  0.36910  0.71380  0.67010  1.0000 0.1286872212
H   H44       1.0  0.39740  0.98700  0.69390  1.0000 0.1286872212
H   H45       1.0  0.39930  0.97210  0.54940  1.0000 0.12135875
H   H46       1.0  0.45050  0.89460  0.11340  1.0000 0.12135875
H   H47       1.0  0.45990  0.90750  0.97300  1.0000 0.1418703567
H   H48       1.0  0.23640  0.67950  0.87800  1.0000 0.1418703567
H   H49       1.0  0.22890  0.67730  0.01960  1.0000 0.12135875
H   H50       1.0  0.32220  0.74210  0.78410  1.0000 0.2758818154
C   C1        1.0  0.62390  0.01900  0.68790  1.0000 0.5793848668
C   C2        1.0  0.62610  0.92140  0.69000  1.0000 -0.0301730595
C   C3        1.0  0.62400  0.86140  0.61590  1.0000 -0.0990279328
C   C4        1.0  0.62930  0.77200  0.61880  1.0000 -0.1592099782
C   C5        1.0  0.63460  0.73970  0.69640  1.0000 0.0712310743
C   C6        1.0  0.63250  0.79960  0.76980  1.0000 -0.1592099782
C   C7        1.0  0.62960  0.88960  0.76690  1.0000 -0.0990279328
C   C8        1.0  0.81660  0.21150  0.72430  1.0000 0.5793848668
C   C9        1.0  0.91190  0.20360  0.71880  1.0000 -0.0301730595
C   C10       1.0  0.97930  0.20270  0.79150  1.0000 -0.0990279328
C   C11       1.0  0.06520  0.19140  0.78460  1.0000 -0.1504286084
C   C12       1.0  0.08800  0.18160  0.70590  1.0000 0.0712310743
C   C13       1.0  0.01890  0.18220  0.63270  1.0000 -0.1504286084
C   C14       1.0  0.93370  0.19280  0.63860  1.0000 -0.0990279328
C   C15       1.0  0.65240  0.36490  0.70680  1.0000 0.5887053345
C   C16       1.0  0.65010  0.46290  0.70440  1.0000 -0.0301730595
C   C17       1.0  0.68210  0.53150  0.78010  1.0000 -0.0928594585
C   C18       1.0  0.67780  0.62130  0.77750  1.0000 -0.1504286084
C   C19       1.0  0.64070  0.64440  0.69920  1.0000 0.0712310743
C   C20       1.0  0.60290  0.57340  0.62330  1.0000 -0.1592099782
C   C21       1.0  0.60770  0.48390  0.62610  1.0000 -0.0990279328
C   C22       1.0  0.46060  0.16820  0.68160  1.0000 0.5726597045
C   C23       1.0  0.36110  0.16360  0.68660  1.0000 -0.0301730595
C   C24       1.0  0.34300  0.18150  0.76600  1.0000 -0.0928594585
C   C25       1.0  0.25440  0.18630  0.77230  1.0000 -0.1504286084
C   C26       1.0  0.18170  0.17230  0.69890  1.0000 0.0712310743
C   C27       1.0  0.20050  0.15240  0.61910  1.0000 -0.1504286084
C   C28       1.0  0.28820  0.14580  0.61290  1.0000 -0.1099061932
C   C29       1.0  0.61970  0.23560  0.43920  1.0000 0.1001731396
C   C30       1.0  0.62350  0.23180  0.35310  1.0000 -0.1946430769
C   C31       1.0  0.61640  0.14850  0.30230  1.0000 0.0354117114
C   C32       1.0  0.60760  0.07170  0.33960  1.0000 -0.1504286084
C   C33       1.0  0.60630  0.08110  0.42550  1.0000 0.1001731396
C   C34       1.0  0.61050  0.13070  0.20490  1.0000 0.4551833604
C   C35       1.0  0.59420  0.14890  0.93520  1.0000 0.1095059917
C   C36       1.0  0.58780  0.14130  0.01850  1.0000 -0.2256113704
C   C37       1.0  0.65250  0.20650  0.09010  1.0000 0.252618048
C   C38       1.0  0.71940  0.27450  0.07490  1.0000 -0.2467772033
C   C39       1.0  0.72240  0.27580  0.99010  1.0000 0.0897813213
C   C40       1.0  0.37610  0.98100  0.31210  1.0000 0.5793848668
C   C41       1.0  0.37390  0.07860  0.31000  1.0000 -0.0301730595
C   C42       1.0  0.37600  0.13860  0.38410  1.0000 -0.0990279328
C   C43       1.0  0.37070  0.22800  0.38120  1.0000 -0.1592099782
C   C44       1.0  0.36540  0.26030  0.30360  1.0000 0.0712310743
C   C45       1.0  0.36750  0.20040  0.23020  1.0000 -0.1592099782
C   C46       1.0  0.37040  0.11040  0.23310  1.0000 -0.0990279328
C   C47       1.0  0.18340  0.78850  0.27570  1.0000 0.5793848668
C   C48       1.0  0.08810  0.79640  0.28120  1.0000 -0.0301730595
C   C49       1.0  0.02070  0.79730  0.20850  1.0000 -0.0990279328
C   C50       1.0  0.93480  0.80860  0.21540  1.0000 -0.1504286084
C   C51       1.0  0.91200  0.81840  0.29410  1.0000 0.0712310743
C   C52       1.0  0.98110  0.81780  0.36730  1.0000 -0.1504286084
C   C53       1.0  0.06630  0.80720  0.36140  1.0000 -0.0990279328
C   C54       1.0  0.34760  0.63510  0.29320  1.0000 0.5887053345
C   C55       1.0  0.34990  0.53710  0.29560  1.0000 -0.0301730595
C   C56       1.0  0.31790  0.46850  0.21990  1.0000 -0.0928594585
C   C57       1.0  0.32220  0.37870  0.22250  1.0000 -0.1504286084
C   C58       1.0  0.35930  0.35560  0.30080  1.0000 0.0712310743
C   C59       1.0  0.39710  0.42660  0.37670  1.0000 -0.1592099782
C   C60       1.0  0.39230  0.51610  0.37390  1.0000 -0.0990279328
C   C61       1.0  0.53940  0.83180  0.31840  1.0000 0.5726597045
C   C62       1.0  0.63890  0.83640  0.31340  1.0000 -0.0301730595
C   C63       1.0  0.65700  0.81850  0.23400  1.0000 -0.0928594585
C   C64       1.0  0.74560  0.81370  0.22770  1.0000 -0.1504286084
C   C65       1.0  0.81830  0.82770  0.30110  1.0000 0.0712310743
C   C66       1.0  0.79950  0.84760  0.38090  1.0000 -0.1504286084
C   C67       1.0  0.71180  0.85420  0.38710  1.0000 -0.1099061932
C   C68       1.0  0.38030  0.76440  0.56080  1.0000 0.1001731396
C   C69       1.0  0.37650  0.76820  0.64690  1.0000 -0.1946430769
C   C70       1.0  0.38360  0.85150  0.69770  1.0000 0.0354117114
C   C71       1.0  0.39240  0.92830  0.66040  1.0000 -0.1504286084
C   C72       1.0  0.39370  0.91890  0.57450  1.0000 0.1001731396
C   C73       1.0  0.38950  0.86930  0.79510  1.0000 0.4551833604
C   C74       1.0  0.40580  0.85110  0.06480  1.0000 0.1095059917
C   C75       1.0  0.41220  0.85870  0.98150  1.0000 -0.2256113704
C   C76       1.0  0.34750  0.79350  0.90990  1.0000 0.252618048
C   C77       1.0  0.28060  0.72550  0.92510  1.0000 -0.2467772033
C   C78       1.0  0.27760  0.72420  0.00990  1.0000 0.0897813213
N   N1        1.0  0.61250  0.16190  0.47520  1.0000 -0.2042560544
N   N2        1.0  0.65070  0.20560  0.17700  1.0000 -0.362053376
N   N3        1.0  0.66150  0.21560  0.92110  1.0000 -0.2175335701
N   N4        1.0  0.38750  0.83810  0.52480  1.0000 -0.2042560544
N   N5        1.0  0.34930  0.79440  0.82300  1.0000 -0.362053376
N   N6        1.0  0.33850  0.78440  0.07890  1.0000 -0.2175335701
O   O1        1.0  0.63830  0.07270  0.76000  1.0000 -0.5508840944
O   O2        1.0  0.60960  0.04020  0.61420  1.0000 -0.5403004553
O   O3        1.0  0.75740  0.20560  0.65390  1.0000 -0.5613495972
O   O4        1.0  0.80250  0.22340  0.79900  1.0000 -0.5252335038
O   O5        1.0  0.68300  0.34710  0.78020  1.0000 -0.5403004553
O   O6        1.0  0.62240  0.30830  0.63430  1.0000 -0.5613495972
O   O7        1.0  0.47360  0.14590  0.60710  1.0000 -0.5403004553
O   O8        1.0  0.52330  0.19480  0.75250  1.0000 -0.5403004553
O   O9        1.0  0.57480  0.05100  0.15810  1.0000 -0.459931102
O   O10       1.0  0.36170  0.92730  0.24000  1.0000 -0.5508840944
O   O11       1.0  0.39040  0.95980  0.38580  1.0000 -0.5403004553
O   O12       1.0  0.24260  0.79440  0.34610  1.0000 -0.5613495972
O   O13       1.0  0.19750  0.77660  0.20100  1.0000 -0.5252335038
O   O14       1.0  0.31700  0.65290  0.21980  1.0000 -0.5403004553
O   O15       1.0  0.37760  0.69170  0.36570  1.0000 -0.5613495972
O   O16       1.0  0.52640  0.85410  0.39290  1.0000 -0.5403004553
O   O17       1.0  0.47670  0.80520  0.24750  1.0000 -0.5403004553
O   O18       1.0  0.42520  0.94900  0.84190  1.0000 -0.459931102
