# DDEC6 charges by PACMAN v1.1 (https://github.com/mtap-research/PACMAN-charge/)
data_2015[Pr][nan]3[FSR]1
_chemical_formula_sum              "Pr4 H30 C30 S2 N12 O36"
_cell_length_a       9.7887
_cell_length_b       10.0556
_cell_length_c       12.4566
_cell_angle_alpha    92.514
_cell_angle_beta     91.623
_cell_angle_gamma    91.495

_symmetry_space_group_name_H-M    "P 1"
_symmetry_Int_Tables_number       1

loop_
  _symmetry_equiv_pos_as_xyz
  'x, y, z'

loop_
  _atom_site_type_symbol
  _atom_site_label
  _atom_site_symmetry_multiplicity
  _atom_site_fract_x
  _atom_site_fract_y
  _atom_site_fract_z
  _atom_site_occupancy
  _atom_site_charge
Pr  Pr1       1.0  0.05483  0.08947  0.85520  1.0000 2.1031932175
Pr  Pr2       1.0  0.94517  0.91053  0.14480  1.0000 2.1031932175
Pr  Pr3       1.0  0.09728  0.33909  0.59430  1.0000 2.0129672824
Pr  Pr4       1.0  0.90272  0.66091  0.40570  1.0000 2.0129672824
H   H1        1.0  0.19930  0.79530  0.72060  1.0000 0.3300155341
H   H2        1.0  0.80070  0.20470  0.27940  1.0000 0.3300155341
H   H3        1.0  0.43150  0.16010  0.84070  1.0000 0.1555708586
H   H4        1.0  0.56850  0.83990  0.15930  1.0000 0.1555708586
H   H5        1.0  0.48040  0.07910  0.73890  1.0000 0.1495949109
H   H6        1.0  0.51960  0.92090  0.26110  1.0000 0.1495949109
H   H7        1.0  0.69500  0.30940  0.64140  1.0000 0.1495949109
H   H8        1.0  0.30500  0.69060  0.35860  1.0000 0.1495949109
H   H9        1.0  0.65020  0.15840  0.63500  1.0000 0.1495949109
H   H10       1.0  0.34980  0.84160  0.36500  1.0000 0.1495949109
H   H11       1.0  0.77400  0.87900  0.76970  1.0000 0.1397623931
H   H12       1.0  0.22600  0.12100  0.23030  1.0000 0.1397623931
H   H13       1.0  0.63460  0.85250  0.82590  1.0000 0.1495949109
H   H14       1.0  0.36540  0.14750  0.17410  1.0000 0.1495949109
H   H15       1.0  0.94200  0.70010  0.78020  1.0000 0.1495949109
H   H16       1.0  0.05800  0.29990  0.21980  1.0000 0.1495949109
H   H17       1.0  0.88930  0.55350  0.79410  1.0000 0.1495949109
H   H18       1.0  0.11070  0.44650  0.20590  1.0000 0.1495949109
H   H19       1.0  0.37160  0.76240  0.98020  1.0000 0.1495949109
H   H20       1.0  0.62840  0.23760  0.01980  1.0000 0.1495949109
H   H21       1.0  0.21970  0.72560  0.00460  1.0000 0.1495949109
H   H22       1.0  0.78030  0.27440  0.99540  1.0000 0.1495949109
H   H23       1.0  0.15820  0.52210  0.01200  1.0000 0.1397623931
H   H24       1.0  0.84180  0.47790  0.98800  1.0000 0.1397623931
H   H25       1.0  0.26630  0.41220  0.99470  1.0000 0.1397623931
H   H26       1.0  0.73370  0.58780  0.00530  1.0000 0.1397623931
H   H27       1.0  0.22200  0.60500  0.55800  1.0000 0.3300155341
H   H28       1.0  0.77800  0.39500  0.44200  1.0000 0.3300155341
H   H29       1.0  0.25800  0.58400  0.65900  1.0000 0.3375831782
H   H30       1.0  0.74200  0.41600  0.34100  1.0000 0.3375831782
C   C1        1.0  0.33120  0.21110  0.70190  1.0000 0.6587068378
C   C2        1.0  0.66880  0.78890  0.29810  1.0000 0.6587068378
C   C3        1.0  0.45470  0.16660  0.76590  1.0000 -0.2477658898
C   C4        1.0  0.54530  0.83340  0.23410  1.0000 -0.2477658898
C   C5        1.0  0.81210  0.19800  0.74100  1.0000 0.6524609416
C   C6        1.0  0.18790  0.80200  0.25900  1.0000 0.6524609416
C   C7        1.0  0.67910  0.23220  0.68390  1.0000 -0.2416659729
C   C8        1.0  0.32090  0.76780  0.31610  1.0000 -0.2416659729
C   C9        1.0  0.79880  0.86230  0.93320  1.0000 0.6524609416
C   C10       1.0  0.20120  0.13770  0.06680  1.0000 0.6524609416
C   C11       1.0  0.73000  0.82910  0.82460  1.0000 -0.2416659729
C   C12       1.0  0.27000  0.17090  0.17540  1.0000 -0.2416659729
C   C13       1.0  0.86570  0.61130  0.63980  1.0000 0.6437815367
C   C14       1.0  0.13430  0.38870  0.36020  1.0000 0.6437815367
C   C15       1.0  0.86890  0.63600  0.76020  1.0000 -0.2416659729
C   C16       1.0  0.13110  0.36400  0.23980  1.0000 -0.2416659729
C   C17       1.0  0.24030  0.79760  0.85540  1.0000 0.6437815367
C   C18       1.0  0.75970  0.20240  0.14460  1.0000 0.6437815367
C   C19       1.0  0.28820  0.72000  0.94990  1.0000 -0.2477658898
C   C20       1.0  0.71180  0.28000  0.05010  1.0000 -0.2477658898
C   C21       1.0  0.12490  0.41320  0.87120  1.0000 0.6727499008
C   C22       1.0  0.87510  0.58680  0.12880  1.0000 0.6727499008
C   C23       1.0  0.21620  0.48060  0.95920  1.0000 -0.2416659729
C   C24       1.0  0.78380  0.51940  0.04080  1.0000 -0.2416659729
C   C25       1.0  0.55720  0.38670  0.79730  1.0000 0.485564576
C   C26       1.0  0.44280  0.61330  0.20270  1.0000 0.485564576
C   C27       1.0  0.63780  0.59790  0.81290  1.0000 0.4770145356
C   C28       1.0  0.36220  0.40210  0.18710  1.0000 0.4770145356
C   C29       1.0  0.42860  0.54440  0.87680  1.0000 0.485564576
C   C30       1.0  0.57140  0.45560  0.12320  1.0000 0.485564576
S   S1        1.0  0.05660  0.93340  0.58150  1.0000 0.9715158879
S   S2        1.0  0.94340  0.06660  0.41850  1.0000 0.9559344589
N   N1        1.0  0.56990  0.26020  0.75800  1.0000 -0.047055012
N   N2        1.0  0.43010  0.73980  0.24200  1.0000 -0.047055012
N   N3        1.0  0.74130  0.68540  0.80040  1.0000 -0.0606055854
N   N4        1.0  0.25870  0.31460  0.19960  1.0000 -0.0606055854
N   N5        1.0  0.31390  0.58040  0.92600  1.0000 -0.0658259527
N   N6        1.0  0.68610  0.41960  0.07400  1.0000 -0.0606055854
N   N7        1.0  0.44250  0.41430  0.85060  1.0000 -0.5343547524
N   N8        1.0  0.55750  0.58570  0.14940  1.0000 -0.5395333828
N   N9        1.0  0.65860  0.47250  0.77840  1.0000 -0.5395333828
N   N10       1.0  0.34140  0.52750  0.22160  1.0000 -0.5395333828
N   N11       1.0  0.52250  0.64020  0.85810  1.0000 -0.5487766922
N   N12       1.0  0.47750  0.35980  0.14190  1.0000 -0.5487766922
O   O1        1.0  0.34560  0.28170  0.62280  1.0000 -0.5780183634
O   O2        1.0  0.65440  0.71830  0.37720  1.0000 -0.5780183634
O   O3        1.0  0.21280  0.17310  0.72890  1.0000 -0.7853509248
O   O4        1.0  0.78720  0.82690  0.27110  1.0000 -0.784691459
O   O5        1.0  0.92360  0.22540  0.69890  1.0000 -0.724336511
O   O6        1.0  0.07640  0.77460  0.30110  1.0000 -0.7295745274
O   O7        1.0  0.80790  0.13550  0.82710  1.0000 -0.6359051824
O   O8        1.0  0.19210  0.86450  0.17290  1.0000 -0.6359051824
O   O9        1.0  0.92160  0.90990  0.93720  1.0000 -0.7544872225
O   O10       1.0  0.07840  0.09010  0.06280  1.0000 -0.7544872225
O   O11       1.0  0.73880  0.83700  0.01660  1.0000 -0.5780183634
O   O12       1.0  0.26120  0.16300  0.98340  1.0000 -0.5780183634
O   O13       1.0  0.78330  0.67180  0.58300  1.0000 -0.5780183634
O   O14       1.0  0.21670  0.32820  0.41700  1.0000 -0.5780183634
O   O15       1.0  0.95090  0.53660  0.59790  1.0000 -0.6926265419
O   O16       1.0  0.04910  0.46340  0.40210  1.0000 -0.6926265419
O   O17       1.0  0.21550  0.91580  0.87450  1.0000 -0.6206489266
O   O18       1.0  0.78450  0.08420  0.12550  1.0000 -0.6206489266
O   O19       1.0  0.22550  0.74130  0.76360  1.0000 -0.3986450494
O   O20       1.0  0.77450  0.25870  0.23640  1.0000 -0.3986450494
O   O21       1.0  0.04340  0.32540  0.90440  1.0000 -0.6709382296
O   O22       1.0  0.95660  0.67460  0.09560  1.0000 -0.6709382296
O   O23       1.0  0.13540  0.44520  0.77560  1.0000 -0.6486653448
O   O24       1.0  0.86460  0.55480  0.22440  1.0000 -0.6486653448
O   O25       1.0  0.01030  0.94090  0.69210  1.0000 -0.6709382296
O   O26       1.0  0.98970  0.05910  0.30790  1.0000 -0.6709382296
O   O27       1.0  0.07550  0.06360  0.53450  1.0000 -0.113107393
O   O28       1.0  0.92450  0.93640  0.46550  1.0000 -0.113107393
O   O29       1.0  0.18750  0.86320  0.58190  1.0000 -0.2923367978
O   O30       1.0  0.81250  0.13680  0.41810  1.0000 -0.2923367978
O   O31       1.0  0.96060  0.85090  0.51450  1.0000 -0.0903261513
O   O32       1.0  0.03940  0.14910  0.48550  1.0000 -0.0903261513
O   O33       1.0  0.10660  0.73970  0.52270  1.0000 -0.3986450494
O   O34       1.0  0.89340  0.26030  0.47730  1.0000 -0.3986450494
O   O35       1.0  0.24650  0.54470  0.59770  1.0000 -0.7295745274
O   O36       1.0  0.75350  0.45530  0.40230  1.0000 -0.7295745274
