# DDEC6 charges by PACMAN v1.1 (https://github.com/mtap-research/PACMAN-charge/)
data_2015[Tb][nan]3[FSR]3
_chemical_formula_sum              "Tb8 H44 C48 N12 O70"
_cell_length_a       8.5627
_cell_length_b       14.078
_cell_length_c       20.297
_cell_angle_alpha    88.568
_cell_angle_beta     86.325
_cell_angle_gamma    81.382

_symmetry_space_group_name_H-M    "P 1"
_symmetry_Int_Tables_number       1

loop_
  _symmetry_equiv_pos_as_xyz
  'x, y, z'

loop_
  _atom_site_type_symbol
  _atom_site_label
  _atom_site_symmetry_multiplicity
  _atom_site_fract_x
  _atom_site_fract_y
  _atom_site_fract_z
  _atom_site_occupancy
  _atom_site_charge
Tb  Tb1       1.0  0.27365  0.76272  0.98096  1.0000 1.9092682808
Tb  Tb2       1.0  0.72635  0.23728  0.01904  1.0000 1.9092682808
Tb  Tb3       1.0  0.23516  0.48561  0.24797  1.0000 2.2001430004
Tb  Tb4       1.0  0.76484  0.51439  0.75203  1.0000 2.2001430004
Tb  Tb5       1.0  0.11784  0.76033  0.51433  1.0000 1.9337884396
Tb  Tb6       1.0  0.88216  0.23967  0.48567  1.0000 1.9337884396
Tb  Tb7       1.0  0.21131  0.02985  0.24113  1.0000 2.1456066578
Tb  Tb8       1.0  0.78869  0.97015  0.75887  1.0000 2.1456066578
H   H1        1.0  0.42020  0.64810  0.26680  1.0000 0.432447638
H   H2        1.0  0.57980  0.35190  0.73320  1.0000 0.432447638
H   H3        1.0  0.93010  0.62530  0.29750  1.0000 0.4357040807
H   H4        1.0  0.06990  0.37470  0.70250  1.0000 0.4357040807
H   H5        1.0  0.02190  0.67700  0.24290  1.0000 0.432447638
H   H6        1.0  0.97810  0.32300  0.75710  1.0000 0.432447638
H   H7        1.0  0.00150  0.36150  0.21380  1.0000 0.4183762778
H   H8        1.0  0.99850  0.63850  0.78620  1.0000 0.4183762778
H   H9        1.0  0.11670  0.35380  0.15160  1.0000 0.4106367736
H   H10       1.0  0.88330  0.64620  0.84840  1.0000 0.4106367736
H   H11       1.0  0.49590  0.59570  0.20380  1.0000 0.432447638
H   H12       1.0  0.50410  0.40430  0.79620  1.0000 0.432447638
H   H13       1.0  0.45440  0.30880  0.28170  1.0000 0.4357040807
H   H14       1.0  0.54560  0.69120  0.71830  1.0000 0.4357040807
H   H15       1.0  0.39260  0.34590  0.35109  1.0000 0.4106367736
H   H16       1.0  0.60740  0.65410  0.64891  1.0000 0.4106367736
H   H17       1.0  0.23440  0.90740  0.60910  1.0000 0.4183762778
H   H18       1.0  0.76560  0.09260  0.39090  1.0000 0.4183762778
H   H19       1.0  0.05140  0.92710  0.60830  1.0000 0.4005761839
H   H20       1.0  0.94860  0.07290  0.39170  1.0000 0.4005761839
H   H21       1.0  0.42930  0.12610  0.14130  1.0000 0.4005761839
H   H22       1.0  0.57070  0.87390  0.85870  1.0000 0.4005761839
H   H23       1.0  0.28120  0.20380  0.14630  1.0000 0.4005761839
H   H24       1.0  0.71880  0.79620  0.85370  1.0000 0.4005761839
H   H25       1.0  0.94960  0.15210  0.15940  1.0000 0.4106367736
H   H26       1.0  0.05040  0.84790  0.84060  1.0000 0.4106367736
H   H27       1.0  0.95960  0.20240  0.22570  1.0000 0.4183762778
H   H28       1.0  0.04040  0.79760  0.77430  1.0000 0.4183762778
H   H29       1.0  0.25400  0.23180  0.30690  1.0000 0.4106367736
H   H30       1.0  0.74600  0.76820  0.69310  1.0000 0.4106367736
H   H31       1.0  0.17970  0.16510  0.35770  1.0000 0.4106367736
H   H32       1.0  0.82030  0.83490  0.64230  1.0000 0.4106367736
H   H33       1.0  0.37740  0.93560  0.13120  1.0000 0.3879554107
H   H34       1.0  0.62260  0.06440  0.86880  1.0000 0.3879554107
H   H35       1.0  0.51300  0.98650  0.15350  1.0000 0.4005761839
H   H36       1.0  0.48700  0.01350  0.84650  1.0000 0.4005761839
H   H37       1.0  0.28510  0.84150  0.28510  1.0000 0.3537798359
H   H38       1.0  0.71490  0.15850  0.71490  1.0000 0.3537798359
H   H39       1.0  0.24660  0.83370  0.22030  1.0000 0.3613335698
H   H40       1.0  0.75340  0.16630  0.77970  1.0000 0.3613335698
H   H41       1.0  0.85240  0.01580  0.24700  1.0000 0.3879554107
H   H42       1.0  0.14760  0.98420  0.75300  1.0000 0.3879554107
H   H43       1.0  0.93690  0.02630  0.30180  1.0000 0.3537798359
H   H44       1.0  0.06310  0.97370  0.69820  1.0000 0.3537798359
C   C1        1.0  0.25210  0.58660  0.09150  1.0000 0.5983639567
C   C2        1.0  0.74790  0.41340  0.90850  1.0000 0.5983639567
C   C3        1.0  0.39000  0.53740  0.04640  1.0000 0.09072434
C   C4        1.0  0.61000  0.46260  0.95360  1.0000 0.09072434
C   C5        1.0  0.49210  0.45390  0.06080  1.0000 0.0720220096
C   C6        1.0  0.50790  0.54610  0.93920  1.0000 0.0720220096
C   C7        1.0  0.50700  0.38860  0.12160  1.0000 0.6177998542
C   C8        1.0  0.49300  0.61140  0.87840  1.0000 0.6177998542
C   C9        1.0  0.13000  0.93270  0.09090  1.0000 0.5877609461
C   C10       1.0  0.87000  0.06730  0.90910  1.0000 0.5877609461
C   C11       1.0  0.97600  0.91240  0.06290  1.0000 0.0720220096
C   C12       1.0  0.02400  0.08760  0.93710  1.0000 0.0720220096
C   C13       1.0  0.82200  0.95470  0.07600  1.0000 0.075784799
C   C14       1.0  0.17800  0.04530  0.92400  1.0000 0.075784799
C   C15       1.0  0.72100  0.84920  0.01630  1.0000 0.1070110857
C   C16       1.0  0.27900  0.15080  0.98370  1.0000 0.1070110857
C   C17       1.0  0.86500  0.80250  0.99690  1.0000 0.0264563843
C   C18       1.0  0.13500  0.19750  0.00310  1.0000 0.0264563843
C   C19       1.0  0.92100  0.71910  0.95200  1.0000 0.5808615296
C   C20       1.0  0.07900  0.28090  0.04800  1.0000 0.5808615296
C   C21       1.0  0.77900  0.04430  0.12030  1.0000 0.5983639567
C   C22       1.0  0.22100  0.95570  0.87970  1.0000 0.5983639567
C   C23       1.0  0.57400  0.81380  0.99730  1.0000 0.5683428555
C   C24       1.0  0.42600  0.18620  0.00270  1.0000 0.5683428555
C   C25       1.0  0.20400  0.58120  0.40190  1.0000 0.5983639567
C   C26       1.0  0.79600  0.41880  0.59810  1.0000 0.5983639567
C   C27       1.0  0.08800  0.53830  0.45300  1.0000 0.130848205
C   C28       1.0  0.91200  0.46170  0.54700  1.0000 0.130848205
C   C29       1.0  0.98010  0.54770  0.55800  1.0000 0.075784799
C   C30       1.0  0.01990  0.45230  0.44200  1.0000 0.075784799
C   C31       1.0  0.98600  0.60160  0.62230  1.0000 0.6177998542
C   C32       1.0  0.01400  0.39840  0.37770  1.0000 0.6177998542
C   C33       1.0  0.49100  0.02310  0.35330  1.0000 0.5877609461
C   C34       1.0  0.50900  0.97690  0.64670  1.0000 0.5877609461
C   C35       1.0  0.47800  0.94400  0.40650  1.0000 0.0456138983
C   C36       1.0  0.52200  0.05600  0.59350  1.0000 0.0456138983
C   C37       1.0  0.34600  0.90220  0.42720  1.0000 0.0720220096
C   C38       1.0  0.65400  0.09780  0.57280  1.0000 0.0720220096
C   C39       1.0  0.49800  0.80010  0.49490  1.0000 0.0720220096
C   C40       1.0  0.50200  0.19990  0.50510  1.0000 0.0720220096
C   C41       1.0  0.62600  0.83950  0.47470  1.0000 0.0720220096
C   C42       1.0  0.37400  0.16050  0.52530  1.0000 0.0720220096
C   C43       1.0  0.78800  0.80680  0.49760  1.0000 0.5808615296
C   C44       1.0  0.21200  0.19320  0.50240  1.0000 0.5808615296
C   C45       1.0  0.49700  0.71700  0.54390  1.0000 0.5683428555
C   C46       1.0  0.50300  0.28300  0.45610  1.0000 0.5683428555
C   C47       1.0  0.17700  0.93320  0.40230  1.0000 0.6076477378
C   C48       1.0  0.82300  0.06680  0.59770  1.0000 0.6076477378
N   N1        1.0  0.40040  0.58560  0.98800  1.0000 -0.3598044307
N   N2        1.0  0.59960  0.41440  0.01200  1.0000 -0.3598044307
N   N3        1.0  0.07210  0.57430  0.50830  1.0000 -0.2714248986
N   N4        1.0  0.92790  0.42570  0.49170  1.0000 -0.2714248986
N   N5        1.0  0.99960  0.83600  0.02290  1.0000 -0.3707366974
N   N6        1.0  0.00040  0.16400  0.97710  1.0000 -0.3707366974
N   N7        1.0  0.69460  0.92410  0.05650  1.0000 -0.2354685158
N   N8        1.0  0.30540  0.07590  0.94350  1.0000 -0.2354685158
N   N9        1.0  0.35680  0.83290  0.47230  1.0000 -0.3081678987
N   N10       1.0  0.64320  0.16710  0.52770  1.0000 -0.3081678987
N   N11       1.0  0.62280  0.91570  0.43110  1.0000 -0.2125724942
N   N12       1.0  0.37720  0.08430  0.56890  1.0000 -0.2125724942
O   O1        1.0  0.21270  0.67510  0.07920  1.0000 -0.607455931
O   O2        1.0  0.78730  0.32490  0.92080  1.0000 -0.607455931
O   O3        1.0  0.01800  0.61440  0.26400  1.0000 -0.8686451406
O   O4        1.0  0.98200  0.38560  0.73600  1.0000 -0.8686451406
O   O5        1.0  0.19000  0.54220  0.13580  1.0000 -0.6010778989
O   O6        1.0  0.81000  0.45780  0.86420  1.0000 -0.6010778989
O   O7        1.0  0.10580  0.37380  0.19670  1.0000 -0.8525156469
O   O8        1.0  0.89420  0.62620  0.80330  1.0000 -0.8525156469
O   O9        1.0  0.44010  0.41750  0.17520  1.0000 -0.6574564964
O   O10       1.0  0.55990  0.58250  0.82480  1.0000 -0.6574564964
O   O11       1.0  0.40230  0.60170  0.23428  1.0000 -0.8686451406
O   O12       1.0  0.59770  0.39830  0.76572  1.0000 -0.8686451406
O   O13       1.0  0.58950  0.31130  0.11400  1.0000 -0.5430162341
O   O14       1.0  0.41050  0.68870  0.88600  1.0000 -0.5430162341
O   O15       1.0  0.36320  0.34520  0.30550  1.0000 -0.840583095
O   O16       1.0  0.63680  0.65480  0.69450  1.0000 -0.840583095
O   O17       1.0  0.06420  0.68840  0.94330  1.0000 -0.6010778989
O   O18       1.0  0.93580  0.31160  0.05670  1.0000 -0.6010778989
O   O19       1.0  0.80790  0.69980  0.92010  1.0000 -0.528770128
O   O20       1.0  0.19210  0.30020  0.07990  1.0000 -0.528770128
O   O21       1.0  0.25520  0.89110  0.06470  1.0000 -0.5759321542
O   O22       1.0  0.74480  0.10890  0.93530  1.0000 -0.5759321542
O   O23       1.0  0.11140  0.98970  0.13640  1.0000 -0.6010778989
O   O24       1.0  0.88860  0.01030  0.86360  1.0000 -0.6010778989
O   O25       1.0  0.52560  0.74660  0.02920  1.0000 -0.5642654688
O   O26       1.0  0.47440  0.25340  0.97080  1.0000 -0.5642654688
O   O27       1.0  0.50000  0.85570  0.94930  1.0000 -0.607455931
O   O28       1.0  0.50000  0.14430  0.05070  1.0000 -0.607455931
O   O29       1.0  0.82870  0.11930  0.09470  1.0000 -0.6574564964
O   O30       1.0  0.17130  0.88070  0.90530  1.0000 -0.6574564964
O   O31       1.0  0.69840  0.03650  0.17430  1.0000 -0.4986540989
O   O32       1.0  0.30160  0.96350  0.82570  1.0000 -0.4986540989
O   O33       1.0  0.27390  0.53620  0.35570  1.0000 -0.6010778989
O   O34       1.0  0.72610  0.46380  0.64430  1.0000 -0.6010778989
O   O35       1.0  0.22400  0.66410  0.41770  1.0000 -0.6010778989
O   O36       1.0  0.77600  0.33590  0.58230  1.0000 -0.607455931
O   O37       1.0  0.02810  0.68160  0.61370  1.0000 -0.5690277607
O   O38       1.0  0.97190  0.31840  0.38630  1.0000 -0.5690277607
O   O39       1.0  0.95530  0.56230  0.67520  1.0000 -0.6166982443
O   O40       1.0  0.04470  0.43770  0.32480  1.0000 -0.6166982443
O   O41       1.0  0.34170  0.15200  0.17200  1.0000 -0.8223886878
O   O42       1.0  0.65830  0.84800  0.82800  1.0000 -0.8223886878
O   O43       1.0  0.02330  0.16220  0.19250  1.0000 -0.833273688
O   O44       1.0  0.97670  0.83780  0.80750  1.0000 -0.833273688
O   O45       1.0  0.19900  0.17540  0.31020  1.0000 -0.8525156469
O   O46       1.0  0.80100  0.82460  0.68980  1.0000 -0.8525156469
O   O47       1.0  0.43400  0.94700  0.16980  1.0000 -0.833273688
O   O48       1.0  0.56600  0.05300  0.83020  1.0000 -0.833273688
O   O49       1.0  0.14460  0.88310  0.59060  1.0000 -0.840583095
O   O50       1.0  0.85540  0.11690  0.40940  1.0000 -0.840583095
O   O51       1.0  0.45730  0.00750  0.29130  1.0000 -0.7238712699
O   O52       1.0  0.54270  0.99250  0.70870  1.0000 -0.7238712699
O   O53       1.0  0.55980  0.09180  0.36670  1.0000 -0.5142352373
O   O54       1.0  0.44020  0.90820  0.63330  1.0000 -0.5142352373
O   O55       1.0  0.07690  0.88570  0.43250  1.0000 -0.5935058088
O   O56       1.0  0.92310  0.11430  0.56750  1.0000 -0.5935058088
O   O57       1.0  0.14860  0.99970  0.36330  1.0000 -0.607455931
O   O58       1.0  0.85140  0.00030  0.63670  1.0000 -0.607455931
O   O59       1.0  0.21840  0.86130  0.25670  1.0000 -0.7587393314
O   O60       1.0  0.78160  0.13870  0.74330  1.0000 -0.7587393314
O   O61       1.0  0.36490  0.69330  0.55710  1.0000 -0.5935058088
O   O62       1.0  0.63510  0.30670  0.44290  1.0000 -0.5935058088
O   O63       1.0  0.94360  0.00680  0.26230  1.0000 -0.7837143928
O   O64       1.0  0.05640  0.99320  0.73770  1.0000 -0.7837143928
O   O65       1.0  0.62050  0.68270  0.56680  1.0000 -0.4986540989
O   O66       1.0  0.37950  0.31730  0.43320  1.0000 -0.4986540989
O   O67       1.0  0.84580  0.84220  0.54580  1.0000 -0.6010778989
O   O68       1.0  0.15420  0.15780  0.45420  1.0000 -0.6010778989
O   O69       1.0  0.87310  0.74030  0.45920  1.0000 -0.6574564964
O   O70       1.0  0.12690  0.25970  0.54080  1.0000 -0.6574564964
