# DDEC6 charges by PACMAN v1.1 (https://github.com/mtap-research/PACMAN-charge/)
data_2015[U][nan]3[FSR]2
_chemical_formula_sum              "U4 P4 H6 C16 O30"
_cell_length_a       9.7561
_cell_length_b       10.2852
_cell_length_c       11.0465
_cell_angle_alpha    95.127
_cell_angle_beta     95.109
_cell_angle_gamma    105.974

_symmetry_space_group_name_H-M    "P 1"
_symmetry_Int_Tables_number       1

loop_
  _symmetry_equiv_pos_as_xyz
  'x, y, z'

loop_
  _atom_site_type_symbol
  _atom_site_label
  _atom_site_symmetry_multiplicity
  _atom_site_fract_x
  _atom_site_fract_y
  _atom_site_fract_z
  _atom_site_occupancy
  _atom_site_charge
U   U1        1.0  0.33279  0.38788  0.36936  1.0000 2.5469547839
U   U2        1.0  0.66721  0.61212  0.63064  1.0000 2.5469547839
U   U3        1.0  0.13500  0.17206  0.82735  1.0000 2.5424998136
U   U4        1.0  0.86500  0.82794  0.17265  1.0000 2.5424998136
P   P1        1.0  0.05420  0.18340  0.14520  1.0000 1.4006970258
P   P2        1.0  0.94580  0.81660  0.85480  1.0000 1.4006970258
P   P3        1.0  0.63270  0.54130  0.29040  1.0000 1.3427294822
P   P4        1.0  0.36730  0.45870  0.70960  1.0000 1.3427294822
H   H1        1.0  0.65260  0.44650  0.87720  1.0000 0.3925296993
H   H2        1.0  0.34740  0.55350  0.12280  1.0000 0.3925296993
H   H3        1.0  0.88570  0.32340  0.01830  1.0000 0.1418705465
H   H4        1.0  0.11430  0.67660  0.98170  1.0000 0.1418705465
H   H5        1.0  0.80730  0.39790  0.42250  1.0000 0.1418705465
H   H6        1.0  0.19270  0.60210  0.57750  1.0000 0.1418705465
C   C1        1.0  0.94070  0.28640  0.19110  1.0000 -0.1823381751
C   C2        1.0  0.05930  0.71360  0.80890  1.0000 -0.1823381751
C   C3        1.0  0.87220  0.34140  0.09970  1.0000 -0.0679787031
C   C4        1.0  0.12780  0.65860  0.90030  1.0000 -0.0679787031
C   C5        1.0  0.78320  0.42370  0.13010  1.0000 -0.023917128
C   C6        1.0  0.21680  0.57630  0.86990  1.0000 -0.023917128
C   C7        1.0  0.75360  0.44590  0.25030  1.0000 -0.1823381751
C   C8        1.0  0.24640  0.55410  0.74970  1.0000 -0.1823381751
C   C9        1.0  0.82480  0.38520  0.34150  1.0000 -0.0679787031
C   C10       1.0  0.17520  0.61480  0.65850  1.0000 -0.0679787031
C   C11       1.0  0.91540  0.31120  0.31380  1.0000 -0.0275101072
C   C12       1.0  0.08460  0.68880  0.68620  1.0000 -0.0275101072
C   C13       1.0  0.98020  0.25700  0.41810  1.0000 0.5883101554
C   C14       1.0  0.01980  0.74300  0.58190  1.0000 0.5883101554
C   C15       1.0  0.72140  0.48680  0.03150  1.0000 0.5978229375
C   C16       1.0  0.27860  0.51320  0.96850  1.0000 0.5978229375
O   O1        1.0  0.39990  0.24770  0.39780  1.0000 -0.6294186502
O   O2        1.0  0.60010  0.75230  0.60220  1.0000 -0.6351248889
O   O3        1.0  0.26430  0.52930  0.35020  1.0000 -0.6716479926
O   O4        1.0  0.73570  0.47070  0.64980  1.0000 -0.6716479926
O   O5        1.0  0.27200  0.10690  0.88640  1.0000 -0.6294186502
O   O6        1.0  0.72800  0.89310  0.11360  1.0000 -0.6294186502
O   O7        1.0  0.00120  0.24370  0.77090  1.0000 -0.6294186502
O   O8        1.0  0.99880  0.75630  0.22910  1.0000 -0.6294186502
O   O9        1.0  0.03380  0.16470  0.00700  1.0000 -0.8087744384
O   O10       1.0  0.96620  0.83530  0.99300  1.0000 -0.8087744384
O   O11       1.0  0.20690  0.26560  0.19640  1.0000 -0.7994122176
O   O12       1.0  0.79310  0.73440  0.80360  1.0000 -0.7994122176
O   O13       1.0  0.01100  0.04910  0.20040  1.0000 -0.7815373807
O   O14       1.0  0.98900  0.95090  0.79960  1.0000 -0.7815373807
O   O15       1.0  0.11280  0.27350  0.43650  1.0000 -0.5974747806
O   O16       1.0  0.88720  0.72650  0.56350  1.0000 -0.5974747806
O   O17       1.0  0.89180  0.18860  0.47980  1.0000 -0.4050281911
O   O18       1.0  0.10820  0.81140  0.52020  1.0000 -0.4050281911
O   O19       1.0  0.69440  0.68680  0.27350  1.0000 -0.7428447275
O   O20       1.0  0.30560  0.31320  0.72650  1.0000 -0.7428447275
O   O21       1.0  0.48840  0.47150  0.21210  1.0000 -0.7749241261
O   O22       1.0  0.51160  0.52850  0.78790  1.0000 -0.7815373807
O   O23       1.0  0.60250  0.52140  0.42240  1.0000 -0.8742706148
O   O24       1.0  0.39750  0.47860  0.57760  1.0000 -0.8742706148
O   O25       1.0  0.64670  0.40600  0.93810  1.0000 -0.3755664496
O   O26       1.0  0.35330  0.59400  0.06190  1.0000 -0.3755664496
O   O27       1.0  0.73610  0.61000  0.04170  1.0000 -0.5390596359
O   O28       1.0  0.26390  0.39000  0.95830  1.0000 -0.5390596359
O   O29       1.0  0.13520  0.07850  0.61010  1.0000 0.121732253
O   O30       1.0  0.86480  0.92150  0.38990  1.0000 0.121732253
