# DDEC6 charges by PACMAN v1.1 (https://github.com/mtap-research/PACMAN-charge/)
data_2015[Co][nan]3[FSR]8
_chemical_formula_sum              "Co3 H46 C66 N20 O14"
_cell_length_a       10.051
_cell_length_b       17.77
_cell_length_c       17.9534
_cell_angle_alpha    67.25
_cell_angle_beta     74.928
_cell_angle_gamma    81.569

_symmetry_space_group_name_H-M    "P 1"
_symmetry_Int_Tables_number       1

loop_
  _symmetry_equiv_pos_as_xyz
  'x, y, z'

loop_
  _atom_site_type_symbol
  _atom_site_label
  _atom_site_symmetry_multiplicity
  _atom_site_fract_x
  _atom_site_fract_y
  _atom_site_fract_z
  _atom_site_occupancy
  _atom_site_charge
Co  Co1       1.0  0.70228  0.43109  0.48700  1.0000 0.8684941486
Co  Co2       1.0  0.29772  0.56891  0.51300  1.0000 0.8684941486
Co  Co3       1.0  0.50000  0.00000  0.50000  1.0000 0.901930149
H   H1        1.0  0.07430  0.23520  0.46270  1.0000 0.12061671
H   H2        1.0  0.92570  0.76480  0.53730  1.0000 0.12061671
H   H3        1.0  0.44730  0.25140  0.49510  1.0000 0.12061671
H   H4        1.0  0.55270  0.74860  0.50490  1.0000 0.12061671
H   H5        1.0  0.14230  0.41760  0.52510  1.0000 0.12061671
H   H6        1.0  0.85770  0.58240  0.47490  1.0000 0.12061671
H   H7        1.0  0.76550  0.55030  0.28230  1.0000 0.12061671
H   H8        1.0  0.23450  0.44970  0.71770  1.0000 0.12061671
H   H9        1.0  0.68200  0.32200  0.38550  1.0000 0.12061671
H   H10       1.0  0.31800  0.67800  0.61450  1.0000 0.12061671
H   H11       1.0  0.80720  0.41160  0.11670  1.0000 0.129046622
H   H12       1.0  0.19280  0.58840  0.88330  1.0000 0.129046622
H   H13       1.0  0.84390  0.47680  0.97640  1.0000 0.129046622
H   H14       1.0  0.15610  0.52320  0.02360  1.0000 0.129046622
H   H15       1.0  0.74860  0.69230  0.00330  1.0000 0.129046622
H   H16       1.0  0.25140  0.30770  0.99670  1.0000 0.129046622
H   H17       1.0  0.71670  0.62680  0.14520  1.0000 0.129046622
H   H18       1.0  0.28330  0.37320  0.85480  1.0000 0.129046622
H   H19       1.0  0.84090  0.73640  0.73860  1.0000 0.1382775809
H   H20       1.0  0.15910  0.26360  0.26140  1.0000 0.1382775809
H   H21       1.0  0.98540  0.84340  0.66340  1.0000 0.1382775809
H   H22       1.0  0.01460  0.15660  0.33660  1.0000 0.1382775809
H   H23       1.0  0.14570  0.79570  0.85870  1.0000 0.129046622
H   H24       1.0  0.85430  0.20430  0.14130  1.0000 0.129046622
H   H25       1.0  0.00510  0.68750  0.93340  1.0000 0.12061671
H   H26       1.0  0.99490  0.31250  0.06660  1.0000 0.12061671
H   H27       1.0  0.24750  0.87600  0.59540  1.0000 0.129046622
H   H28       1.0  0.75250  0.12400  0.40460  1.0000 0.129046622
H   H29       1.0  0.35260  0.02280  0.67830  1.0000 0.1382775809
H   H30       1.0  0.64740  0.97720  0.32170  1.0000 0.1382775809
H   H31       1.0  0.98320  0.58800  0.76590  1.0000 0.12061671
H   H32       1.0  0.01680  0.41200  0.23410  1.0000 0.12061671
H   H33       1.0  0.92700  0.51940  0.69390  1.0000 0.129046622
H   H34       1.0  0.07300  0.48060  0.30610  1.0000 0.129046622
H   H35       1.0  0.54180  0.50170  0.83190  1.0000 0.129046622
H   H36       1.0  0.45820  0.49830  0.16810  1.0000 0.129046622
H   H37       1.0  0.60040  0.56820  0.90500  1.0000 0.129046622
H   H38       1.0  0.39960  0.43180  0.09500  1.0000 0.129046622
H   H39       1.0  0.84730  0.47670  0.60790  1.0000 0.129046622
H   H40       1.0  0.15270  0.52330  0.39210  1.0000 0.129046622
H   H41       1.0  0.49080  0.38470  0.67050  1.0000 0.1088892316
H   H42       1.0  0.50920  0.61530  0.32950  1.0000 0.1088892316
H   H43       1.0  0.36450  0.03510  0.38340  1.0000 0.4114216224
H   H44       1.0  0.63550  0.96490  0.61660  1.0000 0.4114216224
H   H45       1.0  0.28680  0.96670  0.46200  1.0000 0.3976175145
H   H46       1.0  0.71320  0.03330  0.53800  1.0000 0.3976175145
C   C1        1.0  0.94330  0.36698  0.48834  1.0000 0.535251315
C   C2        1.0  0.05670  0.63302  0.51166  1.0000 0.535251315
C   C3        1.0  0.08690  0.33172  0.49231  1.0000 -0.0217477826
C   C4        1.0  0.91310  0.66828  0.50769  1.0000 -0.0217477826
C   C5        1.0  0.13320  0.26144  0.47590  1.0000 -0.1255363978
C   C6        1.0  0.86680  0.73856  0.52410  1.0000 -0.1255363978
C   C7        1.0  0.26770  0.22972  0.47920  1.0000 -0.0116248254
C   C8        1.0  0.73230  0.77028  0.52080  1.0000 -0.0116248254
C   C9        1.0  0.35620  0.27110  0.49560  1.0000 -0.1232901558
C   C10       1.0  0.64380  0.72890  0.50440  1.0000 -0.1232901558
C   C11       1.0  0.31150  0.34150  0.51279  1.0000 -0.035952267
C   C12       1.0  0.68850  0.65850  0.48721  1.0000 -0.035952267
C   C13       1.0  0.17460  0.37131  0.51218  1.0000 -0.1481131607
C   C14       1.0  0.82540  0.62869  0.48782  1.0000 -0.1481131607
C   C15       1.0  0.31610  0.15142  0.46310  1.0000 0.5638880686
C   C16       1.0  0.68390  0.84858  0.53690  1.0000 0.5638880686
C   C17       1.0  0.40790  0.38854  0.52785  1.0000 0.5734336928
C   C18       1.0  0.59210  0.61146  0.47215  1.0000 0.5734336928
C   C19       1.0  0.74650  0.49740  0.29110  1.0000 0.0911680062
C   C20       1.0  0.25350  0.50260  0.70890  1.0000 0.0911680062
C   C21       1.0  0.70200  0.37350  0.34540  1.0000 0.1613321508
C   C22       1.0  0.29800  0.62650  0.65460  1.0000 0.1613321508
C   C23       1.0  0.75830  0.51360  0.14440  1.0000 0.12061671
C   C24       1.0  0.24170  0.48640  0.85560  1.0000 0.12061671
C   C25       1.0  0.79660  0.46820  0.09380  1.0000 -0.1579273586
C   C26       1.0  0.20340  0.53180  0.90620  1.0000 -0.1579273586
C   C27       1.0  0.81860  0.50740  0.01030  1.0000 -0.1767601787
C   C28       1.0  0.18140  0.49260  0.98970  1.0000 -0.1767601787
C   C29       1.0  0.80430  0.59120  0.97470  1.0000 0.1613321508
C   C30       1.0  0.19570  0.40880  0.02530  1.0000 0.1613321508
C   C31       1.0  0.76260  0.63580  0.02600  1.0000 -0.1694744005
C   C32       1.0  0.23740  0.36420  0.97400  1.0000 -0.1694744005
C   C33       1.0  0.74180  0.59660  0.11090  1.0000 -0.1694744005
C   C34       1.0  0.25820  0.40340  0.88910  1.0000 -0.1694744005
C   C35       1.0  0.90970  0.69940  0.84430  1.0000 0.1737934307
C   C36       1.0  0.09030  0.30060  0.15570  1.0000 0.1737934307
C   C37       1.0  0.90340  0.74740  0.76280  1.0000 -0.1579273586
C   C38       1.0  0.09660  0.25260  0.23720  1.0000 -0.1579273586
C   C39       1.0  0.99000  0.81150  0.71770  1.0000 -0.1694744005
C   C40       1.0  0.01000  0.18850  0.28230  1.0000 -0.1694744005
C   C41       1.0  0.08190  0.82790  0.75270  1.0000 0.12061671
C   C42       1.0  0.91810  0.17210  0.24730  1.0000 0.12061671
C   C43       1.0  0.08590  0.78280  0.83410  1.0000 -0.1481131607
C   C44       1.0  0.91410  0.21720  0.16590  1.0000 -0.1481131607
C   C45       1.0  0.00070  0.71850  0.87880  1.0000 -0.186655902
C   C46       1.0  0.99930  0.28150  0.12120  1.0000 -0.186655902
C   C47       1.0  0.25340  0.90400  0.62860  1.0000 0.1088892316
C   C48       1.0  0.74660  0.09600  0.37140  1.0000 0.1088892316
C   C49       1.0  0.30740  0.98260  0.67500  1.0000 0.1843001352
C   C50       1.0  0.69260  0.01740  0.32500  1.0000 0.1843001352
C   C51       1.0  0.79640  0.58740  0.84130  1.0000 0.1613321508
C   C52       1.0  0.20360  0.41260  0.15870  1.0000 0.1613321508
C   C53       1.0  0.89390  0.57110  0.77900  1.0000 -0.1694744005
C   C54       1.0  0.10610  0.42890  0.22100  1.0000 -0.1694744005
C   C55       1.0  0.86050  0.53020  0.73590  1.0000 -0.1579273586
C   C56       1.0  0.13950  0.46980  0.26410  1.0000 -0.1579273586
C   C57       1.0  0.72910  0.50540  0.75480  1.0000 0.129046622
C   C58       1.0  0.27090  0.49460  0.24520  1.0000 0.129046622
C   C59       1.0  0.63060  0.51940  0.81840  1.0000 -0.1481131607
C   C60       1.0  0.36940  0.48060  0.18160  1.0000 -0.1481131607
C   C61       1.0  0.66580  0.55950  0.86140  1.0000 -0.1694744005
C   C62       1.0  0.33420  0.44050  0.13860  1.0000 -0.1694744005
C   C63       1.0  0.75870  0.45964  0.63584  1.0000 0.1088892316
C   C64       1.0  0.24130  0.54036  0.36416  1.0000 0.1088892316
C   C65       1.0  0.56470  0.41020  0.67120  1.0000 0.1537885026
C   C66       1.0  0.43530  0.58980  0.32880  1.0000 0.1537885026
N   N1        1.0  0.72260  0.43716  0.36426  1.0000 -0.3091458126
N   N2        1.0  0.27740  0.56284  0.63574  1.0000 -0.3091458126
N   N3        1.0  0.73920  0.47128  0.23212  1.0000 0.0911680062
N   N4        1.0  0.26080  0.52872  0.76788  1.0000 0.0911680062
N   N5        1.0  0.71240  0.38974  0.26687  1.0000 -0.2664217695
N   N6        1.0  0.28760  0.61026  0.73313  1.0000 -0.2664217695
N   N7        1.0  0.82910  0.63067  0.88665  1.0000 -0.186655902
N   N8        1.0  0.17090  0.36933  0.11335  1.0000 -0.186655902
N   N9        1.0  0.17860  0.89019  0.70420  1.0000 0.12061671
N   N10       1.0  0.82140  0.10981  0.29580  1.0000 0.1088892316
N   N11       1.0  0.21220  0.94210  0.73500  1.0000 -0.2395295321
N   N12       1.0  0.78780  0.05790  0.26500  1.0000 -0.2395295321
N   N13       1.0  0.33720  0.96249  0.60671  1.0000 -0.3259769126
N   N14       1.0  0.66280  0.03751  0.39329  1.0000 -0.3259769126
N   N15       1.0  0.68050  0.42519  0.61040  1.0000 -0.3169185563
N   N16       1.0  0.31950  0.57481  0.38960  1.0000 -0.3169185563
N   N17       1.0  0.69150  0.46622  0.70764  1.0000 0.129046622
N   N18       1.0  0.30850  0.53378  0.29236  1.0000 0.129046622
N   N19       1.0  0.56510  0.43470  0.73122  1.0000 -0.2598545893
N   N20       1.0  0.43490  0.56530  0.26878  1.0000 -0.2598545893
O   O1        1.0  0.84650  0.32115  0.50472  1.0000 -0.5391023948
O   O2        1.0  0.15350  0.67885  0.49528  1.0000 -0.5391023948
O   O3        1.0  0.92080  0.44301  0.46885  1.0000 -0.5543686196
O   O4        1.0  0.07920  0.55699  0.53115  1.0000 -0.5543686196
O   O5        1.0  0.23760  0.12202  0.43930  1.0000 -0.5878788277
O   O6        1.0  0.76240  0.87798  0.56070  1.0000 -0.5878788277
O   O7        1.0  0.43140  0.12114  0.47670  1.0000 -0.5779029324
O   O8        1.0  0.56860  0.87886  0.52330  1.0000 -0.5779029324
O   O9        1.0  0.36000  0.44917  0.54775  1.0000 -0.5779029324
O   O10       1.0  0.64000  0.55083  0.45225  1.0000 -0.5779029324
O   O11       1.0  0.53280  0.36432  0.51821  1.0000 -0.5391023948
O   O12       1.0  0.46720  0.63568  0.48179  1.0000 -0.5391023948
O   O13       1.0  0.37560  0.98416  0.42747  1.0000 -0.7418269857
O   O14       1.0  0.62440  0.01584  0.57253  1.0000 -0.7418269857
