# DDEC6 charges by PACMAN v1.1 (https://github.com/mtap-research/PACMAN-charge/)
data_2015[Tb][nan]3[FSR]9
_chemical_formula_sum              "Tb4 H24 C32 N4 O34"
_cell_length_a       7.6957
_cell_length_b       10.2182
_cell_length_c       15.9408
_cell_angle_alpha    86.945
_cell_angle_beta     86.035
_cell_angle_gamma    76.831

_symmetry_space_group_name_H-M    "P 1"
_symmetry_Int_Tables_number       1

loop_
  _symmetry_equiv_pos_as_xyz
  'x, y, z'

loop_
  _atom_site_type_symbol
  _atom_site_label
  _atom_site_symmetry_multiplicity
  _atom_site_fract_x
  _atom_site_fract_y
  _atom_site_fract_z
  _atom_site_occupancy
  _atom_site_charge
Tb  Tb1       1.0  0.35401  0.33674  0.06341  1.0000 2.0239006286
Tb  Tb2       1.0  0.64599  0.66326  0.93659  1.0000 2.0239006286
Tb  Tb3       1.0  0.61275  0.87052  0.32443  1.0000 1.9702051883
Tb  Tb4       1.0  0.38725  0.12948  0.67557  1.0000 1.9702051883
H   H1        1.0  0.60900  0.34700  0.19690  1.0000 0.366882265
H   H2        1.0  0.39100  0.65300  0.80310  1.0000 0.366882265
H   H3        1.0  0.66300  0.40800  0.12300  1.0000 0.385329843
H   H4        1.0  0.33700  0.59200  0.87700  1.0000 0.385329843
H   H5        1.0  0.32700  0.13000  0.94300  1.0000 0.3766089086
H   H6        1.0  0.67300  0.87000  0.05700  1.0000 0.3766089086
H   H7        1.0  0.23000  0.24800  0.90700  1.0000 0.3766089086
H   H8        1.0  0.77000  0.75200  0.09300  1.0000 0.3766089086
H   H9        1.0  0.79000  0.65700  0.43700  1.0000 0.366882265
H   H10       1.0  0.21000  0.34300  0.56300  1.0000 0.366882265
H   H11       1.0  0.89400  0.75100  0.44400  1.0000 0.385329843
H   H12       1.0  0.10600  0.24900  0.55600  1.0000 0.385329843
H   H13       1.0  0.16200  0.52570  0.70580  1.0000 0.1391004701
H   H14       1.0  0.83800  0.47430  0.29420  1.0000 0.1391004701
H   H15       1.0  0.90870  0.64420  0.63970  1.0000 0.1466335063
H   H16       1.0  0.09130  0.35580  0.36030  1.0000 0.1466335063
H   H17       1.0  0.66620  0.54430  0.63110  1.0000 0.1466335063
H   H18       1.0  0.33380  0.45570  0.36890  1.0000 0.1466335063
H   H19       1.0  0.09590  0.88030  0.80940  1.0000 0.1391004701
H   H20       1.0  0.90410  0.11970  0.19060  1.0000 0.1391004701
H   H21       1.0  0.92370  0.88560  0.93630  1.0000 0.1391004701
H   H22       1.0  0.07630  0.11440  0.06370  1.0000 0.1391004701
H   H23       1.0  0.75270  0.09070  0.98180  1.0000 0.1391004701
H   H24       1.0  0.24730  0.90930  0.01820  1.0000 0.1391004701
C   C1        1.0  0.06010  0.48800  0.70520  1.0000 -0.0249466668
C   C2        1.0  0.93990  0.51200  0.29480  1.0000 -0.0249466668
C   C3        1.0  0.91120  0.55740  0.66480  1.0000 -0.1058451678
C   C4        1.0  0.08880  0.44260  0.33520  1.0000 -0.1058451678
C   C5        1.0  0.76630  0.49970  0.66140  1.0000 -0.0730018909
C   C6        1.0  0.23370  0.50030  0.33860  1.0000 -0.0730018909
C   C7        1.0  0.76740  0.37650  0.70220  1.0000 -0.0523038558
C   C8        1.0  0.23260  0.62350  0.29780  1.0000 -0.0523038558
C   C9        1.0  0.91450  0.31420  0.74680  1.0000 0.0828634058
C   C10       1.0  0.08550  0.68580  0.25320  1.0000 0.0828634058
C   C11       1.0  0.62100  0.30130  0.69430  1.0000 0.5932499175
C   C12       1.0  0.37900  0.69870  0.30570  1.0000 0.5932499175
C   C13       1.0  0.02320  0.96280  0.82810  1.0000 0.0086482372
C   C14       1.0  0.97680  0.03720  0.17190  1.0000 0.0086482372
C   C15       1.0  0.92310  0.96600  0.90330  1.0000 -0.1152492385
C   C16       1.0  0.07690  0.03400  0.09670  1.0000 -0.1152492385
C   C17       1.0  0.82210  0.08750  0.93000  1.0000 -0.057719003
C   C18       1.0  0.17790  0.91250  0.07000  1.0000 -0.057719003
C   C19       1.0  0.82030  0.20420  0.88260  1.0000 -0.057719003
C   C20       1.0  0.17970  0.79580  0.11740  1.0000 -0.057719003
C   C21       1.0  0.91880  0.19770  0.80590  1.0000 0.0888964836
C   C22       1.0  0.08120  0.80230  0.19410  1.0000 0.0888964836
C   C23       1.0  0.71210  0.34000  0.91210  1.0000 0.6553677325
C   C24       1.0  0.28790  0.66000  0.08790  1.0000 0.6553677325
C   C25       1.0  0.95000  0.46690  0.03620  1.0000 0.4984774594
C   C26       1.0  0.05000  0.53310  0.96380  1.0000 0.4984774594
C   C27       1.0  0.42730  0.95880  0.50650  1.0000 0.5086824899
C   C28       1.0  0.57270  0.04120  0.49350  1.0000 0.5086824899
C   C29       1.0  0.51050  0.06080  0.15840  1.0000 0.4928706293
C   C30       1.0  0.48950  0.93920  0.84160  1.0000 0.4928706293
C   C31       1.0  0.38830  0.14270  0.22650  1.0000 0.4840801959
C   C32       1.0  0.61170  0.85730  0.77350  1.0000 0.4840801959
N   N1        1.0  0.06150  0.36770  0.74350  1.0000 0.2740728264
N   N2        1.0  0.93850  0.63230  0.25650  1.0000 0.2740728264
N   N3        1.0  0.01760  0.07730  0.78130  1.0000 0.3045230661
N   N4        1.0  0.98240  0.92270  0.21870  1.0000 0.3045230661
O   O1        1.0  0.21020  0.29600  0.77690  1.0000 -0.5703005587
O   O2        1.0  0.78980  0.70400  0.22310  1.0000 -0.5703005587
O   O3        1.0  0.10490  0.07100  0.70580  1.0000 -0.579324245
O   O4        1.0  0.89510  0.92900  0.29420  1.0000 -0.579324245
O   O5        1.0  0.48940  0.35480  0.65150  1.0000 -0.6218996043
O   O6        1.0  0.51060  0.64520  0.34850  1.0000 -0.6218996043
O   O7        1.0  0.63860  0.18600  0.72860  1.0000 -0.5907416935
O   O8        1.0  0.36140  0.81400  0.27140  1.0000 -0.5907416935
O   O9        1.0  0.75420  0.44400  0.88250  1.0000 -0.6218996043
O   O10       1.0  0.24580  0.55600  0.11750  1.0000 -0.6218996043
O   O11       1.0  0.58850  0.33660  0.96860  1.0000 -0.6975287194
O   O12       1.0  0.41150  0.66340  0.03140  1.0000 -0.6975287194
O   O13       1.0  0.78500  0.51620  0.04740  1.0000 -0.5907416935
O   O14       1.0  0.21500  0.48380  0.95260  1.0000 -0.5907416935
O   O15       1.0  0.03910  0.37120  0.07820  1.0000 -0.579324245
O   O16       1.0  0.96090  0.62880  0.92180  1.0000 -0.579324245
O   O17       1.0  0.33880  0.96940  0.57680  1.0000 -0.5907416935
O   O18       1.0  0.66120  0.03060  0.42320  1.0000 -0.5907416935
O   O19       1.0  0.40650  0.89050  0.44680  1.0000 -0.5703005587
O   O20       1.0  0.59350  0.10950  0.55320  1.0000 -0.5703005587
O   O21       1.0  0.39640  0.09050  0.29990  1.0000 -0.5640023942
O   O22       1.0  0.60360  0.90950  0.70010  1.0000 -0.5640023942
O   O23       1.0  0.61360  0.95440  0.18160  1.0000 -0.5703005587
O   O24       1.0  0.38640  0.04560  0.81840  1.0000 -0.5703005587
O   O25       1.0  0.29080  0.25180  0.20250  1.0000 -0.5968556399
O   O26       1.0  0.70920  0.74820  0.79750  1.0000 -0.5968556399
O   O27       1.0  0.49910  0.10700  0.08320  1.0000 -0.6076748963
O   O28       1.0  0.50090  0.89300  0.91680  1.0000 -0.6076748963
O   O29       1.0  0.59600  0.35960  0.14450  1.0000 -0.7494140263
O   O30       1.0  0.40400  0.64040  0.85550  1.0000 -0.7494140263
O   O31       1.0  0.27480  0.21060  0.95220  1.0000 -0.7559002037
O   O32       1.0  0.72520  0.78940  0.04780  1.0000 -0.7559002037
O   O33       1.0  0.80210  0.73590  0.42290  1.0000 -0.7494140263
O   O34       1.0  0.19790  0.26410  0.57710  1.0000 -0.7494140263
