# DDEC6 charges by PACMAN v1.1 (https://github.com/mtap-research/PACMAN-charge/)
data_2015[Zn][pcu]3[FSR]16
_chemical_formula_sum              "Zn16 H208 C320 N32 O80"
_cell_length_a       19.722
_cell_length_b       28.0588
_cell_length_c       28.0835
_cell_angle_alpha    90
_cell_angle_beta     94.423
_cell_angle_gamma    90

_symmetry_space_group_name_H-M    "P 1"
_symmetry_Int_Tables_number       1

loop_
  _symmetry_equiv_pos_as_xyz
  'x, y, z'

loop_
  _atom_site_type_symbol
  _atom_site_label
  _atom_site_symmetry_multiplicity
  _atom_site_fract_x
  _atom_site_fract_y
  _atom_site_fract_z
  _atom_site_occupancy
  _atom_site_charge
Zn  Zn1       1.0  0.39004  0.25358  0.66131  1.0000 0.8212916165
Zn  Zn2       1.0  0.39004  0.24642  0.16131  1.0000 0.8212916165
Zn  Zn3       1.0  0.39189  0.25065  0.55708  1.0000 0.8212916165
Zn  Zn4       1.0  0.39189  0.24935  0.05708  1.0000 0.8212916165
Zn  Zn5       1.0  0.89337  0.74742  0.65309  1.0000 0.8212916165
Zn  Zn6       1.0  0.89337  0.75258  0.15309  1.0000 0.8212916165
Zn  Zn7       1.0  0.88477  0.75183  0.54834  1.0000 0.8212916165
Zn  Zn8       1.0  0.88477  0.74817  0.04834  1.0000 0.8212916165
Zn  Zn9       1.0  0.60996  0.75358  0.83869  1.0000 0.8212916165
Zn  Zn10      1.0  0.60996  0.74642  0.33869  1.0000 0.8212916165
Zn  Zn11      1.0  0.60811  0.75065  0.94292  1.0000 0.8212916165
Zn  Zn12      1.0  0.60811  0.74935  0.44292  1.0000 0.8212916165
Zn  Zn13      1.0  0.10663  0.24742  0.84691  1.0000 0.8212916165
Zn  Zn14      1.0  0.10663  0.25258  0.34691  1.0000 0.8212916165
Zn  Zn15      1.0  0.11523  0.25183  0.95166  1.0000 0.8212916165
Zn  Zn16      1.0  0.11523  0.24817  0.45166  1.0000 0.8212916165
H   H1        1.0  0.12820  0.48680  0.63070  1.0000 0.2784591898
H   H2        1.0  0.12820  0.01320  0.13070  1.0000 0.2784591898
H   H3        1.0  0.61050  0.52180  0.63960  1.0000 0.2784591898
H   H4        1.0  0.61050  0.97820  0.13960  1.0000 0.2784591898
H   H5        1.0  0.18260  0.97980  0.57170  1.0000 0.2716785654
H   H6        1.0  0.18260  0.52020  0.07170  1.0000 0.2716785654
H   H7        1.0  0.65160  0.01310  0.58150  1.0000 0.2716785654
H   H8        1.0  0.65160  0.48690  0.08150  1.0000 0.2716785654
H   H9        1.0  0.28980  0.25300  0.73670  1.0000 0.1108882747
H   H10       1.0  0.28980  0.24700  0.23670  1.0000 0.1108882747
H   H11       1.0  0.28800  0.25050  0.81920  1.0000 0.1389449657
H   H12       1.0  0.28800  0.24950  0.31920  1.0000 0.1389449657
H   H13       1.0  0.49380  0.25160  0.82860  1.0000 0.1309905019
H   H14       1.0  0.49380  0.24840  0.32860  1.0000 0.1309905019
H   H15       1.0  0.48960  0.25270  0.74600  1.0000 0.1213963098
H   H16       1.0  0.48960  0.24730  0.24600  1.0000 0.1213963098
H   H17       1.0  0.30900  0.28880  0.97320  1.0000 0.1213963098
H   H18       1.0  0.30900  0.21120  0.47320  1.0000 0.1213963098
H   H19       1.0  0.30630  0.29050  0.89130  1.0000 0.1309905019
H   H20       1.0  0.30630  0.20950  0.39130  1.0000 0.1309905019
H   H21       1.0  0.47750  0.21090  0.89930  1.0000 0.1389449657
H   H22       1.0  0.47750  0.28910  0.39930  1.0000 0.1309905019
H   H23       1.0  0.47460  0.21170  0.98100  1.0000 0.1213963098
H   H24       1.0  0.47460  0.28830  0.48100  1.0000 0.1213963098
H   H25       1.0  0.84480  0.68610  0.73000  1.0000 0.1213963098
H   H26       1.0  0.84480  0.81390  0.23000  1.0000 0.1213963098
H   H27       1.0  0.84270  0.68460  0.81190  1.0000 0.1389449657
H   H28       1.0  0.84270  0.81540  0.31190  1.0000 0.1389449657
H   H29       1.0  0.93230  0.81270  0.81730  1.0000 0.1389449657
H   H30       1.0  0.93230  0.68730  0.31730  1.0000 0.1389449657
H   H31       1.0  0.92720  0.81230  0.73460  1.0000 0.1213963098
H   H32       1.0  0.92720  0.68770  0.23460  1.0000 0.1213963098
H   H33       1.0  0.79830  0.71460  0.96330  1.0000 0.1108882747
H   H34       1.0  0.79830  0.78540  0.46330  1.0000 0.1108882747
H   H35       1.0  0.79980  0.71250  0.88020  1.0000 0.1309905019
H   H36       1.0  0.79980  0.78750  0.38020  1.0000 0.1309905019
H   H37       1.0  0.97580  0.78640  0.89260  1.0000 0.1389449657
H   H38       1.0  0.97580  0.71360  0.39260  1.0000 0.1389449657
H   H39       1.0  0.97280  0.78350  0.97400  1.0000 0.1213963098
H   H40       1.0  0.97280  0.71650  0.47400  1.0000 0.1213963098
H   H41       1.0  0.23360  0.35860  0.67160  1.0000 0.1213963098
H   H42       1.0  0.23360  0.14140  0.17160  1.0000 0.1213963098
H   H43       1.0  0.15590  0.42030  0.66500  1.0000 0.1108882747
H   H44       1.0  0.15590  0.07970  0.16500  1.0000 0.1108882747
H   H45       1.0  0.12570  0.39650  0.52210  1.0000 0.1213963098
H   H46       1.0  0.12570  0.10350  0.02210  1.0000 0.1213963098
H   H47       1.0  0.20640  0.33540  0.52960  1.0000 0.1213963098
H   H48       1.0  0.20640  0.16460  0.02960  1.0000 0.1213963098
H   H49       1.0  0.02690  0.53450  0.53360  1.0000 0.1389449657
H   H50       1.0  0.02690  0.96550  0.03360  1.0000 0.1389449657
H   H51       1.0  0.98100  0.61440  0.53080  1.0000 0.1213963098
H   H52       1.0  0.98100  0.88560  0.03080  1.0000 0.1213963098
H   H53       1.0  0.00770  0.61940  0.67170  1.0000 0.1309905019
H   H54       1.0  0.00770  0.88060  0.17170  1.0000 0.1309905019
H   H55       1.0  0.07200  0.55180  0.67530  1.0000 0.1309905019
H   H56       1.0  0.07200  0.94820  0.17530  1.0000 0.1309905019
H   H57       1.0  0.48280  0.38900  0.53900  1.0000 0.1213963098
H   H58       1.0  0.48280  0.11100  0.03900  1.0000 0.1213963098
H   H59       1.0  0.52720  0.46660  0.53980  1.0000 0.1480523556
H   H60       1.0  0.52720  0.03340  0.03980  1.0000 0.1480523556
H   H61       1.0  0.55360  0.46020  0.68390  1.0000 0.1309905019
H   H62       1.0  0.55360  0.03980  0.18390  1.0000 0.1309905019
H   H63       1.0  0.50480  0.38540  0.68240  1.0000 0.1309905019
H   H64       1.0  0.50480  0.11460  0.18240  1.0000 0.1309905019
H   H65       1.0  0.61820  0.60460  0.51970  1.0000 0.1213963098
H   H66       1.0  0.61820  0.89540  0.01970  1.0000 0.1213963098
H   H67       1.0  0.69980  0.66420  0.52270  1.0000 0.1309905019
H   H68       1.0  0.69980  0.83580  0.02270  1.0000 0.1309905019
H   H69       1.0  0.73470  0.64520  0.66520  1.0000 0.1213963098
H   H70       1.0  0.73470  0.85480  0.16520  1.0000 0.1213963098
H   H71       1.0  0.65370  0.58480  0.66150  1.0000 0.1108882747
H   H72       1.0  0.65370  0.91520  0.16150  1.0000 0.1108882747
H   H73       1.0  0.31320  0.10490  0.53840  1.0000 0.1213963098
H   H74       1.0  0.31320  0.39510  0.03840  1.0000 0.1213963098
H   H75       1.0  0.26260  0.03040  0.53770  1.0000 0.1108882747
H   H76       1.0  0.26260  0.46960  0.03770  1.0000 0.1108882747
H   H77       1.0  0.20310  0.05530  0.66950  1.0000 0.1389449657
H   H78       1.0  0.20310  0.44470  0.16950  1.0000 0.1389449657
H   H79       1.0  0.25580  0.13110  0.66960  1.0000 0.1213963098
H   H80       1.0  0.25580  0.36890  0.16960  1.0000 0.1213963098
H   H81       1.0  0.11090  0.93170  0.55190  1.0000 0.100639451
H   H82       1.0  0.11090  0.56830  0.05190  1.0000 0.100639451
H   H83       1.0  0.03360  0.86490  0.54200  1.0000 0.1309905019
H   H84       1.0  0.03360  0.63510  0.04200  1.0000 0.1309905019
H   H85       1.0  0.07360  0.83590  0.68080  1.0000 0.1213963098
H   H86       1.0  0.07360  0.66410  0.18080  1.0000 0.1213963098
H   H87       1.0  0.14230  0.90180  0.68880  1.0000 0.1309905019
H   H88       1.0  0.14230  0.59820  0.18880  1.0000 0.1309905019
H   H89       1.0  0.52740  0.14090  0.69260  1.0000 0.1309905019
H   H90       1.0  0.52740  0.35910  0.19260  1.0000 0.1309905019
H   H91       1.0  0.59400  0.07570  0.70210  1.0000 0.1309905019
H   H92       1.0  0.59400  0.42430  0.20210  1.0000 0.1309905019
H   H93       1.0  0.63780  0.08630  0.56410  1.0000 0.1108882747
H   H94       1.0  0.63780  0.41370  0.06410  1.0000 0.1108882747
H   H95       1.0  0.57150  0.15560  0.55630  1.0000 0.1389449657
H   H96       1.0  0.57150  0.34440  0.05630  1.0000 0.1389449657
H   H97       1.0  0.72200  0.94420  0.68200  1.0000 0.1389449657
H   H98       1.0  0.72200  0.55580  0.18200  1.0000 0.1389449657
H   H99       1.0  0.77940  0.87220  0.67530  1.0000 0.1213963098
H   H100      1.0  0.77940  0.62780  0.17530  1.0000 0.1213963098
H   H101      1.0  0.76950  0.88730  0.53240  1.0000 0.1213963098
H   H102      1.0  0.76950  0.61270  0.03240  1.0000 0.1213963098
H   H103      1.0  0.70730  0.95830  0.53910  1.0000 0.1108882747
H   H104      1.0  0.70730  0.54170  0.03910  1.0000 0.1108882747
H   H105      1.0  0.87180  0.98680  0.86930  1.0000 0.2784591898
H   H106      1.0  0.87180  0.51320  0.36930  1.0000 0.2784591898
H   H107      1.0  0.38950  0.02180  0.86040  1.0000 0.2784591898
H   H108      1.0  0.38950  0.47820  0.36040  1.0000 0.2784591898
H   H109      1.0  0.81740  0.47980  0.92830  1.0000 0.2716785654
H   H110      1.0  0.81740  0.02020  0.42830  1.0000 0.2716785654
H   H111      1.0  0.34840  0.51310  0.91850  1.0000 0.2716785654
H   H112      1.0  0.34840  0.98690  0.41850  1.0000 0.2716785654
H   H113      1.0  0.71020  0.75300  0.76330  1.0000 0.1108882747
H   H114      1.0  0.71020  0.74700  0.26330  1.0000 0.1108882747
H   H115      1.0  0.71200  0.75050  0.68080  1.0000 0.1389449657
H   H116      1.0  0.71200  0.74950  0.18080  1.0000 0.1389449657
H   H117      1.0  0.50620  0.75160  0.67140  1.0000 0.1309905019
H   H118      1.0  0.50620  0.74840  0.17140  1.0000 0.1309905019
H   H119      1.0  0.51040  0.75270  0.75400  1.0000 0.1213963098
H   H120      1.0  0.51040  0.74730  0.25400  1.0000 0.1213963098
H   H121      1.0  0.69100  0.78880  0.52680  1.0000 0.1213963098
H   H122      1.0  0.69100  0.71120  0.02680  1.0000 0.1213963098
H   H123      1.0  0.69370  0.79050  0.60870  1.0000 0.1309905019
H   H124      1.0  0.69370  0.70950  0.10870  1.0000 0.1309905019
H   H125      1.0  0.52250  0.71090  0.60070  1.0000 0.1309905019
H   H126      1.0  0.52250  0.78910  0.10070  1.0000 0.1309905019
H   H127      1.0  0.52540  0.71170  0.51900  1.0000 0.1213963098
H   H128      1.0  0.52540  0.78830  0.01900  1.0000 0.1213963098
H   H129      1.0  0.15520  0.18610  0.77000  1.0000 0.1213963098
H   H130      1.0  0.15520  0.31390  0.27000  1.0000 0.1213963098
H   H131      1.0  0.15730  0.18460  0.68810  1.0000 0.1389449657
H   H132      1.0  0.15730  0.31540  0.18810  1.0000 0.1389449657
H   H133      1.0  0.06770  0.31270  0.68270  1.0000 0.1389449657
H   H134      1.0  0.06770  0.18730  0.18270  1.0000 0.1389449657
H   H135      1.0  0.07280  0.31230  0.76540  1.0000 0.1213963098
H   H136      1.0  0.07280  0.18770  0.26540  1.0000 0.1213963098
H   H137      1.0  0.20170  0.21460  0.53670  1.0000 0.1108882747
H   H138      1.0  0.20170  0.28540  0.03670  1.0000 0.1108882747
H   H139      1.0  0.20020  0.21250  0.61980  1.0000 0.1309905019
H   H140      1.0  0.20020  0.28750  0.11980  1.0000 0.1309905019
H   H141      1.0  0.02420  0.28640  0.60740  1.0000 0.1389449657
H   H142      1.0  0.02420  0.21360  0.10740  1.0000 0.1389449657
H   H143      1.0  0.02720  0.28350  0.52600  1.0000 0.1213963098
H   H144      1.0  0.02720  0.21650  0.02600  1.0000 0.1213963098
H   H145      1.0  0.76640  0.85860  0.82840  1.0000 0.1213963098
H   H146      1.0  0.76640  0.64140  0.32840  1.0000 0.1213963098
H   H147      1.0  0.84410  0.92030  0.83500  1.0000 0.1108882747
H   H148      1.0  0.84410  0.57970  0.33500  1.0000 0.1108882747
H   H149      1.0  0.87430  0.89650  0.97790  1.0000 0.1213963098
H   H150      1.0  0.87430  0.60350  0.47790  1.0000 0.1213963098
H   H151      1.0  0.79360  0.83540  0.97040  1.0000 0.1213963098
H   H152      1.0  0.79360  0.66460  0.47040  1.0000 0.1213963098
H   H153      1.0  0.97310  0.03450  0.96640  1.0000 0.1389449657
H   H154      1.0  0.97310  0.46550  0.46640  1.0000 0.1389449657
H   H155      1.0  0.01900  0.11440  0.96920  1.0000 0.1213963098
H   H156      1.0  0.01900  0.38560  0.46920  1.0000 0.1213963098
H   H157      1.0  0.99230  0.11940  0.82830  1.0000 0.1309905019
H   H158      1.0  0.99230  0.38060  0.32830  1.0000 0.1309905019
H   H159      1.0  0.92800  0.05180  0.82470  1.0000 0.1309905019
H   H160      1.0  0.92800  0.44820  0.32470  1.0000 0.1309905019
H   H161      1.0  0.51720  0.88900  0.96100  1.0000 0.1213963098
H   H162      1.0  0.51720  0.61100  0.46100  1.0000 0.1213963098
H   H163      1.0  0.47280  0.96660  0.96020  1.0000 0.1480523556
H   H164      1.0  0.47280  0.53340  0.46020  1.0000 0.1480523556
H   H165      1.0  0.44640  0.96020  0.81610  1.0000 0.1309905019
H   H166      1.0  0.44640  0.53980  0.31610  1.0000 0.1309905019
H   H167      1.0  0.49520  0.88540  0.81760  1.0000 0.1309905019
H   H168      1.0  0.49520  0.61460  0.31760  1.0000 0.1309905019
H   H169      1.0  0.38180  0.10460  0.98030  1.0000 0.1213963098
H   H170      1.0  0.38180  0.39540  0.48030  1.0000 0.1213963098
H   H171      1.0  0.30020  0.16420  0.97730  1.0000 0.1309905019
H   H172      1.0  0.30020  0.33580  0.47730  1.0000 0.1309905019
H   H173      1.0  0.26530  0.14520  0.83480  1.0000 0.1213963098
H   H174      1.0  0.26530  0.35480  0.33480  1.0000 0.1213963098
H   H175      1.0  0.34630  0.08480  0.83850  1.0000 0.1108882747
H   H176      1.0  0.34630  0.41520  0.33850  1.0000 0.1108882747
H   H177      1.0  0.68680  0.60490  0.96160  1.0000 0.1213963098
H   H178      1.0  0.68680  0.89510  0.46160  1.0000 0.1213963098
H   H179      1.0  0.73740  0.53040  0.96230  1.0000 0.1108882747
H   H180      1.0  0.73740  0.96960  0.46230  1.0000 0.1108882747
H   H181      1.0  0.79690  0.55530  0.83050  1.0000 0.1389449657
H   H182      1.0  0.79690  0.94470  0.33050  1.0000 0.1389449657
H   H183      1.0  0.74420  0.63110  0.83040  1.0000 0.1213963098
H   H184      1.0  0.74420  0.86890  0.33040  1.0000 0.1213963098
H   H185      1.0  0.88910  0.43170  0.94810  1.0000 0.100639451
H   H186      1.0  0.88910  0.06830  0.44810  1.0000 0.100639451
H   H187      1.0  0.96640  0.36490  0.95800  1.0000 0.1309905019
H   H188      1.0  0.96640  0.13510  0.45800  1.0000 0.1309905019
H   H189      1.0  0.92640  0.33590  0.81920  1.0000 0.1213963098
H   H190      1.0  0.92640  0.16410  0.31920  1.0000 0.1213963098
H   H191      1.0  0.85770  0.40180  0.81120  1.0000 0.1309905019
H   H192      1.0  0.85770  0.09820  0.31120  1.0000 0.1309905019
H   H193      1.0  0.47260  0.64090  0.80740  1.0000 0.1309905019
H   H194      1.0  0.47260  0.85910  0.30740  1.0000 0.1309905019
H   H195      1.0  0.40600  0.57570  0.79790  1.0000 0.1309905019
H   H196      1.0  0.40600  0.92430  0.29790  1.0000 0.1309905019
H   H197      1.0  0.36220  0.58630  0.93590  1.0000 0.1108882747
H   H198      1.0  0.36220  0.91370  0.43590  1.0000 0.1108882747
H   H199      1.0  0.42850  0.65560  0.94370  1.0000 0.1389449657
H   H200      1.0  0.42850  0.84440  0.44370  1.0000 0.1389449657
H   H201      1.0  0.27800  0.44420  0.81800  1.0000 0.1389449657
H   H202      1.0  0.27800  0.05580  0.31800  1.0000 0.1389449657
H   H203      1.0  0.22060  0.37220  0.82470  1.0000 0.1213963098
H   H204      1.0  0.22060  0.12780  0.32470  1.0000 0.1213963098
H   H205      1.0  0.23050  0.38730  0.96760  1.0000 0.1213963098
H   H206      1.0  0.23050  0.11270  0.46760  1.0000 0.1213963098
H   H207      1.0  0.29270  0.45830  0.96090  1.0000 0.1108882747
H   H208      1.0  0.29270  0.04170  0.46090  1.0000 0.1108882747
C   C1        1.0  0.33180  0.25240  0.75572  1.0000 0.0816852105
C   C2        1.0  0.33180  0.24760  0.25572  1.0000 0.0816852105
C   C3        1.0  0.33010  0.25120  0.80489  1.0000 -0.1890718105
C   C4        1.0  0.33010  0.24880  0.30489  1.0000 -0.1890718105
C   C5        1.0  0.39080  0.25090  0.83269  1.0000 0.1108882747
C   C6        1.0  0.39080  0.24910  0.33269  1.0000 0.1108882747
C   C7        1.0  0.45110  0.25160  0.81030  1.0000 -0.1890718105
C   C8        1.0  0.45110  0.24840  0.31030  1.0000 -0.1890718105
C   C9        1.0  0.44810  0.25240  0.76110  1.0000 0.0893173237
C   C10       1.0  0.44810  0.24760  0.26110  1.0000 0.0816852105
C   C11       1.0  0.34390  0.27290  0.95787  1.0000 0.100639451
C   C12       1.0  0.34390  0.22710  0.45787  1.0000 0.100639451
C   C13       1.0  0.34180  0.27410  0.90910  1.0000 -0.1810752616
C   C14       1.0  0.34180  0.22590  0.40910  1.0000 -0.1810752616
C   C15       1.0  0.39200  0.25100  0.88592  1.0000 0.1108882747
C   C16       1.0  0.39200  0.24900  0.38592  1.0000 0.1108882747
C   C17       1.0  0.44230  0.22730  0.91364  1.0000 -0.1810752616
C   C18       1.0  0.44230  0.27270  0.41364  1.0000 -0.1810752616
C   C19       1.0  0.44010  0.22820  0.96220  1.0000 0.0816852105
C   C20       1.0  0.44010  0.27180  0.46220  1.0000 0.0893173237
C   C21       1.0  0.86360  0.71220  0.74810  1.0000 0.0659078754
C   C22       1.0  0.86360  0.78780  0.24810  1.0000 0.0659078754
C   C23       1.0  0.86210  0.71110  0.79690  1.0000 -0.1998733905
C   C24       1.0  0.86210  0.78890  0.29690  1.0000 -0.1998733905
C   C25       1.0  0.88910  0.74900  0.82412  1.0000 0.1108882747
C   C26       1.0  0.88910  0.75100  0.32412  1.0000 0.1108882747
C   C27       1.0  0.91370  0.78590  0.80030  1.0000 -0.1890718105
C   C28       1.0  0.91370  0.71410  0.30030  1.0000 -0.1890718105
C   C29       1.0  0.91200  0.78500  0.75060  1.0000 0.0893173237
C   C30       1.0  0.91200  0.71500  0.25060  1.0000 0.0893173237
C   C31       1.0  0.83550  0.72820  0.94856  1.0000 0.100639451
C   C32       1.0  0.83550  0.77180  0.44856  1.0000 0.100639451
C   C33       1.0  0.83590  0.72740  0.89904  1.0000 -0.1810752616
C   C34       1.0  0.83590  0.77260  0.39904  1.0000 -0.1810752616
C   C35       1.0  0.88900  0.74850  0.87719  1.0000 0.1108882747
C   C36       1.0  0.88900  0.75150  0.37719  1.0000 0.1108882747
C   C37       1.0  0.93960  0.77040  0.90620  1.0000 -0.1810752616
C   C38       1.0  0.93960  0.72960  0.40620  1.0000 -0.1810752616
C   C39       1.0  0.93700  0.76890  0.95460  1.0000 0.0893173237
C   C40       1.0  0.93700  0.73110  0.45460  1.0000 0.0893173237
C   C41       1.0  0.28440  0.30556  0.60526  1.0000 0.5668260248
C   C42       1.0  0.28440  0.19444  0.10526  1.0000 0.5668260248
C   C43       1.0  0.23040  0.34240  0.60080  1.0000 -0.0307563065
C   C44       1.0  0.23040  0.15760  0.10080  1.0000 -0.0307563065
C   C45       1.0  0.21300  0.36700  0.64110  1.0000 -0.0972379738
C   C46       1.0  0.21300  0.13300  0.14110  1.0000 -0.0972379738
C   C47       1.0  0.16650  0.40330  0.63730  1.0000 -0.1699790793
C   C48       1.0  0.16650  0.09670  0.13730  1.0000 -0.1699790793
C   C49       1.0  0.13410  0.41560  0.59210  1.0000 -0.0478918102
C   C50       1.0  0.13410  0.08440  0.09210  1.0000 -0.0478918102
C   C51       1.0  0.14840  0.38960  0.55230  1.0000 -0.1076782659
C   C52       1.0  0.14840  0.11040  0.05230  1.0000 -0.1076782659
C   C53       1.0  0.08650  0.45520  0.58440  1.0000 0.4243188932
C   C54       1.0  0.08650  0.04480  0.08440  1.0000 0.4243188932
C   C55       1.0  0.05200  0.53550  0.60490  1.0000 0.188139601
C   C56       1.0  0.05200  0.96450  0.10490  1.0000 0.188139601
C   C57       1.0  0.19660  0.35320  0.55700  1.0000 -0.0972379738
C   C58       1.0  0.19660  0.14680  0.05700  1.0000 -0.0972379738
C   C59       1.0  0.02580  0.55300  0.56190  1.0000 -0.158717163
C   C60       1.0  0.02580  0.94700  0.06190  1.0000 -0.158717163
C   C61       1.0  0.99640  0.60040  0.56040  1.0000 -0.079924796
C   C62       1.0  0.99640  0.89960  0.06040  1.0000 -0.079924796
C   C63       1.0  0.99120  0.62400  0.60090  1.0000 -0.0307563065
C   C64       1.0  0.99120  0.87600  0.10090  1.0000 -0.0307563065
C   C65       1.0  0.01560  0.60340  0.64280  1.0000 -0.079924796
C   C66       1.0  0.01560  0.89660  0.14280  1.0000 -0.079924796
C   C67       1.0  0.04990  0.56220  0.64580  1.0000 -0.1890718105
C   C68       1.0  0.04990  0.93780  0.14580  1.0000 -0.1890718105
C   C69       1.0  0.95740  0.67170  0.60220  1.0000 0.5872266784
C   C70       1.0  0.95740  0.82830  0.10220  1.0000 0.5872266784
C   C71       1.0  0.45760  0.33110  0.60960  1.0000 0.5872266784
C   C72       1.0  0.45760  0.16890  0.10960  1.0000 0.5872266784
C   C73       1.0  0.48910  0.37970  0.61060  1.0000 -0.0394841764
C   C74       1.0  0.48910  0.12030  0.11060  1.0000 -0.0394841764
C   C75       1.0  0.49660  0.40380  0.56860  1.0000 -0.0743893997
C   C76       1.0  0.49660  0.09620  0.06860  1.0000 -0.079924796
C   C77       1.0  0.52430  0.44960  0.56890  1.0000 -0.1699790793
C   C78       1.0  0.52430  0.05040  0.06890  1.0000 -0.1699790793
C   C79       1.0  0.54720  0.46980  0.61160  1.0000 0.226276128
C   C80       1.0  0.54720  0.03020  0.11160  1.0000 0.226276128
C   C81       1.0  0.53910  0.44580  0.65430  1.0000 -0.2085937991
C   C82       1.0  0.53910  0.05420  0.15430  1.0000 -0.2085937991
C   C83       1.0  0.51030  0.40150  0.65320  1.0000 -0.079924796
C   C84       1.0  0.51030  0.09850  0.15320  1.0000 -0.079924796
C   C85       1.0  0.58310  0.54800  0.58400  1.0000 0.4113529458
C   C86       1.0  0.58310  0.95200  0.08400  1.0000 0.4113529458
C   C87       1.0  0.63070  0.58660  0.59050  1.0000 -0.0478918102
C   C88       1.0  0.63070  0.91340  0.09050  1.0000 -0.0478918102
C   C89       1.0  0.64300  0.61190  0.54910  1.0000 -0.0972379738
C   C90       1.0  0.64300  0.88810  0.04910  1.0000 -0.0972379738
C   C91       1.0  0.69110  0.64760  0.55100  1.0000 -0.1076782659
C   C92       1.0  0.69110  0.85240  0.05100  1.0000 -0.1076782659
C   C93       1.0  0.72700  0.65951  0.59370  1.0000 -0.0139640511
C   C94       1.0  0.72700  0.84049  0.09370  1.0000 -0.0139640511
C   C95       1.0  0.71210  0.63640  0.63540  1.0000 -0.1076782659
C   C96       1.0  0.71210  0.86360  0.13540  1.0000 -0.1076782659
C   C97       1.0  0.66400  0.60040  0.63290  1.0000 -0.1492340117
C   C98       1.0  0.66400  0.89960  0.13290  1.0000 -0.1443233655
C   C99       1.0  0.78350  0.69596  0.59596  1.0000 0.5668260248
C   C100      1.0  0.78350  0.80404  0.09596  1.0000 0.5649679437
C   C101      1.0  0.32350  0.17308  0.60352  1.0000 0.5668260248
C   C102      1.0  0.32350  0.32692  0.10352  1.0000 0.5668260248
C   C103      1.0  0.28940  0.12520  0.60360  1.0000 -0.0307563065
C   C104      1.0  0.28940  0.37480  0.10360  1.0000 -0.0307563065
C   C105      1.0  0.29060  0.09490  0.56540  1.0000 -0.0972379738
C   C106      1.0  0.29060  0.40510  0.06540  1.0000 -0.0972379738
C   C107      1.0  0.26030  0.05070  0.56460  1.0000 -0.1998733905
C   C108      1.0  0.26030  0.44930  0.06460  1.0000 -0.1998733905
C   C109      1.0  0.22730  0.03670  0.60230  1.0000 0.2216347739
C   C110      1.0  0.22730  0.46330  0.10230  1.0000 0.2216347739
C   C111      1.0  0.22540  0.06570  0.64250  1.0000 -0.1699790793
C   C112      1.0  0.22540  0.43430  0.14250  1.0000 -0.1699790793
C   C113      1.0  0.25700  0.11070  0.64260  1.0000 -0.1076782659
C   C114      1.0  0.25700  0.38930  0.14260  1.0000 -0.1076782659
C   C115      1.0  0.17110  0.96590  0.63120  1.0000 0.4113529458
C   C116      1.0  0.17110  0.53410  0.13120  1.0000 0.4113529458
C   C117      1.0  0.13080  0.92260  0.62270  1.0000 -0.0225306349
C   C118      1.0  0.13080  0.57740  0.12270  1.0000 -0.0307563065
C   C119      1.0  0.10150  0.91260  0.57850  1.0000 -0.158717163
C   C120      1.0  0.10150  0.58740  0.07850  1.0000 -0.1492340117
C   C121      1.0  0.05530  0.87200  0.57250  1.0000 -0.079924796
C   C122      1.0  0.05530  0.62800  0.07250  1.0000 -0.079924796
C   C123      1.0  0.04350  0.84440  0.61090  1.0000 -0.0394841764
C   C124      1.0  0.04350  0.65560  0.11090  1.0000 -0.0394841764
C   C125      1.0  0.07850  0.85560  0.65380  1.0000 -0.0972379738
C   C126      1.0  0.07850  0.64440  0.15380  1.0000 -0.0972379738
C   C127      1.0  0.12020  0.89480  0.65830  1.0000 -0.079924796
C   C128      1.0  0.12020  0.60520  0.15830  1.0000 -0.079924796
C   C129      1.0  0.99220  0.80530  0.60740  1.0000 0.5872266784
C   C130      1.0  0.99220  0.69470  0.10740  1.0000 0.5872266784
C   C131      1.0  0.49430  0.19670  0.61950  1.0000 0.5846227541
C   C132      1.0  0.49430  0.30330  0.11950  1.0000 0.5846227541
C   C133      1.0  0.54290  0.15520  0.62370  1.0000 -0.0225306349
C   C134      1.0  0.54290  0.34480  0.12370  1.0000 -0.0225306349
C   C135      1.0  0.55080  0.13000  0.66630  1.0000 -0.0909395097
C   C136      1.0  0.55080  0.37000  0.16630  1.0000 -0.0972379738
C   C137      1.0  0.58920  0.09150  0.67220  1.0000 -0.0909395097
C   C138      1.0  0.58920  0.40850  0.17220  1.0000 -0.0909395097
C   C139      1.0  0.62180  0.07510  0.63460  1.0000 -0.0307563065
C   C140      1.0  0.62180  0.42490  0.13460  1.0000 -0.0307563065
C   C141      1.0  0.61550  0.09820  0.59040  1.0000 -0.1492340117
C   C142      1.0  0.61550  0.40180  0.09040  1.0000 -0.1492340117
C   C143      1.0  0.57590  0.13890  0.58580  1.0000 -0.0909395097
C   C144      1.0  0.57590  0.36110  0.08580  1.0000 -0.0909395097
C   C145      1.0  0.66810  0.02900  0.64500  1.0000 0.4538742239
C   C146      1.0  0.66810  0.47100  0.14500  1.0000 0.4552496805
C   C147      1.0  0.71100  0.95840  0.61010  1.0000 0.2216347739
C   C148      1.0  0.71100  0.54160  0.11010  1.0000 0.226276128
C   C149      1.0  0.73150  0.93250  0.65140  1.0000 -0.1699790793
C   C150      1.0  0.73150  0.56750  0.15140  1.0000 -0.1699790793
C   C151      1.0  0.76560  0.88980  0.64740  1.0000 -0.0909395097
C   C152      1.0  0.76560  0.61020  0.14740  1.0000 -0.0909395097
C   C153      1.0  0.77970  0.87240  0.60330  1.0000 -0.0394841764
C   C154      1.0  0.77970  0.62760  0.10330  1.0000 -0.0394841764
C   C155      1.0  0.75920  0.89840  0.56290  1.0000 -0.0972379738
C   C156      1.0  0.75920  0.60160  0.06290  1.0000 -0.0972379738
C   C157      1.0  0.72310  0.94130  0.56710  1.0000 -0.1998733905
C   C158      1.0  0.72310  0.55870  0.06710  1.0000 -0.2085937991
C   C159      1.0  0.81790  0.82686  0.59880  1.0000 0.5668260248
C   C160      1.0  0.81790  0.67314  0.09880  1.0000 0.5668260248
C   C161      1.0  0.66820  0.75240  0.74428  1.0000 0.0816852105
C   C162      1.0  0.66820  0.74760  0.24428  1.0000 0.0816852105
C   C163      1.0  0.66990  0.75120  0.69511  1.0000 -0.1890718105
C   C164      1.0  0.66990  0.74880  0.19511  1.0000 -0.1890718105
C   C165      1.0  0.60920  0.75090  0.66731  1.0000 0.1108882747
C   C166      1.0  0.60920  0.74910  0.16731  1.0000 0.1108882747
C   C167      1.0  0.54890  0.75160  0.68970  1.0000 -0.1890718105
C   C168      1.0  0.54890  0.74840  0.18970  1.0000 -0.1890718105
C   C169      1.0  0.55190  0.75240  0.73890  1.0000 0.0893173237
C   C170      1.0  0.55190  0.74760  0.23890  1.0000 0.0893173237
C   C171      1.0  0.65610  0.77290  0.54213  1.0000 0.100639451
C   C172      1.0  0.65610  0.72710  0.04213  1.0000 0.100639451
C   C173      1.0  0.65820  0.77410  0.59090  1.0000 -0.1810752616
C   C174      1.0  0.65820  0.72590  0.09090  1.0000 -0.1810752616
C   C175      1.0  0.60800  0.75100  0.61408  1.0000 0.1108882747
C   C176      1.0  0.60800  0.74900  0.11408  1.0000 0.1108882747
C   C177      1.0  0.55770  0.72730  0.58636  1.0000 -0.1810752616
C   C178      1.0  0.55770  0.77270  0.08636  1.0000 -0.1810752616
C   C179      1.0  0.55990  0.72820  0.53780  1.0000 0.0893173237
C   C180      1.0  0.55990  0.77180  0.03780  1.0000 0.0816852105
C   C181      1.0  0.13640  0.21220  0.75190  1.0000 0.0659078754
C   C182      1.0  0.13640  0.28780  0.25190  1.0000 0.0659078754
C   C183      1.0  0.13790  0.21110  0.70310  1.0000 -0.1998733905
C   C184      1.0  0.13790  0.28890  0.20310  1.0000 -0.1998733905
C   C185      1.0  0.11090  0.24900  0.67588  1.0000 0.1108882747
C   C186      1.0  0.11090  0.25100  0.17588  1.0000 0.1108882747
C   C187      1.0  0.08630  0.28590  0.69970  1.0000 -0.1890718105
C   C188      1.0  0.08630  0.21410  0.19970  1.0000 -0.1890718105
C   C189      1.0  0.08800  0.28500  0.74940  1.0000 0.0893173237
C   C190      1.0  0.08800  0.21500  0.24940  1.0000 0.0893173237
C   C191      1.0  0.16450  0.22820  0.55144  1.0000 0.100639451
C   C192      1.0  0.16450  0.27180  0.05144  1.0000 0.100639451
C   C193      1.0  0.16410  0.22740  0.60096  1.0000 -0.1810752616
C   C194      1.0  0.16410  0.27260  0.10096  1.0000 -0.1810752616
C   C195      1.0  0.11100  0.24850  0.62281  1.0000 0.1108882747
C   C196      1.0  0.11100  0.25150  0.12281  1.0000 0.1108882747
C   C197      1.0  0.06040  0.27040  0.59380  1.0000 -0.1810752616
C   C198      1.0  0.06040  0.22960  0.09380  1.0000 -0.1810752616
C   C199      1.0  0.06300  0.26890  0.54540  1.0000 0.0893173237
C   C200      1.0  0.06300  0.23110  0.04540  1.0000 0.0893173237
C   C201      1.0  0.71560  0.80556  0.89474  1.0000 0.5668260248
C   C202      1.0  0.71560  0.69444  0.39474  1.0000 0.5668260248
C   C203      1.0  0.76960  0.84240  0.89920  1.0000 -0.0307563065
C   C204      1.0  0.76960  0.65760  0.39920  1.0000 -0.0307563065
C   C205      1.0  0.78700  0.86700  0.85890  1.0000 -0.0972379738
C   C206      1.0  0.78700  0.63300  0.35890  1.0000 -0.0972379738
C   C207      1.0  0.83350  0.90330  0.86270  1.0000 -0.1699790793
C   C208      1.0  0.83350  0.59670  0.36270  1.0000 -0.1699790793
C   C209      1.0  0.86590  0.91560  0.90790  1.0000 -0.0478918102
C   C210      1.0  0.86590  0.58440  0.40790  1.0000 -0.0478918102
C   C211      1.0  0.85160  0.88960  0.94770  1.0000 -0.1076782659
C   C212      1.0  0.85160  0.61040  0.44770  1.0000 -0.1076782659
C   C213      1.0  0.91350  0.95520  0.91560  1.0000 0.4243188932
C   C214      1.0  0.91350  0.54480  0.41560  1.0000 0.4243188932
C   C215      1.0  0.94800  0.03550  0.89510  1.0000 0.188139601
C   C216      1.0  0.94800  0.46450  0.39510  1.0000 0.188139601
C   C217      1.0  0.80340  0.85320  0.94300  1.0000 -0.0972379738
C   C218      1.0  0.80340  0.64680  0.44300  1.0000 -0.0972379738
C   C219      1.0  0.97420  0.05300  0.93810  1.0000 -0.158717163
C   C220      1.0  0.97420  0.44700  0.43810  1.0000 -0.158717163
C   C221      1.0  0.00360  0.10040  0.93960  1.0000 -0.079924796
C   C222      1.0  0.00360  0.39960  0.43960  1.0000 -0.079924796
C   C223      1.0  0.00880  0.12400  0.89910  1.0000 -0.0307563065
C   C224      1.0  0.00880  0.37600  0.39910  1.0000 -0.0307563065
C   C225      1.0  0.98440  0.10340  0.85720  1.0000 -0.079924796
C   C226      1.0  0.98440  0.39660  0.35720  1.0000 -0.079924796
C   C227      1.0  0.95010  0.06220  0.85420  1.0000 -0.1890718105
C   C228      1.0  0.95010  0.43780  0.35420  1.0000 -0.1890718105
C   C229      1.0  0.04260  0.17170  0.89780  1.0000 0.5872266784
C   C230      1.0  0.04260  0.32830  0.39780  1.0000 0.5872266784
C   C231      1.0  0.54240  0.83110  0.89040  1.0000 0.5872266784
C   C232      1.0  0.54240  0.66890  0.39040  1.0000 0.5872266784
C   C233      1.0  0.51090  0.87970  0.88940  1.0000 -0.0394841764
C   C234      1.0  0.51090  0.62030  0.38940  1.0000 -0.0394841764
C   C235      1.0  0.50340  0.90380  0.93140  1.0000 -0.0743893997
C   C236      1.0  0.50340  0.59620  0.43140  1.0000 -0.079924796
C   C237      1.0  0.47570  0.94960  0.93110  1.0000 -0.1699790793
C   C238      1.0  0.47570  0.55040  0.43110  1.0000 -0.1699790793
C   C239      1.0  0.45280  0.96980  0.88840  1.0000 0.226276128
C   C240      1.0  0.45280  0.53020  0.38840  1.0000 0.226276128
C   C241      1.0  0.46090  0.94580  0.84570  1.0000 -0.2085937991
C   C242      1.0  0.46090  0.55420  0.34570  1.0000 -0.2085937991
C   C243      1.0  0.48970  0.90150  0.84680  1.0000 -0.079924796
C   C244      1.0  0.48970  0.59850  0.34680  1.0000 -0.079924796
C   C245      1.0  0.41690  0.04800  0.91600  1.0000 0.4113529458
C   C246      1.0  0.41690  0.45200  0.41600  1.0000 0.4113529458
C   C247      1.0  0.36930  0.08660  0.90950  1.0000 -0.0478918102
C   C248      1.0  0.36930  0.41340  0.40950  1.0000 -0.0478918102
C   C249      1.0  0.35700  0.11190  0.95090  1.0000 -0.0972379738
C   C250      1.0  0.35700  0.38810  0.45090  1.0000 -0.0972379738
C   C251      1.0  0.30890  0.14760  0.94900  1.0000 -0.1076782659
C   C252      1.0  0.30890  0.35240  0.44900  1.0000 -0.1076782659
C   C253      1.0  0.27300  0.15951  0.90630  1.0000 -0.0139640511
C   C254      1.0  0.27300  0.34049  0.40630  1.0000 -0.0139640511
C   C255      1.0  0.28790  0.13640  0.86460  1.0000 -0.1076782659
C   C256      1.0  0.28790  0.36360  0.36460  1.0000 -0.1076782659
C   C257      1.0  0.33600  0.10040  0.86710  1.0000 -0.1492340117
C   C258      1.0  0.33600  0.39960  0.36710  1.0000 -0.1443233655
C   C259      1.0  0.21650  0.19596  0.90404  1.0000 0.5668260248
C   C260      1.0  0.21650  0.30404  0.40404  1.0000 0.5649679437
C   C261      1.0  0.67650  0.67308  0.89648  1.0000 0.5668260248
C   C262      1.0  0.67650  0.82692  0.39648  1.0000 0.5668260248
C   C263      1.0  0.71060  0.62520  0.89640  1.0000 -0.0307563065
C   C264      1.0  0.71060  0.87480  0.39640  1.0000 -0.0307563065
C   C265      1.0  0.70940  0.59490  0.93460  1.0000 -0.0972379738
C   C266      1.0  0.70940  0.90510  0.43460  1.0000 -0.0972379738
C   C267      1.0  0.73970  0.55070  0.93540  1.0000 -0.1998733905
C   C268      1.0  0.73970  0.94930  0.43540  1.0000 -0.1998733905
C   C269      1.0  0.77270  0.53670  0.89770  1.0000 0.2216347739
C   C270      1.0  0.77270  0.96330  0.39770  1.0000 0.2216347739
C   C271      1.0  0.77460  0.56570  0.85750  1.0000 -0.1699790793
C   C272      1.0  0.77460  0.93430  0.35750  1.0000 -0.1699790793
C   C273      1.0  0.74300  0.61070  0.85740  1.0000 -0.1076782659
C   C274      1.0  0.74300  0.88930  0.35740  1.0000 -0.1076782659
C   C275      1.0  0.82890  0.46590  0.86880  1.0000 0.4113529458
C   C276      1.0  0.82890  0.03410  0.36880  1.0000 0.4113529458
C   C277      1.0  0.86920  0.42260  0.87730  1.0000 -0.0225306349
C   C278      1.0  0.86920  0.07740  0.37730  1.0000 -0.0307563065
C   C279      1.0  0.89850  0.41260  0.92150  1.0000 -0.1492340117
C   C280      1.0  0.89850  0.08740  0.42150  1.0000 -0.1492340117
C   C281      1.0  0.94470  0.37200  0.92750  1.0000 -0.079924796
C   C282      1.0  0.94470  0.12800  0.42750  1.0000 -0.079924796
C   C283      1.0  0.95650  0.34440  0.88910  1.0000 -0.0394841764
C   C284      1.0  0.95650  0.15560  0.38910  1.0000 -0.0394841764
C   C285      1.0  0.92150  0.35560  0.84620  1.0000 -0.0972379738
C   C286      1.0  0.92150  0.14440  0.34620  1.0000 -0.0972379738
C   C287      1.0  0.87980  0.39480  0.84170  1.0000 -0.079924796
C   C288      1.0  0.87980  0.10520  0.34170  1.0000 -0.079924796
C   C289      1.0  0.00780  0.30530  0.89260  1.0000 0.5846227541
C   C290      1.0  0.00780  0.19470  0.39260  1.0000 0.5846227541
C   C291      1.0  0.50570  0.69670  0.88050  1.0000 0.5846227541
C   C292      1.0  0.50570  0.80330  0.38050  1.0000 0.5846227541
C   C293      1.0  0.45710  0.65520  0.87630  1.0000 -0.0225306349
C   C294      1.0  0.45710  0.84480  0.37630  1.0000 -0.0225306349
C   C295      1.0  0.44920  0.63000  0.83370  1.0000 -0.0972379738
C   C296      1.0  0.44920  0.87000  0.33370  1.0000 -0.0972379738
C   C297      1.0  0.41080  0.59150  0.82780  1.0000 -0.0909395097
C   C298      1.0  0.41080  0.90850  0.32780  1.0000 -0.0909395097
C   C299      1.0  0.37820  0.57510  0.86540  1.0000 -0.0307563065
C   C300      1.0  0.37820  0.92490  0.36540  1.0000 -0.0307563065
C   C301      1.0  0.38450  0.59820  0.90960  1.0000 -0.1492340117
C   C302      1.0  0.38450  0.90180  0.40960  1.0000 -0.1492340117
C   C303      1.0  0.42410  0.63890  0.91420  1.0000 -0.0909395097
C   C304      1.0  0.42410  0.86110  0.41420  1.0000 -0.0909395097
C   C305      1.0  0.33190  0.52900  0.85500  1.0000 0.4538742239
C   C306      1.0  0.33190  0.97100  0.35500  1.0000 0.4538742239
C   C307      1.0  0.28900  0.45840  0.88990  1.0000 0.2216347739
C   C308      1.0  0.28900  0.04160  0.38990  1.0000 0.2216347739
C   C309      1.0  0.26850  0.43250  0.84860  1.0000 -0.1699790793
C   C310      1.0  0.26850  0.06750  0.34860  1.0000 -0.1699790793
C   C311      1.0  0.23440  0.38980  0.85260  1.0000 -0.0909395097
C   C312      1.0  0.23440  0.11020  0.35260  1.0000 -0.0972379738
C   C313      1.0  0.22030  0.37240  0.89670  1.0000 -0.0394841764
C   C314      1.0  0.22030  0.12760  0.39670  1.0000 -0.0394841764
C   C315      1.0  0.24080  0.39840  0.93710  1.0000 -0.0972379738
C   C316      1.0  0.24080  0.10160  0.43710  1.0000 -0.0972379738
C   C317      1.0  0.27690  0.44130  0.93290  1.0000 -0.2085937991
C   C318      1.0  0.27690  0.05870  0.43290  1.0000 -0.2085937991
C   C319      1.0  0.18210  0.32686  0.90120  1.0000 0.5668260248
C   C320      1.0  0.18210  0.17314  0.40120  1.0000 0.5668260248
N   N1        1.0  0.38960  0.25291  0.73362  1.0000 -0.2085937991
N   N2        1.0  0.38960  0.24709  0.23362  1.0000 -0.2085937991
N   N3        1.0  0.39230  0.25075  0.98484  1.0000 -0.2085937991
N   N4        1.0  0.39230  0.24925  0.48484  1.0000 -0.2085937991
N   N5        1.0  0.89030  0.74823  0.72482  1.0000 -0.1998733905
N   N6        1.0  0.89030  0.75177  0.22482  1.0000 -0.1998733905
N   N7        1.0  0.88680  0.74800  0.97586  1.0000 -0.2085937991
N   N8        1.0  0.88680  0.75200  0.47586  1.0000 -0.2085937991
N   N9        1.0  0.09460  0.48810  0.60820  1.0000 -0.3009143636
N   N10       1.0  0.09460  0.01190  0.10820  1.0000 -0.3009143636
N   N11       1.0  0.58420  0.51650  0.61340  1.0000 -0.3280199037
N   N12       1.0  0.58420  0.98350  0.11340  1.0000 -0.3280199037
N   N13       1.0  0.19120  0.99100  0.60080  1.0000 -0.3280199037
N   N14       1.0  0.19120  0.50900  0.10080  1.0000 -0.3280199037
N   N15       1.0  0.67230  0.00370  0.60870  1.0000 -0.3711390958
N   N16       1.0  0.67230  0.49630  0.10870  1.0000 -0.3711390958
N   N17       1.0  0.61040  0.75291  0.76638  1.0000 -0.2085937991
N   N18       1.0  0.61040  0.74709  0.26638  1.0000 -0.2085937991
N   N19       1.0  0.60770  0.75075  0.51516  1.0000 -0.2085937991
N   N20       1.0  0.60770  0.74925  0.01516  1.0000 -0.2085937991
N   N21       1.0  0.10970  0.24823  0.77518  1.0000 -0.1998733905
N   N22       1.0  0.10970  0.25177  0.27518  1.0000 -0.1998733905
N   N23       1.0  0.11320  0.24800  0.52414  1.0000 -0.2085937991
N   N24       1.0  0.11320  0.25200  0.02414  1.0000 -0.2085937991
N   N25       1.0  0.90540  0.98810  0.89180  1.0000 -0.3009143636
N   N26       1.0  0.90540  0.51190  0.39180  1.0000 -0.3009143636
N   N27       1.0  0.41580  0.01650  0.88660  1.0000 -0.3280199037
N   N28       1.0  0.41580  0.48350  0.38660  1.0000 -0.3280199037
N   N29       1.0  0.80880  0.49100  0.89920  1.0000 -0.3280199037
N   N30       1.0  0.80880  0.00900  0.39920  1.0000 -0.3280199037
N   N31       1.0  0.32770  0.50370  0.89130  1.0000 -0.3711390958
N   N32       1.0  0.32770  0.99630  0.39130  1.0000 -0.3711390958
O   O1        1.0  0.30680  0.29480  0.64656  1.0000 -0.529427146
O   O2        1.0  0.30680  0.20520  0.14656  1.0000 -0.529427146
O   O3        1.0  0.30500  0.28854  0.56738  1.0000 -0.5417221996
O   O4        1.0  0.30500  0.21146  0.06738  1.0000 -0.5417221996
O   O5        1.0  0.44750  0.31204  0.64934  1.0000 -0.5494240538
O   O6        1.0  0.44750  0.18796  0.14934  1.0000 -0.5494240538
O   O7        1.0  0.44320  0.31226  0.56950  1.0000 -0.5417221996
O   O8        1.0  0.44320  0.18774  0.06950  1.0000 -0.5417221996
O   O9        1.0  0.33130  0.19524  0.64299  1.0000 -0.5494240538
O   O10       1.0  0.33130  0.30476  0.14299  1.0000 -0.5494240538
O   O11       1.0  0.34070  0.18836  0.56481  1.0000 -0.5228232608
O   O12       1.0  0.34070  0.31164  0.06481  1.0000 -0.5228232608
O   O13       1.0  0.47070  0.21064  0.65687  1.0000 -0.5417221996
O   O14       1.0  0.47070  0.28936  0.15687  1.0000 -0.5417221996
O   O15       1.0  0.47820  0.21316  0.57873  1.0000 -0.529427146
O   O16       1.0  0.47820  0.28684  0.07873  1.0000 -0.529427146
O   O17       1.0  0.83800  0.80701  0.63720  1.0000 -0.5417221996
O   O18       1.0  0.83800  0.69299  0.13720  1.0000 -0.5417221996
O   O19       1.0  0.82690  0.81133  0.55810  1.0000 -0.529427146
O   O20       1.0  0.82690  0.68867  0.05810  1.0000 -0.529427146
O   O21       1.0  0.80840  0.70850  0.63624  1.0000 -0.5494240538
O   O22       1.0  0.80840  0.79150  0.13624  1.0000 -0.5494240538
O   O23       1.0  0.80160  0.71098  0.55702  1.0000 -0.5228232608
O   O24       1.0  0.80160  0.78902  0.05702  1.0000 -0.5228232608
O   O25       1.0  0.94720  0.68811  0.64193  1.0000 -0.5097201929
O   O26       1.0  0.94720  0.81189  0.14193  1.0000 -0.5097201929
O   O27       1.0  0.94170  0.69214  0.56318  1.0000 -0.5417221996
O   O28       1.0  0.94170  0.80786  0.06318  1.0000 -0.5417221996
O   O29       1.0  0.97680  0.78753  0.64552  1.0000 -0.529427146
O   O30       1.0  0.97680  0.71247  0.14552  1.0000 -0.529427146
O   O31       1.0  0.96740  0.79358  0.56689  1.0000 -0.529427146
O   O32       1.0  0.96740  0.70642  0.06689  1.0000 -0.529427146
O   O33       1.0  0.03660  0.45340  0.54980  1.0000 -0.5097201929
O   O34       1.0  0.03660  0.04660  0.04980  1.0000 -0.5097201929
O   O35       1.0  0.52930  0.55060  0.54710  1.0000 -0.5836980805
O   O36       1.0  0.52930  0.94940  0.04710  1.0000 -0.5892371998
O   O37       1.0  0.19100  0.97650  0.68120  1.0000 -0.5892371998
O   O38       1.0  0.19100  0.52350  0.18120  1.0000 -0.5962221489
O   O39       1.0  0.69320  0.02090  0.68590  1.0000 -0.4871420875
O   O40       1.0  0.69320  0.47910  0.18590  1.0000 -0.4871420875
O   O41       1.0  0.69320  0.79480  0.85344  1.0000 -0.529427146
O   O42       1.0  0.69320  0.70520  0.35344  1.0000 -0.529427146
O   O43       1.0  0.69500  0.78854  0.93262  1.0000 -0.5417221996
O   O44       1.0  0.69500  0.71146  0.43262  1.0000 -0.5417221996
O   O45       1.0  0.55250  0.81204  0.85066  1.0000 -0.5494240538
O   O46       1.0  0.55250  0.68796  0.35066  1.0000 -0.5494240538
O   O47       1.0  0.55680  0.81226  0.93050  1.0000 -0.5417221996
O   O48       1.0  0.55680  0.68774  0.43050  1.0000 -0.5417221996
O   O49       1.0  0.66870  0.69524  0.85701  1.0000 -0.5494240538
O   O50       1.0  0.66870  0.80476  0.35701  1.0000 -0.5494240538
O   O51       1.0  0.65930  0.68836  0.93519  1.0000 -0.5228232608
O   O52       1.0  0.65930  0.81164  0.43519  1.0000 -0.5228232608
O   O53       1.0  0.52930  0.71064  0.84313  1.0000 -0.529427146
O   O54       1.0  0.52930  0.78936  0.34313  1.0000 -0.5417221996
O   O55       1.0  0.52180  0.71316  0.92127  1.0000 -0.529427146
O   O56       1.0  0.52180  0.78684  0.42127  1.0000 -0.529427146
O   O57       1.0  0.16200  0.30701  0.86280  1.0000 -0.5417221996
O   O58       1.0  0.16200  0.19299  0.36280  1.0000 -0.5417221996
O   O59       1.0  0.17310  0.31133  0.94190  1.0000 -0.529427146
O   O60       1.0  0.17310  0.18867  0.44190  1.0000 -0.529427146
O   O61       1.0  0.19160  0.20850  0.86376  1.0000 -0.5494240538
O   O62       1.0  0.19160  0.29150  0.36376  1.0000 -0.5494240538
O   O63       1.0  0.19840  0.21098  0.94298  1.0000 -0.5228232608
O   O64       1.0  0.19840  0.28902  0.44298  1.0000 -0.5228232608
O   O65       1.0  0.05280  0.18811  0.85807  1.0000 -0.5097201929
O   O66       1.0  0.05280  0.31189  0.35807  1.0000 -0.5097201929
O   O67       1.0  0.05830  0.19214  0.93682  1.0000 -0.5417221996
O   O68       1.0  0.05830  0.30786  0.43682  1.0000 -0.5417221996
O   O69       1.0  0.02320  0.28753  0.85448  1.0000 -0.529427146
O   O70       1.0  0.02320  0.21247  0.35448  1.0000 -0.529427146
O   O71       1.0  0.03260  0.29358  0.93311  1.0000 -0.529427146
O   O72       1.0  0.03260  0.20642  0.43311  1.0000 -0.529427146
O   O73       1.0  0.96340  0.95340  0.95020  1.0000 -0.5097201929
O   O74       1.0  0.96340  0.54660  0.45020  1.0000 -0.5097201929
O   O75       1.0  0.47070  0.05060  0.95290  1.0000 -0.5836980805
O   O76       1.0  0.47070  0.44940  0.45290  1.0000 -0.5892371998
O   O77       1.0  0.80900  0.47650  0.81880  1.0000 -0.5892371998
O   O78       1.0  0.80900  0.02350  0.31880  1.0000 -0.5892371998
O   O79       1.0  0.30680  0.52090  0.81410  1.0000 -0.4871420875
O   O80       1.0  0.30680  0.97910  0.31410  1.0000 -0.4871420875
