# DDEC6 charges by PACMAN v1.1 (https://github.com/mtap-research/PACMAN-charge/)
data_2015[La][bcu]3[FSR]1
_chemical_formula_sum              "La2 H48 C88 S8 N8 O24"
_cell_length_a       15.44
_cell_length_b       15.44
_cell_length_c       10.021
_cell_angle_alpha    90
_cell_angle_beta     90
_cell_angle_gamma    90

_symmetry_space_group_name_H-M    "P 1"
_symmetry_Int_Tables_number       1

loop_
  _symmetry_equiv_pos_as_xyz
  'x, y, z'

loop_
  _atom_site_type_symbol
  _atom_site_label
  _atom_site_symmetry_multiplicity
  _atom_site_fract_x
  _atom_site_fract_y
  _atom_site_fract_z
  _atom_site_occupancy
  _atom_site_charge
La  La1       1.0  0.50000  0.50000  0.25000  1.0000 2.0906389331
La  La2       1.0  0.50000  0.50000  0.75000  1.0000 2.0906389331
H   H1        1.0  0.74160  0.41140  0.80040  1.0000 0.1398895523
H   H2        1.0  0.25840  0.58860  0.80040  1.0000 0.1398895523
H   H3        1.0  0.41140  0.25840  0.80040  1.0000 0.1398895523
H   H4        1.0  0.58860  0.74160  0.80040  1.0000 0.1398895523
H   H5        1.0  0.74160  0.58860  0.69960  1.0000 0.1398895523
H   H6        1.0  0.25840  0.41140  0.69960  1.0000 0.1398895523
H   H7        1.0  0.41140  0.74160  0.69960  1.0000 0.1398895523
H   H8        1.0  0.58860  0.25840  0.69960  1.0000 0.1398895523
H   H9        1.0  0.25840  0.58860  0.19960  1.0000 0.1398895523
H   H10       1.0  0.74160  0.41140  0.19960  1.0000 0.1398895523
H   H11       1.0  0.58860  0.74160  0.19960  1.0000 0.1398895523
H   H12       1.0  0.41140  0.25840  0.19960  1.0000 0.1398895523
H   H13       1.0  0.25840  0.41140  0.30040  1.0000 0.1398895523
H   H14       1.0  0.74160  0.58860  0.30040  1.0000 0.1398895523
H   H15       1.0  0.58860  0.25840  0.30040  1.0000 0.1398895523
H   H16       1.0  0.41140  0.74160  0.30040  1.0000 0.1398895523
H   H17       1.0  0.82200  0.28460  0.80260  1.0000 0.1337442139
H   H18       1.0  0.17800  0.71540  0.80260  1.0000 0.1337442139
H   H19       1.0  0.28460  0.17800  0.80260  1.0000 0.1337442139
H   H20       1.0  0.71540  0.82200  0.80260  1.0000 0.1337442139
H   H21       1.0  0.82200  0.71540  0.69740  1.0000 0.1337442139
H   H22       1.0  0.17800  0.28460  0.69740  1.0000 0.1337442139
H   H23       1.0  0.28460  0.82200  0.69740  1.0000 0.1337442139
H   H24       1.0  0.71540  0.17800  0.69740  1.0000 0.1337442139
H   H25       1.0  0.17800  0.71540  0.19740  1.0000 0.1337442139
H   H26       1.0  0.82200  0.28460  0.19740  1.0000 0.1337442139
H   H27       1.0  0.71540  0.82200  0.19740  1.0000 0.1337442139
H   H28       1.0  0.28460  0.17800  0.19740  1.0000 0.1337442139
H   H29       1.0  0.17800  0.28460  0.30260  1.0000 0.1337442139
H   H30       1.0  0.82200  0.71540  0.30260  1.0000 0.1337442139
H   H31       1.0  0.71540  0.17800  0.30260  1.0000 0.1337442139
H   H32       1.0  0.28460  0.82200  0.30260  1.0000 0.1337442139
H   H33       1.0  0.99710  0.33130  0.00000  1.0000 0.1337442139
H   H34       1.0  0.00290  0.66870  0.00000  1.0000 0.1398895523
H   H35       1.0  0.33130  0.00290  0.00000  1.0000 0.1337442139
H   H36       1.0  0.66870  0.99710  0.00000  1.0000 0.1337442139
H   H37       1.0  0.99710  0.66870  0.50000  1.0000 0.1337442139
H   H38       1.0  0.00290  0.33130  0.50000  1.0000 0.1398895523
H   H39       1.0  0.33130  0.99710  0.50000  1.0000 0.1398895523
H   H40       1.0  0.66870  0.00290  0.50000  1.0000 0.1337442139
H   H41       1.0  0.15040  0.29570  0.00000  1.0000 0.1507863676
H   H42       1.0  0.84960  0.70430  0.00000  1.0000 0.1507863676
H   H43       1.0  0.29570  0.84960  0.00000  1.0000 0.1507863676
H   H44       1.0  0.70430  0.15040  0.00000  1.0000 0.1507863676
H   H45       1.0  0.15040  0.70430  0.50000  1.0000 0.1507863676
H   H46       1.0  0.84960  0.29570  0.50000  1.0000 0.1507863676
H   H47       1.0  0.29570  0.15040  0.50000  1.0000 0.1507863676
H   H48       1.0  0.70430  0.84960  0.50000  1.0000 0.1507863676
C   C1        1.0  0.73590  0.42410  0.00000  1.0000 -0.0871431405
C   C2        1.0  0.26410  0.57590  0.00000  1.0000 -0.0871431405
C   C3        1.0  0.42410  0.26410  0.00000  1.0000 -0.0871431405
C   C4        1.0  0.57590  0.73590  0.00000  1.0000 -0.0871431405
C   C5        1.0  0.73590  0.57590  0.50000  1.0000 -0.0871431405
C   C6        1.0  0.26410  0.42410  0.50000  1.0000 -0.0871431405
C   C7        1.0  0.42410  0.73590  0.50000  1.0000 -0.0871431405
C   C8        1.0  0.57590  0.26410  0.50000  1.0000 -0.0871431405
C   C9        1.0  0.75820  0.38640  0.88100  1.0000 -0.0687886664
C   C10       1.0  0.24180  0.61360  0.88100  1.0000 -0.0687886664
C   C11       1.0  0.38640  0.24180  0.88100  1.0000 -0.0687886664
C   C12       1.0  0.61360  0.75820  0.88100  1.0000 -0.0687886664
C   C13       1.0  0.75820  0.61360  0.61900  1.0000 -0.0687886664
C   C14       1.0  0.24180  0.38640  0.61900  1.0000 -0.0687886664
C   C15       1.0  0.38640  0.75820  0.61900  1.0000 -0.0687886664
C   C16       1.0  0.61360  0.24180  0.61900  1.0000 -0.0687886664
C   C17       1.0  0.24180  0.61360  0.11900  1.0000 -0.0687886664
C   C18       1.0  0.75820  0.38640  0.11900  1.0000 -0.0687886664
C   C19       1.0  0.61360  0.75820  0.11900  1.0000 -0.0687886664
C   C20       1.0  0.38640  0.24180  0.11900  1.0000 -0.0687886664
C   C21       1.0  0.24180  0.38640  0.38100  1.0000 -0.0687886664
C   C22       1.0  0.75820  0.61360  0.38100  1.0000 -0.0687886664
C   C23       1.0  0.61360  0.24180  0.38100  1.0000 -0.0687886664
C   C24       1.0  0.38640  0.75820  0.38100  1.0000 -0.0687886664
C   C25       1.0  0.80630  0.31010  0.88310  1.0000 -0.1152530039
C   C26       1.0  0.19370  0.68990  0.88310  1.0000 -0.1152530039
C   C27       1.0  0.31010  0.19370  0.88310  1.0000 -0.1152530039
C   C28       1.0  0.68990  0.80630  0.88310  1.0000 -0.1152530039
C   C29       1.0  0.80630  0.68990  0.61690  1.0000 -0.1152530039
C   C30       1.0  0.19370  0.31010  0.61690  1.0000 -0.1152530039
C   C31       1.0  0.31010  0.80630  0.61690  1.0000 -0.1152530039
C   C32       1.0  0.68990  0.19370  0.61690  1.0000 -0.1152530039
C   C33       1.0  0.19370  0.68990  0.11690  1.0000 -0.1152530039
C   C34       1.0  0.80630  0.31010  0.11690  1.0000 -0.1152530039
C   C35       1.0  0.68990  0.80630  0.11690  1.0000 -0.1152530039
C   C36       1.0  0.31010  0.19370  0.11690  1.0000 -0.1152530039
C   C37       1.0  0.19370  0.31010  0.38310  1.0000 -0.1152530039
C   C38       1.0  0.80630  0.68990  0.38310  1.0000 -0.1152530039
C   C39       1.0  0.68990  0.19370  0.38310  1.0000 -0.1152530039
C   C40       1.0  0.31010  0.80630  0.38310  1.0000 -0.1152530039
C   C41       1.0  0.83110  0.27120  0.00000  1.0000 0.0774599326
C   C42       1.0  0.16890  0.72880  0.00000  1.0000 0.0774599326
C   C43       1.0  0.27120  0.16890  0.00000  1.0000 0.0774599326
C   C44       1.0  0.72880  0.83110  0.00000  1.0000 0.0774599326
C   C45       1.0  0.83110  0.72880  0.50000  1.0000 0.0774599326
C   C46       1.0  0.16890  0.27120  0.50000  1.0000 0.0774599326
C   C47       1.0  0.27120  0.83110  0.50000  1.0000 0.0774599326
C   C48       1.0  0.72880  0.16890  0.50000  1.0000 0.0774599326
C   C49       1.0  0.88190  0.18980  0.00000  1.0000 -0.0609240277
C   C50       1.0  0.11810  0.81020  0.00000  1.0000 -0.0609240277
C   C51       1.0  0.18980  0.11810  0.00000  1.0000 -0.0609240277
C   C52       1.0  0.81020  0.88190  0.00000  1.0000 -0.0609240277
C   C53       1.0  0.88190  0.81020  0.50000  1.0000 -0.0609240277
C   C54       1.0  0.11810  0.18980  0.50000  1.0000 -0.0609240277
C   C55       1.0  0.18980  0.88190  0.50000  1.0000 -0.0609240277
C   C56       1.0  0.81020  0.11810  0.50000  1.0000 -0.0609240277
C   C57       1.0  0.97190  0.19730  0.00000  1.0000 0.1978110497
C   C58       1.0  0.02810  0.80270  0.00000  1.0000 0.1978110497
C   C59       1.0  0.19730  0.02810  0.00000  1.0000 0.1978110497
C   C60       1.0  0.80270  0.97190  0.00000  1.0000 0.1978110497
C   C61       1.0  0.97190  0.80270  0.50000  1.0000 0.1978110497
C   C62       1.0  0.02810  0.19730  0.50000  1.0000 0.1978110497
C   C63       1.0  0.19730  0.97190  0.50000  1.0000 0.1978110497
C   C64       1.0  0.80270  0.02810  0.50000  1.0000 0.1978110497
C   C65       1.0  0.02030  0.27570  0.00000  1.0000 -0.1753542721
C   C66       1.0  0.97970  0.72430  0.00000  1.0000 -0.1753542721
C   C67       1.0  0.27570  0.97970  0.00000  1.0000 -0.1753542721
C   C68       1.0  0.72430  0.02030  0.00000  1.0000 -0.1753542721
C   C69       1.0  0.02030  0.72430  0.50000  1.0000 -0.1753542721
C   C70       1.0  0.97970  0.27570  0.50000  1.0000 -0.1753542721
C   C71       1.0  0.27570  0.02030  0.50000  1.0000 -0.1753542721
C   C72       1.0  0.72430  0.97970  0.50000  1.0000 -0.1753542721
C   C73       1.0  0.10490  0.25620  0.00000  1.0000 -0.1739925022
C   C74       1.0  0.89510  0.74380  0.00000  1.0000 -0.1753542721
C   C75       1.0  0.25620  0.89510  0.00000  1.0000 -0.1753542721
C   C76       1.0  0.74380  0.10490  0.00000  1.0000 -0.1739925022
C   C77       1.0  0.10490  0.74380  0.50000  1.0000 -0.1739925022
C   C78       1.0  0.89510  0.25620  0.50000  1.0000 -0.1753542721
C   C79       1.0  0.25620  0.10490  0.50000  1.0000 -0.1739925022
C   C80       1.0  0.74380  0.89510  0.50000  1.0000 -0.1753542721
C   C81       1.0  0.11260  0.16520  0.00000  1.0000 0.1875629698
C   C82       1.0  0.88740  0.83480  0.00000  1.0000 0.1875629698
C   C83       1.0  0.16520  0.88740  0.00000  1.0000 0.1875629698
C   C84       1.0  0.83480  0.11260  0.00000  1.0000 0.1875629698
C   C85       1.0  0.11260  0.83480  0.50000  1.0000 0.1875629698
C   C86       1.0  0.88740  0.16520  0.50000  1.0000 0.1875629698
C   C87       1.0  0.16520  0.11260  0.50000  1.0000 0.1875629698
C   C88       1.0  0.83480  0.88740  0.50000  1.0000 0.1875629698
S   S1        1.0  0.68505  0.52633  0.00000  1.0000 1.2342885112
S   S2        1.0  0.31495  0.47367  0.00000  1.0000 1.2342885112
S   S3        1.0  0.52633  0.31495  0.00000  1.0000 1.2342885112
S   S4        1.0  0.47367  0.68505  0.00000  1.0000 1.2342885112
S   S5        1.0  0.68505  0.47367  0.50000  1.0000 1.2342885112
S   S6        1.0  0.31495  0.52633  0.50000  1.0000 1.2342885112
S   S7        1.0  0.52633  0.68505  0.50000  1.0000 1.2342885112
S   S8        1.0  0.47367  0.31495  0.50000  1.0000 1.2342885112
N   N1        1.0  0.03050  0.12900  0.00000  1.0000 -0.3056034917
N   N2        1.0  0.96950  0.87100  0.00000  1.0000 -0.3056034917
N   N3        1.0  0.12900  0.96950  0.00000  1.0000 -0.3056034917
N   N4        1.0  0.87100  0.03050  0.00000  1.0000 -0.3056034917
N   N5        1.0  0.03050  0.87100  0.50000  1.0000 -0.3056034917
N   N6        1.0  0.96950  0.12900  0.50000  1.0000 -0.3056034917
N   N7        1.0  0.12900  0.03050  0.50000  1.0000 -0.3056034917
N   N8        1.0  0.87100  0.96950  0.50000  1.0000 -0.3056034917
O   O1        1.0  0.63300  0.53163  0.11790  1.0000 -0.6690158273
O   O2        1.0  0.36700  0.46837  0.11790  1.0000 -0.6690158273
O   O3        1.0  0.53163  0.36700  0.11790  1.0000 -0.6690158273
O   O4        1.0  0.46837  0.63300  0.11790  1.0000 -0.6690158273
O   O5        1.0  0.63300  0.46837  0.38210  1.0000 -0.6690158273
O   O6        1.0  0.36700  0.53163  0.38210  1.0000 -0.6690158273
O   O7        1.0  0.53163  0.63300  0.38210  1.0000 -0.6690158273
O   O8        1.0  0.46837  0.36700  0.38210  1.0000 -0.6690158273
O   O9        1.0  0.36700  0.46837  0.88210  1.0000 -0.6690158273
O   O10       1.0  0.63300  0.53163  0.88210  1.0000 -0.6690158273
O   O11       1.0  0.46837  0.63300  0.88210  1.0000 -0.6690158273
O   O12       1.0  0.53163  0.36700  0.88210  1.0000 -0.6690158273
O   O13       1.0  0.36700  0.53163  0.61790  1.0000 -0.6690158273
O   O14       1.0  0.63300  0.46837  0.61790  1.0000 -0.6690158273
O   O15       1.0  0.46837  0.36700  0.61790  1.0000 -0.6690158273
O   O16       1.0  0.53163  0.63300  0.61790  1.0000 -0.6690158273
O   O17       1.0  0.75351  0.58815  0.00000  1.0000 -0.544071498
O   O18       1.0  0.24649  0.41185  0.00000  1.0000 -0.544071498
O   O19       1.0  0.58815  0.24649  0.00000  1.0000 -0.544071498
O   O20       1.0  0.41185  0.75351  0.00000  1.0000 -0.544071498
O   O21       1.0  0.75351  0.41185  0.50000  1.0000 -0.544071498
O   O22       1.0  0.24649  0.58815  0.50000  1.0000 -0.544071498
O   O23       1.0  0.58815  0.75351  0.50000  1.0000 -0.544071498
O   O24       1.0  0.41185  0.24649  0.50000  1.0000 -0.544071498
