# DDEC6 charges by PACMAN v1.1 (https://github.com/mtap-research/PACMAN-charge/)
data_2015[Co][nan]3[FSR]10
_chemical_formula_sum              "Co4 H16 C18 N8 O14"
_cell_length_a       10.1792
_cell_length_b       6.7279
_cell_length_c       12.8158
_cell_angle_alpha    90
_cell_angle_beta     111.698
_cell_angle_gamma    90

_symmetry_space_group_name_H-M    "P 1"
_symmetry_Int_Tables_number       1

loop_
  _symmetry_equiv_pos_as_xyz
  'x, y, z'

loop_
  _atom_site_type_symbol
  _atom_site_label
  _atom_site_symmetry_multiplicity
  _atom_site_fract_x
  _atom_site_fract_y
  _atom_site_fract_z
  _atom_site_occupancy
  _atom_site_charge
Co  Co1       1.0  0.86880  0.75000  0.73400  1.0000 0.8828584919
Co  Co2       1.0  0.13120  0.25000  0.26600  1.0000 0.8828584919
Co  Co3       1.0  0.00000  0.50000  0.00000  1.0000 0.8681065211
Co  Co4       1.0  0.00000  0.00000  0.00000  1.0000 0.8681065211
H   H1        1.0  0.41580  0.75000  0.75480  1.0000 0.1206686268
H   H2        1.0  0.58420  0.25000  0.24520  1.0000 0.1206686268
H   H3        1.0  0.05610  0.75000  0.48190  1.0000 0.1318169827
H   H4        1.0  0.94390  0.25000  0.51810  1.0000 0.1318169827
H   H5        1.0  0.43170  0.75000  0.44600  1.0000 0.1318169827
H   H6        1.0  0.56830  0.25000  0.55400  1.0000 0.1318169827
H   H7        1.0  0.06100  0.75000  0.89200  1.0000 0.3451648722
H   H8        1.0  0.93900  0.25000  0.10800  1.0000 0.3451648722
H   H9        1.0  0.74500  0.42470  0.97120  1.0000 0.3266199598
H   H10       1.0  0.25500  0.92470  0.02880  1.0000 0.3266199598
H   H11       1.0  0.25500  0.57530  0.02880  1.0000 0.3266199598
H   H12       1.0  0.74500  0.07530  0.97120  1.0000 0.3266199598
H   H13       1.0  0.71700  0.62330  0.96610  1.0000 0.3610247741
H   H14       1.0  0.28300  0.12330  0.03390  1.0000 0.3610247741
H   H15       1.0  0.28300  0.37670  0.03390  1.0000 0.3610247741
H   H16       1.0  0.71700  0.87670  0.96610  1.0000 0.3610247741
C   C1        1.0  0.60630  0.75000  0.65840  1.0000 0.5360063085
C   C2        1.0  0.39370  0.25000  0.34160  1.0000 0.5360063085
C   C3        1.0  0.44790  0.75000  0.60850  1.0000 -0.0113571659
C   C4        1.0  0.55210  0.25000  0.39150  1.0000 -0.0113571659
C   C5        1.0  0.36980  0.75000  0.67720  1.0000 -0.1280845931
C   C6        1.0  0.63020  0.25000  0.32280  1.0000 -0.1280845931
C   C7        1.0  0.22270  0.75000  0.63000  1.0000 0.002907636
C   C8        1.0  0.77730  0.25000  0.37000  1.0000 0.002907636
C   C9        1.0  0.15430  0.75000  0.51360  1.0000 -0.1129834527
C   C10       1.0  0.84570  0.25000  0.48640  1.0000 -0.1129834527
C   C11       1.0  0.23240  0.75000  0.44460  1.0000 0.0389896998
C   C12       1.0  0.76760  0.25000  0.55540  1.0000 0.0389896998
C   C13       1.0  0.37930  0.75000  0.49200  1.0000 -0.1129834527
C   C14       1.0  0.62070  0.25000  0.50800  1.0000 -0.1129834527
C   C15       1.0  0.13700  0.75000  0.70470  1.0000 0.5564623246
C   C16       1.0  0.86300  0.25000  0.29530  1.0000 0.5564623246
C   C17       1.0  0.16040  0.75000  0.32070  1.0000 0.2926150033
C   C18       1.0  0.83960  0.25000  0.67930  1.0000 0.2926150033
N   N1        1.0  0.12490  0.58580  0.25738  1.0000 -0.2352834461
N   N2        1.0  0.87510  0.08580  0.74262  1.0000 -0.2352834461
N   N3        1.0  0.87510  0.41420  0.74262  1.0000 -0.2352834461
N   N4        1.0  0.12490  0.91420  0.25738  1.0000 -0.2352834461
N   N5        1.0  0.06510  0.65410  0.15223  1.0000 -0.0605183612
N   N6        1.0  0.93490  0.15410  0.84777  1.0000 -0.0605183612
N   N7        1.0  0.93490  0.34590  0.84777  1.0000 -0.0605183612
N   N8        1.0  0.06510  0.84590  0.15223  1.0000 -0.0605183612
O   O1        1.0  0.66940  0.75000  0.76370  1.0000 -0.5603716006
O   O2        1.0  0.33060  0.25000  0.23630  1.0000 -0.5603716006
O   O3        1.0  0.67540  0.75000  0.59540  1.0000 -0.5227707257
O   O4        1.0  0.32460  0.25000  0.40460  1.0000 -0.5227707257
O   O5        1.0  0.19920  0.75000  0.80760  1.0000 -0.5603716006
O   O6        1.0  0.80080  0.25000  0.19240  1.0000 -0.5603716006
O   O7        1.0  0.00600  0.75000  0.65600  1.0000 -0.543776237
O   O8        1.0  0.99400  0.25000  0.34400  1.0000 -0.543776237
O   O9        1.0  0.99480  0.75000  0.90463  1.0000 -0.8394251397
O   O10       1.0  0.00520  0.25000  0.09537  1.0000 -0.8394251397
O   O11       1.0  0.78130  0.53450  0.97470  1.0000 -0.6494876673
O   O12       1.0  0.21870  0.03450  0.02530  1.0000 -0.6494876673
O   O13       1.0  0.21870  0.46550  0.02530  1.0000 -0.6494876673
O   O14       1.0  0.78130  0.96550  0.97470  1.0000 -0.6494876673
