# DDEC6 charges by PACMAN v1.1 (https://github.com/mtap-research/PACMAN-charge/)
data_2015[Zn][dia]3[FSR]6
_chemical_formula_sum              "Zn8 H176 C192 N32 O32"
_cell_length_a       22.3606
_cell_length_b       20.0818
_cell_length_c       18.6114
_cell_angle_alpha    70.4881
_cell_angle_beta     57.8346
_cell_angle_gamma    51.6773

_symmetry_space_group_name_H-M    "P 1"
_symmetry_Int_Tables_number       1

loop_
  _symmetry_equiv_pos_as_xyz
  'x, y, z'

loop_
  _atom_site_type_symbol
  _atom_site_label
  _atom_site_symmetry_multiplicity
  _atom_site_fract_x
  _atom_site_fract_y
  _atom_site_fract_z
  _atom_site_occupancy
  _atom_site_charge
Zn  Zn1       1.0  0.93424  0.43990  0.05598  1.0000 0.7998117272
Zn  Zn2       1.0  0.68012  0.19402  0.81010  1.0000 0.7998117272
Zn  Zn3       1.0  0.43990  0.93424  0.56988  1.0000 0.7998117272
Zn  Zn4       1.0  0.19402  0.68012  0.31576  1.0000 0.7998117272
Zn  Zn5       1.0  0.50050  0.50050  0.49950  1.0000 0.7900296116
Zn  Zn6       1.0  0.75050  0.75050  0.74950  1.0000 0.7900296116
Zn  Zn7       1.0  0.88346  0.88346  0.11654  1.0000 0.7998117272
Zn  Zn8       1.0  0.13346  0.13346  0.36654  1.0000 0.7998117272
H   H1        1.0  0.08740  0.26500  0.99920  1.0000 0.2892499307
H   H2        1.0  0.60160  0.25080  0.98500  1.0000 0.2892499307
H   H3        1.0  0.82570  0.54690  0.21250  1.0000 0.2892499307
H   H4        1.0  0.83510  0.03750  0.70310  1.0000 0.2892499307
H   H5        1.0  0.46750  0.22610  0.84030  1.0000 0.1209792679
H   H6        1.0  0.78390  0.40970  0.02390  1.0000 0.1209792679
H   H7        1.0  0.67130  0.35090  0.58750  1.0000 0.1274137138
H   H8        1.0  0.85970  0.66250  0.89910  1.0000 0.1274137138
H   H9        1.0  0.34440  0.25080  0.86140  1.0000 0.1209792679
H   H10       1.0  0.70660  0.38860  0.99920  1.0000 0.1209792679
H   H11       1.0  0.68890  0.42930  0.46550  1.0000 0.1209792679
H   H12       1.0  0.83370  0.78450  0.82070  1.0000 0.1209792679
H   H13       1.0  0.22370  0.35130  0.08910  1.0000 0.1209792679
H   H14       1.0  0.91410  0.16090  0.89870  1.0000 0.1209792679
H   H15       1.0  0.93410  0.23830  0.35630  1.0000 0.1209792679
H   H16       1.0  0.77870  0.89370  0.01170  1.0000 0.1209792679
H   H17       1.0  0.34590  0.33170  0.06530  1.0000 0.1209792679
H   H18       1.0  0.99290  0.18470  0.91830  1.0000 0.1209792679
H   H19       1.0  0.91650  0.15950  0.47990  1.0000 0.1209792679
H   H20       1.0  0.80590  0.77010  0.09050  1.0000 0.1209792679
H   H21       1.0  0.11250  0.49550  0.98210  1.0000 0.1507849301
H   H22       1.0  0.84010  0.26790  0.75450  1.0000 0.1507849301
H   H23       1.0  0.08840  0.47240  0.07860  1.0000 0.1408980403
H   H24       1.0  0.88940  0.17140  0.77760  1.0000 0.1408980403
H   H25       1.0  0.02160  0.51400  0.04400  1.0000 0.1507849301
H   H26       1.0  0.82960  0.20600  0.73600  1.0000 0.1507849301
H   H27       1.0  0.97200  0.25320  0.18140  1.0000 0.1507849301
H   H28       1.0  0.65660  0.06860  0.99680  1.0000 0.1507849301
H   H29       1.0  0.89820  0.29760  0.15620  1.0000 0.1507849301
H   H30       1.0  0.60200  0.09380  0.95240  1.0000 0.1507849301
H   H31       1.0  0.88820  0.25680  0.24660  1.0000 0.1507849301
H   H32       1.0  0.64160  0.00340  0.99320  1.0000 0.1507849301
H   H33       1.0  0.25670  0.14610  0.91710  1.0000 0.1507849301
H   H34       1.0  0.56990  0.33290  0.10390  1.0000 0.1507849301
H   H35       1.0  0.23150  0.12790  0.01430  1.0000 0.1507849301
H   H36       1.0  0.62370  0.23570  0.12210  1.0000 0.1507849301
H   H37       1.0  0.30450  0.14350  0.95730  1.0000 0.1408980403
H   H38       1.0  0.65530  0.29270  0.10650  1.0000 0.1408980403
H   H39       1.0  0.69710  0.55670  0.41150  1.0000 0.1578123267
H   H40       1.0  0.91530  0.83850  0.69330  1.0000 0.1578123267
H   H41       1.0  0.75580  0.59060  0.35480  1.0000 0.1578123267
H   H42       1.0  0.95120  0.89520  0.65940  1.0000 0.1578123267
H   H43       1.0  0.77980  0.51640  0.41960  1.0000 0.1507849301
H   H44       1.0  0.96580  0.83040  0.73360  1.0000 0.1507849301
H   H45       1.0  0.26500  0.08740  0.64840  1.0000 0.2892499307
H   H46       1.0  0.25080  0.60160  0.16260  1.0000 0.2892499307
H   H47       1.0  0.54690  0.82570  0.41490  1.0000 0.2892499307
H   H48       1.0  0.03750  0.83510  0.42430  1.0000 0.2892499307
H   H49       1.0  0.22610  0.46750  0.46610  1.0000 0.1209792679
H   H50       1.0  0.40970  0.78390  0.78250  1.0000 0.1209792679
H   H51       1.0  0.35090  0.67130  0.39030  1.0000 0.1274137138
H   H52       1.0  0.66250  0.85970  0.57870  1.0000 0.1274137138
H   H53       1.0  0.25080  0.34440  0.54340  1.0000 0.1209792679
H   H54       1.0  0.38860  0.70660  0.90560  1.0000 0.1209792679
H   H55       1.0  0.42930  0.68890  0.41630  1.0000 0.1209792679
H   H56       1.0  0.78450  0.83370  0.56110  1.0000 0.1209792679
H   H57       1.0  0.35130  0.22370  0.33590  1.0000 0.1209792679
H   H58       1.0  0.16090  0.91410  0.02630  1.0000 0.1209792679
H   H59       1.0  0.23830  0.93410  0.47130  1.0000 0.1209792679
H   H60       1.0  0.89370  0.77870  0.31590  1.0000 0.1209792679
H   H61       1.0  0.33170  0.34590  0.25710  1.0000 0.1209792679
H   H62       1.0  0.18470  0.99290  0.90410  1.0000 0.1209792679
H   H63       1.0  0.15950  0.91650  0.44410  1.0000 0.1209792679
H   H64       1.0  0.77010  0.80590  0.33350  1.0000 0.1209792679
H   H65       1.0  0.49550  0.11250  0.40990  1.0000 0.1507849301
H   H66       1.0  0.26790  0.84010  0.13750  1.0000 0.1507849301
H   H67       1.0  0.47240  0.08840  0.36060  1.0000 0.1408980403
H   H68       1.0  0.17140  0.88940  0.16160  1.0000 0.1408980403
H   H69       1.0  0.51400  0.02160  0.42040  1.0000 0.1507849301
H   H70       1.0  0.20600  0.82960  0.22840  1.0000 0.1507849301
H   H71       1.0  0.25320  0.97200  0.59340  1.0000 0.1507849301
H   H72       1.0  0.06860  0.65660  0.27800  1.0000 0.1507849301
H   H73       1.0  0.29760  0.89820  0.64800  1.0000 0.1507849301
H   H74       1.0  0.09380  0.60200  0.35180  1.0000 0.1507849301
H   H75       1.0  0.25680  0.88820  0.60840  1.0000 0.1507849301
H   H76       1.0  0.00340  0.64160  0.36180  1.0000 0.1507849301
H   H77       1.0  0.14610  0.25670  0.68010  1.0000 0.1507849301
H   H78       1.0  0.33290  0.56990  0.99330  1.0000 0.1507849301
H   H79       1.0  0.12790  0.23150  0.62630  1.0000 0.1507849301
H   H80       1.0  0.23570  0.62370  0.01850  1.0000 0.1507849301
H   H81       1.0  0.14350  0.30450  0.59470  1.0000 0.1408980403
H   H82       1.0  0.29270  0.65530  0.94550  1.0000 0.1408980403
H   H83       1.0  0.55670  0.69710  0.33470  1.0000 0.1578123267
H   H84       1.0  0.83850  0.91530  0.55290  1.0000 0.1578123267
H   H85       1.0  0.59060  0.75580  0.29880  1.0000 0.1578123267
H   H86       1.0  0.89520  0.95120  0.49420  1.0000 0.1578123267
H   H87       1.0  0.51640  0.77980  0.28420  1.0000 0.1507849301
H   H88       1.0  0.83040  0.96580  0.47020  1.0000 0.1507849301
H   H89       1.0  0.65250  0.34210  0.39810  1.0000 0.2892499307
H   H90       1.0  0.34210  0.65250  0.60730  1.0000 0.2892499307
H   H91       1.0  0.64270  0.85190  0.90790  1.0000 0.2892499307
H   H92       1.0  0.85190  0.64270  0.59750  1.0000 0.2892499307
H   H93       1.0  0.66500  0.97780  0.60540  1.0000 0.1209792679
H   H94       1.0  0.97780  0.66500  0.75180  1.0000 0.1209792679
H   H95       1.0  0.49820  0.64460  0.27220  1.0000 0.1209792679
H   H96       1.0  0.64460  0.49820  0.58500  1.0000 0.1209792679
H   H97       1.0  0.64640  0.09860  0.52420  1.0000 0.1209792679
H   H98       1.0  0.09860  0.64640  0.73080  1.0000 0.1209792679
H   H99       1.0  0.51920  0.72580  0.15140  1.0000 0.1209792679
H   H100      1.0  0.72580  0.51920  0.60360  1.0000 0.1209792679
H   H101      1.0  0.60370  0.20090  0.71070  1.0000 0.1209792679
H   H102      1.0  0.20090  0.60370  0.48470  1.0000 0.1209792679
H   H103      1.0  0.76530  0.53930  0.04910  1.0000 0.1209792679
H   H104      1.0  0.53930  0.76530  0.64630  1.0000 0.1209792679
H   H105      1.0  0.62000  0.08180  0.79220  1.0000 0.1209792679
H   H106      1.0  0.08180  0.62000  0.50600  1.0000 0.1209792679
H   H107      1.0  0.74400  0.45780  0.16820  1.0000 0.1209792679
H   H108      1.0  0.45780  0.74400  0.63000  1.0000 0.1209792679
H   H109      1.0  0.49290  0.32570  0.70890  1.0000 0.1507849301
H   H110      1.0  0.32570  0.49290  0.47250  1.0000 0.1507849301
H   H111      1.0  0.77750  0.54110  0.92430  1.0000 0.1507849301
H   H112      1.0  0.54110  0.77750  0.75710  1.0000 0.1507849301
H   H113      1.0  0.43070  0.35890  0.67090  1.0000 0.1507849301
H   H114      1.0  0.35890  0.43070  0.53950  1.0000 0.1507849301
H   H115      1.0  0.71050  0.57910  0.89110  1.0000 0.1507849301
H   H116      1.0  0.57910  0.71050  0.81930  1.0000 0.1507849301
H   H117      1.0  0.45590  0.41710  0.66930  1.0000 0.1507849301
H   H118      1.0  0.41710  0.45590  0.45770  1.0000 0.1507849301
H   H119      1.0  0.79230  0.58070  0.83290  1.0000 0.1507849301
H   H120      1.0  0.58070  0.79230  0.79410  1.0000 0.1507849301
H   H121      1.0  0.73590  0.15050  0.38550  1.0000 0.1578123267
H   H122      1.0  0.15050  0.73590  0.72810  1.0000 0.1578123267
H   H123      1.0  0.52190  0.86450  0.09950  1.0000 0.1578123267
H   H124      1.0  0.86450  0.52190  0.51410  1.0000 0.1578123267
H   H125      1.0  0.77940  0.12880  0.44120  1.0000 0.1578123267
H   H126      1.0  0.12880  0.77940  0.65060  1.0000 0.1578123267
H   H127      1.0  0.59940  0.80880  0.12120  1.0000 0.1578123267
H   H128      1.0  0.80880  0.59940  0.47060  1.0000 0.1578123267
H   H129      1.0  0.78040  0.19520  0.36700  1.0000 0.1578123267
H   H130      1.0  0.19520  0.78040  0.65740  1.0000 0.1578123267
H   H131      1.0  0.59260  0.88300  0.05480  1.0000 0.1578123267
H   H132      1.0  0.88300  0.59260  0.46960  1.0000 0.1578123267
H   H133      1.0  0.06560  0.79780  0.99280  1.0000 0.2892499307
H   H134      1.0  0.79780  0.06560  0.14380  1.0000 0.2892499307
H   H135      1.0  0.10620  0.25720  0.45220  1.0000 0.2892499307
H   H136      1.0  0.25720  0.10620  0.18440  1.0000 0.2892499307
H   H137      1.0  0.02620  0.02500  0.60180  1.0000 0.1274137138
H   H138      1.0  0.02500  0.02620  0.34700  1.0000 0.1274137138
H   H139      1.0  0.90300  0.64820  0.22500  1.0000 0.1274137138
H   H140      1.0  0.64820  0.90300  0.22380  1.0000 0.1274137138
H   H141      1.0  0.99530  0.95410  0.73050  1.0000 0.1209792679
H   H142      1.0  0.95410  0.99530  0.32010  1.0000 0.1209792679
H   H143      1.0  0.92990  0.51950  0.29590  1.0000 0.1209792679
H   H144      1.0  0.51950  0.92990  0.25470  1.0000 0.1209792679
H   H145      1.0  0.08230  0.02930  0.80670  1.0000 0.1274137138
H   H146      1.0  0.02930  0.08230  0.08170  1.0000 0.1274137138
H   H147      1.0  0.16830  0.44330  0.22070  1.0000 0.1274137138
H   H148      1.0  0.44330  0.16830  0.16770  1.0000 0.1274137138
H   H149      1.0  0.10360  0.10680  0.68400  1.0000 0.1209792679
H   H150      1.0  0.10680  0.10360  0.10560  1.0000 0.1209792679
H   H151      1.0  0.14440  0.56600  0.14320  1.0000 0.1209792679
H   H152      1.0  0.56600  0.14440  0.14640  1.0000 0.1209792679
H   H153      1.0  0.82200  0.99780  0.95900  1.0000 0.1507849301
H   H154      1.0  0.99780  0.82200  0.22120  1.0000 0.1507849301
H   H155      1.0  0.02880  0.29100  0.25220  1.0000 0.1507849301
H   H156      1.0  0.29100  0.02880  0.42800  1.0000 0.1507849301
H   H157      1.0  0.86020  0.04420  0.88140  1.0000 0.1408980403
H   H158      1.0  0.04420  0.86020  0.21420  1.0000 0.1408980403
H   H159      1.0  0.03580  0.36860  0.20580  1.0000 0.1408980403
H   H160      1.0  0.36860  0.03580  0.38980  1.0000 0.1408980403
H   H161      1.0  0.83190  0.06230  0.97370  1.0000 0.1507849301
H   H162      1.0  0.06230  0.83190  0.13210  1.0000 0.1507849301
H   H163      1.0  0.11790  0.27630  0.18770  1.0000 0.1507849301
H   H164      1.0  0.27630  0.11790  0.41810  1.0000 0.1507849301
H   H165      1.0  0.19670  0.82510  0.86930  1.0000 0.1507849301
H   H166      1.0  0.82510  0.19670  0.10890  1.0000 0.1507849301
H   H167      1.0  0.14110  0.38070  0.42490  1.0000 0.1507849301
H   H168      1.0  0.38070  0.14110  0.05330  1.0000 0.1507849301
H   H169      1.0  0.19490  0.83050  0.78450  1.0000 0.1578123267
H   H170      1.0  0.83050  0.19490  0.19010  1.0000 0.1578123267
H   H171      1.0  0.05990  0.46550  0.41950  1.0000 0.1578123267
H   H172      1.0  0.46550  0.05990  0.05510  1.0000 0.1578123267
H   H173      1.0  0.20060  0.75360  0.84680  1.0000 0.1578123267
H   H174      1.0  0.75360  0.20060  0.19900  1.0000 0.1578123267
H   H175      1.0  0.05100  0.40320  0.49640  1.0000 0.1578123267
H   H176      1.0  0.40320  0.05100  0.04940  1.0000 0.1578123267
C   C1        1.0  0.42000  0.27740  0.95040  1.0000 -0.0519828143
C   C2        1.0  0.89780  0.29960  0.97260  1.0000 -0.0519828143
C   C3        1.0  0.78980  0.24780  0.54860  1.0000 -0.0381360406
C   C4        1.0  0.83620  0.70140  0.00220  1.0000 -0.0381360406
C   C5        1.0  0.41830  0.25230  0.88990  1.0000 -0.0932448244
C   C6        1.0  0.81050  0.36010  0.99770  1.0000 -0.0932448244
C   C7        1.0  0.72450  0.32810  0.54110  1.0000 -0.1015965481
C   C8        1.0  0.84370  0.70890  0.92190  1.0000 -0.1015965481
C   C9        1.0  0.11130  0.38930  0.01410  1.0000 0.2185316804
C   C10       1.0  0.76470  0.23590  0.86070  1.0000 0.2185316804
C   C11       1.0  0.87480  0.36800  0.23440  1.0000 0.2338981891
C   C12       1.0  0.72720  0.01560  0.88200  1.0000 0.2338981891
C   C13       1.0  0.34480  0.26600  0.90300  1.0000 -0.1582135246
C   C14       1.0  0.76380  0.34700  0.98400  1.0000 -0.1582135246
C   C15       1.0  0.73480  0.37560  0.46800  1.0000 -0.1494725242
C   C16       1.0  0.82840  0.78200  0.87440  1.0000 -0.1494725242
C   C17       1.0  0.19120  0.31520  0.99380  1.0000 -0.1893071866
C   C18       1.0  0.75020  0.25620  0.93480  1.0000 -0.1893071866
C   C19       1.0  0.82810  0.39410  0.32130  1.0000 -0.1494725242
C   C20       1.0  0.79350  0.92870  0.85590  1.0000 -0.1494725242
C   C21       1.0  0.27080  0.30240  0.97820  1.0000 0.1074332429
C   C22       1.0  0.80140  0.27180  0.94760  1.0000 0.1074332429
C   C23       1.0  0.81560  0.34300  0.39620  1.0000 0.1074332429
C   C24       1.0  0.80480  0.85380  0.90700  1.0000 0.1074332429
C   C25       1.0  0.18670  0.25310  0.98450  1.0000 0.2136773382
C   C26       1.0  0.67430  0.26550  0.99690  1.0000 0.2136773382
C   C27       1.0  0.80360  0.47840  0.31460  1.0000 0.2136773382
C   C28       1.0  0.84660  0.93540  0.77160  1.0000 0.2136773382
C   C29       1.0  0.27250  0.32670  0.03870  1.0000 -0.1582135246
C   C30       1.0  0.88790  0.21130  0.92330  1.0000 -0.1582135246
C   C31       1.0  0.88120  0.26160  0.40300  1.0000 -0.1494725242
C   C32       1.0  0.79580  0.84700  0.98840  1.0000 -0.1494725242
C   C33       1.0  0.34610  0.31450  0.02450  1.0000 -0.1015965481
C   C34       1.0  0.93510  0.22550  0.93550  1.0000 -0.1015965481
C   C35       1.0  0.87090  0.21350  0.47710  1.0000 -0.0932448244
C   C36       1.0  0.81150  0.77290  0.03650  1.0000 -0.0932448244
C   C37       1.0  0.49960  0.26160  0.93620  1.0000 0.5662846529
C   C38       1.0  0.94740  0.31380  0.98840  1.0000 0.5662846529
C   C39       1.0  0.77970  0.19790  0.62910  1.0000 0.5662846529
C   C40       1.0  0.85670  0.62090  0.05210  1.0000 0.5662846529
C   C41       1.0  0.08070  0.47550  0.03130  1.0000 -0.4701542791
C   C42       1.0  0.83750  0.21870  0.77450  1.0000 -0.4701542791
C   C43       1.0  0.91160  0.28680  0.20180  1.0000 -0.4956816471
C   C44       1.0  0.65020  0.04820  0.96320  1.0000 -0.4956816471
C   C45       1.0  0.25070  0.15910  0.96670  1.0000 -0.4701542791
C   C46       1.0  0.62650  0.28330  0.09090  1.0000 -0.4701542791
C   C47       1.0  0.75480  0.54100  0.38100  1.0000 -0.4882155494
C   C48       1.0  0.92680  0.86900  0.70900  1.0000 -0.4882155494
C   C49       1.0  0.27740  0.42000  0.35220  1.0000 -0.0519828143
C   C50       1.0  0.29960  0.89780  0.83000  1.0000 -0.0519828143
C   C51       1.0  0.24780  0.78980  0.41380  1.0000 -0.0381360406
C   C52       1.0  0.70140  0.83620  0.46020  1.0000 -0.0381360406
C   C53       1.0  0.25230  0.41830  0.43950  1.0000 -0.0932448244
C   C54       1.0  0.36010  0.81050  0.83170  1.0000 -0.0932448244
C   C55       1.0  0.32810  0.72450  0.40630  1.0000 -0.1015965481
C   C56       1.0  0.70890  0.84370  0.52550  1.0000 -0.1015965481
C   C57       1.0  0.38930  0.11130  0.48530  1.0000 0.2185316804
C   C58       1.0  0.23590  0.76470  0.13870  1.0000 0.2185316804
C   C59       1.0  0.36800  0.87480  0.52280  1.0000 0.2338981891
C   C60       1.0  0.01560  0.72720  0.37520  1.0000 0.2338981891
C   C61       1.0  0.26600  0.34480  0.48620  1.0000 -0.1582135246
C   C62       1.0  0.34700  0.76380  0.90520  1.0000 -0.1582135246
C   C63       1.0  0.37560  0.73480  0.42160  1.0000 -0.1494725242
C   C64       1.0  0.78200  0.82840  0.51520  1.0000 -0.1494725242
C   C65       1.0  0.31520  0.19120  0.49980  1.0000 -0.1893071866
C   C66       1.0  0.25620  0.75020  0.05880  1.0000 -0.1893071866
C   C67       1.0  0.39410  0.82810  0.45650  1.0000 -0.1494725242
C   C68       1.0  0.92870  0.79350  0.42190  1.0000 -0.1494725242
C   C69       1.0  0.30240  0.27080  0.44860  1.0000 0.1074332429
C   C70       1.0  0.27180  0.80140  0.97920  1.0000 0.1074332429
C   C71       1.0  0.34300  0.81560  0.44520  1.0000 0.1074332429
C   C72       1.0  0.85380  0.80480  0.43440  1.0000 0.1074332429
C   C73       1.0  0.25310  0.18670  0.57570  1.0000 0.2136773382
C   C74       1.0  0.26550  0.67430  0.06330  1.0000 0.2136773382
C   C75       1.0  0.47840  0.80360  0.40340  1.0000 0.2136773382
C   C76       1.0  0.93540  0.84660  0.44640  1.0000 0.2136773382
C   C77       1.0  0.32670  0.27250  0.36210  1.0000 -0.1582135246
C   C78       1.0  0.21130  0.88790  0.97750  1.0000 -0.1582135246
C   C79       1.0  0.26160  0.88120  0.45420  1.0000 -0.1494725242
C   C80       1.0  0.84700  0.79580  0.36880  1.0000 -0.1494725242
C   C81       1.0  0.31450  0.34610  0.31490  1.0000 -0.1015965481
C   C82       1.0  0.22550  0.93510  0.90390  1.0000 -0.1015965481
C   C83       1.0  0.21350  0.87090  0.43850  1.0000 -0.0932448244
C   C84       1.0  0.77290  0.81150  0.37910  1.0000 -0.0932448244
C   C85       1.0  0.26160  0.49960  0.30260  1.0000 0.5662846529
C   C86       1.0  0.31380  0.94740  0.75040  1.0000 0.5662846529
C   C87       1.0  0.19790  0.77970  0.39330  1.0000 0.5662846529
C   C88       1.0  0.62090  0.85670  0.47030  1.0000 0.5662846529
C   C89       1.0  0.47550  0.08070  0.41250  1.0000 -0.4701542791
C   C90       1.0  0.21870  0.83750  0.16930  1.0000 -0.4701542791
C   C91       1.0  0.28680  0.91160  0.59980  1.0000 -0.4956816471
C   C92       1.0  0.04820  0.65020  0.33840  1.0000 -0.4956816471
C   C93       1.0  0.15910  0.25070  0.62350  1.0000 -0.4701542791
C   C94       1.0  0.28330  0.62650  0.99930  1.0000 -0.4701542791
C   C95       1.0  0.54100  0.75480  0.32320  1.0000 -0.4882155494
C   C96       1.0  0.86900  0.92680  0.49520  1.0000 -0.4882155494
C   C97       1.0  0.64860  0.01520  0.70560  1.0000 -0.0381360406
C   C98       1.0  0.01520  0.64860  0.63060  1.0000 -0.0381360406
C   C99       1.0  0.61940  0.54440  0.23480  1.0000 -0.0381360406
C   C100      1.0  0.54440  0.61940  0.60140  1.0000 -0.0381360406
C   C101      1.0  0.65370  0.02230  0.62630  1.0000 -0.1015965481
C   C102      1.0  0.02230  0.65370  0.69770  1.0000 -0.1015965481
C   C103      1.0  0.55230  0.62370  0.22770  1.0000 -0.1015965481
C   C104      1.0  0.62370  0.55230  0.59630  1.0000 -0.1015965481
C   C105      1.0  0.54960  0.32460  0.58000  1.0000 0.2185316804
C   C106      1.0  0.32460  0.54960  0.54580  1.0000 0.2185316804
C   C107      1.0  0.70420  0.67000  0.92540  1.0000 0.2185316804
C   C108      1.0  0.67000  0.70420  0.70040  1.0000 0.2185316804
C   C109      1.0  0.64210  0.09510  0.57770  1.0000 -0.1494725242
C   C110      1.0  0.09510  0.64210  0.68510  1.0000 -0.1494725242
C   C111      1.0  0.56490  0.67230  0.15490  1.0000 -0.1494725242
C   C112      1.0  0.67230  0.56490  0.60790  1.0000 -0.1494725242
C   C113      1.0  0.61340  0.23960  0.55660  1.0000 -0.17304546
C   C114      1.0  0.23960  0.61340  0.59040  1.0000 -0.17304546
C   C115      1.0  0.65960  0.69340  0.01040  1.0000 -0.17304546
C   C116      1.0  0.69340  0.65960  0.63660  1.0000 -0.17304546
C   C117      1.0  0.62420  0.16300  0.60840  1.0000 0.1074332429
C   C118      1.0  0.16300  0.62420  0.60440  1.0000 0.1074332429
C   C119      1.0  0.64560  0.64160  0.08700  1.0000 0.1074332429
C   C120      1.0  0.64160  0.64560  0.62580  1.0000 0.1074332429
C   C121      1.0  0.66667  0.24210  0.47030  1.0000 0.2136773382
C   C122      1.0  0.24210  0.66667  0.62090  1.0000 0.2136773382
C   C123      1.0  0.62910  0.77970  0.00790  1.0000 0.2136773382
C   C124      1.0  0.77970  0.62910  0.58330  1.0000 0.2136773382
C   C125      1.0  0.61650  0.15590  0.68890  1.0000 -0.1443930155
C   C126      1.0  0.15590  0.61650  0.53870  1.0000 -0.1443930155
C   C127      1.0  0.71130  0.56110  0.09410  1.0000 -0.1443930155
C   C128      1.0  0.56110  0.71130  0.63350  1.0000 -0.1443930155
C   C129      1.0  0.62720  0.08420  0.73760  1.0000 -0.1015965481
C   C130      1.0  0.08420  0.62720  0.55100  1.0000 -0.1015965481
C   C131      1.0  0.69900  0.51240  0.16580  1.0000 -0.1015965481
C   C132      1.0  0.51240  0.69900  0.62280  1.0000 -0.1015965481
C   C133      1.0  0.66510  0.93550  0.75710  1.0000 0.5662846529
C   C134      1.0  0.93550  0.66510  0.64230  1.0000 0.5662846529
C   C135      1.0  0.60770  0.49290  0.31450  1.0000 0.5662846529
C   C136      1.0  0.49290  0.60770  0.58490  1.0000 0.5662846529
C   C137      1.0  0.47560  0.35960  0.66500  1.0000 -0.4701542791
C   C138      1.0  0.35960  0.47560  0.49980  1.0000 -0.4701542791
C   C139      1.0  0.75020  0.58500  0.89040  1.0000 -0.4701542791
C   C140      1.0  0.58500  0.75020  0.77440  1.0000 -0.4701542791
C   C141      1.0  0.74780  0.17300  0.41080  1.0000 -0.4882155494
C   C142      1.0  0.17300  0.74780  0.66840  1.0000 -0.4882155494
C   C143      1.0  0.58160  0.83920  0.07700  1.0000 -0.4882155494
C   C144      1.0  0.83920  0.58160  0.50220  1.0000 -0.4882155494
C   C145      1.0  0.06920  0.07260  0.62900  1.0000 -0.0319337434
C   C146      1.0  0.07260  0.06920  0.22920  1.0000 -0.0319337434
C   C147      1.0  0.02080  0.62100  0.17740  1.0000 -0.0319337434
C   C148      1.0  0.62100  0.02080  0.18080  1.0000 -0.0319337434
C   C149      1.0  0.03650  0.02690  0.64310  1.0000 -0.0932448244
C   C150      1.0  0.02690  0.03650  0.29350  1.0000 -0.0932448244
C   C151      1.0  0.95650  0.60690  0.22310  1.0000 -0.0932448244
C   C152      1.0  0.60690  0.95650  0.21350  1.0000 -0.0932448244
C   C153      1.0  0.94370  0.94910  0.92870  1.0000 0.2185316804
C   C154      1.0  0.94910  0.94370  0.17850  1.0000 0.2185316804
C   C155      1.0  0.07150  0.32130  0.30090  1.0000 0.2185316804
C   C156      1.0  0.32130  0.07150  0.30630  1.0000 0.2185316804
C   C157      1.0  0.01900  0.98320  0.72040  1.0000 -0.1582135246
C   C158      1.0  0.98320  0.01900  0.27740  1.0000 -0.1582135246
C   C159      1.0  0.97260  0.52960  0.26680  1.0000 -0.1582135246
C   C160      1.0  0.52960  0.97260  0.23100  1.0000 -0.1582135246
C   C161      1.0  0.02040  0.93380  0.86240  1.0000 -0.1893071866
C   C162      1.0  0.93380  0.02040  0.18340  1.0000 -0.1893071866
C   C163      1.0  0.06660  0.38760  0.31620  1.0000 -0.1893071866
C   C164      1.0  0.38760  0.06660  0.22960  1.0000 -0.1893071866
C   C165      1.0  0.03650  0.98290  0.78190  1.0000 0.1074332429
C   C166      1.0  0.98290  0.03650  0.19870  1.0000 0.1074332429
C   C167      1.0  0.05130  0.46810  0.26710  1.0000 0.1074332429
C   C168      1.0  0.46810  0.05130  0.21350  1.0000 0.1074332429
C   C169      1.0  0.08250  0.86130  0.88750  1.0000 0.2185316804
C   C170      1.0  0.86130  0.08250  0.16870  1.0000 0.2185316804
C   C171      1.0  0.08130  0.36250  0.38870  1.0000 0.2185316804
C   C172      1.0  0.36250  0.08130  0.16750  1.0000 0.2185316804
C   C173      1.0  0.06970  0.02910  0.76650  1.0000 -0.1494725242
C   C174      1.0  0.02910  0.06970  0.13470  1.0000 -0.1494725242
C   C175      1.0  0.11530  0.48350  0.22090  1.0000 -0.1494725242
C   C176      1.0  0.48350  0.11530  0.18030  1.0000 -0.1494725242
C   C177      1.0  0.08380  0.07420  0.69240  1.0000 -0.0932448244
C   C178      1.0  0.07420  0.08380  0.14960  1.0000 -0.0932448244
C   C179      1.0  0.10040  0.55760  0.17580  1.0000 -0.0932448244
C   C180      1.0  0.55760  0.10040  0.16620  1.0000 -0.0932448244
C   C181      1.0  0.09130  0.11870  0.54570  1.0000 0.5566271806
C   C182      1.0  0.11870  0.09130  0.24430  1.0000 0.5566271806
C   C183      1.0  0.00570  0.70430  0.13130  1.0000 0.5566271806
C   C184      1.0  0.70430  0.00570  0.15870  1.0000 0.5566271806
C   C185      1.0  0.85660  0.01980  0.93640  1.0000 -0.4882155494
C   C186      1.0  0.01980  0.85660  0.18720  1.0000 -0.4882155494
C   C187      1.0  0.06280  0.31360  0.23020  1.0000 -0.4882155494
C   C188      1.0  0.31360  0.06280  0.39340  1.0000 -0.4882155494
C   C189      1.0  0.17720  0.81340  0.84300  1.0000 -0.4832226372
C   C190      1.0  0.81340  0.17720  0.16640  1.0000 -0.4832226372
C   C191      1.0  0.08360  0.40700  0.43660  1.0000 -0.4832226372
C   C192      1.0  0.40700  0.08360  0.07280  1.0000 -0.4832226372
N   N1        1.0  0.10660  0.29080  0.00000  1.0000 -0.1313027515
N   N2        1.0  0.64740  0.25000  0.95920  1.0000 -0.1313027515
N   N3        1.0  0.83320  0.49820  0.23160  1.0000 -0.1494725242
N   N4        1.0  0.81300  0.01840  0.75180  1.0000 -0.1494725242
N   N5        1.0  0.05930  0.37410  0.01730  1.0000 -0.2639259583
N   N6        1.0  0.70070  0.23270  0.87590  1.0000 -0.2639259583
N   N7        1.0  0.87690  0.43090  0.18150  1.0000 -0.2770076244
N   N8        1.0  0.73930  0.06850  0.81910  1.0000 -0.2770076244
N   N9        1.0  0.29080  0.10660  0.60260  1.0000 -0.1313027515
N   N10       1.0  0.25000  0.64740  0.14340  1.0000 -0.1313027515
N   N11       1.0  0.49820  0.83320  0.43700  1.0000 -0.1494725242
N   N12       1.0  0.01840  0.81300  0.41680  1.0000 -0.1494725242
N   N13       1.0  0.37410  0.05930  0.54930  1.0000 -0.2639259583
N   N14       1.0  0.23270  0.70070  0.19070  1.0000 -0.2639259583
N   N15       1.0  0.43090  0.87690  0.51070  1.0000 -0.2770076244
N   N16       1.0  0.06850  0.73930  0.37310  1.0000 -0.2770076244
N   N17       1.0  0.63170  0.32410  0.44830  1.0000 -0.1494725242
N   N18       1.0  0.32410  0.63170  0.59590  1.0000 -0.1494725242
N   N19       1.0  0.65410  0.80170  0.92590  1.0000 -0.1494725242
N   N20       1.0  0.80170  0.65410  0.61830  1.0000 -0.1494725242
N   N21       1.0  0.55990  0.37590  0.51390  1.0000 -0.2696475646
N   N22       1.0  0.37590  0.55990  0.55030  1.0000 -0.2696475646
N   N23       1.0  0.69970  0.73610  0.87410  1.0000 -0.2696475646
N   N24       1.0  0.73610  0.69970  0.69010  1.0000 -0.2696475646
N   N25       1.0  0.04140  0.83940  0.96360  1.0000 -0.1494725242
N   N26       1.0  0.83940  0.04140  0.15560  1.0000 -0.1494725242
N   N27       1.0  0.09440  0.28640  0.41060  1.0000 -0.1494725242
N   N28       1.0  0.28640  0.09440  0.20860  1.0000 -0.1494725242
N   N29       1.0  0.95540  0.89120  0.99020  1.0000 -0.2770076244
N   N30       1.0  0.89120  0.95540  0.16320  1.0000 -0.2770076244
N   N31       1.0  0.08680  0.25980  0.35880  1.0000 -0.2770076244
N   N32       1.0  0.25980  0.08680  0.29460  1.0000 -0.2770076244
O   O1        1.0  0.55962  0.24042  0.86038  1.0000 -0.5607629504
O   O2        1.0  0.91042  0.38962  0.00958  1.0000 -0.5607629504
O   O3        1.0  0.84080  0.12220  0.62900  1.0000 -0.5660746431
O   O4        1.0  0.84200  0.62100  0.12780  1.0000 -0.5660746431
O   O5        1.0  0.50470  0.26750  0.99770  1.0000 -0.5607629504
O   O6        1.0  0.01990  0.25230  0.98250  1.0000 -0.5607629504
O   O7        1.0  0.70943  0.23603  0.69417  1.0000 -0.539768908
O   O8        1.0  0.88963  0.55583  0.01397  1.0000 -0.539768908
O   O9        1.0  0.24042  0.55962  0.33958  1.0000 -0.5607629504
O   O10       1.0  0.38962  0.91042  0.69038  1.0000 -0.5607629504
O   O11       1.0  0.12220  0.84080  0.40800  1.0000 -0.5660746431
O   O12       1.0  0.62100  0.84200  0.40920  1.0000 -0.5660746431
O   O13       1.0  0.26750  0.50470  0.23010  1.0000 -0.5607629504
O   O14       1.0  0.25230  0.01990  0.74530  1.0000 -0.5607629504
O   O15       1.0  0.23603  0.70943  0.36037  1.0000 -0.539768908
O   O16       1.0  0.55583  0.88963  0.54057  1.0000 -0.539768908
O   O17       1.0  0.70020  0.87040  0.71740  1.0000 -0.5607629504
O   O18       1.0  0.87040  0.70020  0.71200  1.0000 -0.5607629504
O   O19       1.0  0.53800  0.53260  0.37960  1.0000 -0.5607629504
O   O20       1.0  0.53260  0.53800  0.54980  1.0000 -0.5607629504
O   O21       1.0  0.64360  0.93700  0.83340  1.0000 -0.5327409542
O   O22       1.0  0.93700  0.64360  0.58600  1.0000 -0.5327409542
O   O23       1.0  0.66400  0.41660  0.31300  1.0000 -0.5327409542
O   O24       1.0  0.41660  0.66400  0.60640  1.0000 -0.5327409542
O   O25       1.0  0.10270  0.17230  0.54190  1.0000 -0.539768908
O   O26       1.0  0.17230  0.10270  0.18310  1.0000 -0.539768908
O   O27       1.0  0.06690  0.70810  0.07770  1.0000 -0.539768908
O   O28       1.0  0.70810  0.06690  0.14730  1.0000 -0.539768908
O   O29       1.0  0.09787  0.09647  0.48393  1.0000 -0.539768908
O   O30       1.0  0.09647  0.09787  0.32173  1.0000 -0.539768908
O   O31       1.0  0.92827  0.76607  0.15353  1.0000 -0.539768908
O   O32       1.0  0.76607  0.92827  0.15213  1.0000 -0.539768908
