# DDEC6 charges by PACMAN v1.1 (https://github.com/mtap-research/PACMAN-charge/)
data_2015[Cd][rtl]3[FSR]2
_chemical_formula_sum              "Cd4 H36 C44 O24"
_cell_length_a       8.7173
_cell_length_b       19.4288
_cell_length_c       9.6558
_cell_angle_alpha    90
_cell_angle_beta     97.17
_cell_angle_gamma    90

_symmetry_space_group_name_H-M    "P 1"
_symmetry_Int_Tables_number       1

loop_
  _symmetry_equiv_pos_as_xyz
  'x, y, z'

loop_
  _atom_site_type_symbol
  _atom_site_label
  _atom_site_symmetry_multiplicity
  _atom_site_fract_x
  _atom_site_fract_y
  _atom_site_fract_z
  _atom_site_occupancy
  _atom_site_charge
Cd  Cd1       1.0  0.75190  0.26974  0.44106  1.0000 0.9979452077
Cd  Cd2       1.0  0.24810  0.76974  0.05894  1.0000 0.9979452077
Cd  Cd3       1.0  0.24810  0.73026  0.55894  1.0000 0.9979452077
Cd  Cd4       1.0  0.75190  0.23026  0.94106  1.0000 0.9979452077
H   H1        1.0  0.22150  0.95730  0.41980  1.0000 0.1207028251
H   H2        1.0  0.77850  0.45730  0.08020  1.0000 0.1207028251
H   H3        1.0  0.77850  0.04270  0.58020  1.0000 0.1207028251
H   H4        1.0  0.22150  0.54270  0.91980  1.0000 0.1207028251
H   H5        1.0  0.43610  0.21840  0.40120  1.0000 0.1207028251
H   H6        1.0  0.56390  0.71840  0.09880  1.0000 0.1207028251
H   H7        1.0  0.56390  0.78160  0.59880  1.0000 0.1207028251
H   H8        1.0  0.43610  0.28160  0.90120  1.0000 0.1207028251
H   H9        1.0  0.24660  0.16140  0.50440  1.0000 0.1207028251
H   H10       1.0  0.75340  0.66140  0.99560  1.0000 0.1207028251
H   H11       1.0  0.75340  0.83860  0.49560  1.0000 0.1207028251
H   H12       1.0  0.24660  0.33860  0.00440  1.0000 0.1207028251
H   H13       1.0  0.19950  0.02330  0.18760  1.0000 0.1096335013
H   H14       1.0  0.80050  0.52330  0.31240  1.0000 0.1096335013
H   H15       1.0  0.80050  0.97670  0.81240  1.0000 0.1096335013
H   H16       1.0  0.19950  0.47670  0.68760  1.0000 0.1096335013
H   H17       1.0  0.38310  0.08410  0.07890  1.0000 0.1259668354
H   H18       1.0  0.61690  0.58410  0.42110  1.0000 0.1259668354
H   H19       1.0  0.61690  0.91590  0.92110  1.0000 0.1259668354
H   H20       1.0  0.38310  0.41590  0.57890  1.0000 0.1259668354
H   H21       1.0  0.87300  0.37800  0.33200  1.0000 0.30039129
H   H22       1.0  0.12700  0.87800  0.16800  1.0000 0.30039129
H   H23       1.0  0.12700  0.62200  0.66800  1.0000 0.30039129
H   H24       1.0  0.87300  0.12200  0.83200  1.0000 0.30039129
H   H25       1.0  0.78300  0.35000  0.22600  1.0000 0.356864411
H   H26       1.0  0.21700  0.85000  0.27400  1.0000 0.356864411
H   H27       1.0  0.21700  0.65000  0.77400  1.0000 0.356864411
H   H28       1.0  0.78300  0.15000  0.72600  1.0000 0.356864411
H   H29       1.0  0.01100  0.34300  0.54100  1.0000 0.2850538376
H   H30       1.0  0.98900  0.84300  0.95900  1.0000 0.2850538376
H   H31       1.0  0.98900  0.65700  0.45900  1.0000 0.2850538376
H   H32       1.0  0.01100  0.15700  0.04100  1.0000 0.2850538376
H   H33       1.0  0.95100  0.32500  0.65400  1.0000 0.3431956355
H   H34       1.0  0.04900  0.82500  0.84600  1.0000 0.3431956355
H   H35       1.0  0.04900  0.67500  0.34600  1.0000 0.3431956355
H   H36       1.0  0.95100  0.17500  0.15400  1.0000 0.3431956355
C   C1        1.0  0.95870  0.06970  0.47720  1.0000 -0.0540104885
C   C2        1.0  0.04130  0.56970  0.02280  1.0000 -0.0540104885
C   C3        1.0  0.04130  0.93030  0.52280  1.0000 -0.0540104885
C   C4        1.0  0.95870  0.43030  0.97720  1.0000 -0.0540104885
C   C5        1.0  0.09380  0.04440  0.42860  1.0000 0.052772991
C   C6        1.0  0.90620  0.54440  0.07140  1.0000 0.052772991
C   C7        1.0  0.90620  0.95560  0.57140  1.0000 0.052772991
C   C8        1.0  0.09380  0.45560  0.92860  1.0000 0.052772991
C   C9        1.0  0.13110  0.97490  0.45270  1.0000 -0.1734302681
C   C10       1.0  0.86890  0.47490  0.04730  1.0000 -0.1734302681
C   C11       1.0  0.86890  0.02510  0.54730  1.0000 -0.1734302681
C   C12       1.0  0.13110  0.52510  0.95270  1.0000 -0.1734302681
C   C13       1.0  0.89710  0.14200  0.45030  1.0000 0.5674216185
C   C14       1.0  0.10290  0.64200  0.04970  1.0000 0.5674216185
C   C15       1.0  0.10290  0.85800  0.54970  1.0000 0.5674216185
C   C16       1.0  0.89710  0.35800  0.95030  1.0000 0.5674216185
C   C17       1.0  0.42980  0.15620  0.22970  1.0000 -0.0222543244
C   C18       1.0  0.57020  0.65620  0.27030  1.0000 -0.0222543244
C   C19       1.0  0.57020  0.84380  0.77030  1.0000 -0.0222543244
C   C20       1.0  0.42980  0.34380  0.72970  1.0000 -0.0222543244
C   C21       1.0  0.38730  0.17910  0.35700  1.0000 -0.0911364224
C   C22       1.0  0.61270  0.67910  0.14300  1.0000 -0.0911364224
C   C23       1.0  0.61270  0.82090  0.64300  1.0000 -0.0911364224
C   C24       1.0  0.38730  0.32090  0.85700  1.0000 -0.0911364224
C   C25       1.0  0.27540  0.14480  0.41870  1.0000 -0.117527435
C   C26       1.0  0.72460  0.64480  0.08130  1.0000 -0.117527435
C   C27       1.0  0.72460  0.85520  0.58130  1.0000 -0.117527435
C   C28       1.0  0.27540  0.35520  0.91870  1.0000 -0.117527435
C   C29       1.0  0.20290  0.08570  0.35700  1.0000 0.0757872905
C   C30       1.0  0.79710  0.58570  0.14300  1.0000 0.0757872905
C   C31       1.0  0.79710  0.91430  0.64300  1.0000 0.0757872905
C   C32       1.0  0.20290  0.41430  0.85700  1.0000 0.0757872905
C   C33       1.0  0.24600  0.06340  0.23090  1.0000 -0.154495072
C   C34       1.0  0.75400  0.56340  0.26910  1.0000 -0.154495072
C   C35       1.0  0.75400  0.93660  0.76910  1.0000 -0.154495072
C   C36       1.0  0.24600  0.43660  0.73090  1.0000 -0.154495072
C   C37       1.0  0.35730  0.09920  0.16670  1.0000 -0.0992986303
C   C38       1.0  0.64270  0.59920  0.33333  1.0000 -0.0992986303
C   C39       1.0  0.64270  0.90080  0.83330  1.0000 -0.0992986303
C   C40       1.0  0.35730  0.40080  0.66667  1.0000 -0.0992986303
C   C41       1.0  0.54860  0.19550  0.15950  1.0000 0.590388048
C   C42       1.0  0.45140  0.69550  0.34050  1.0000 0.590388048
C   C43       1.0  0.45140  0.80450  0.84050  1.0000 0.590388048
C   C44       1.0  0.54860  0.30450  0.65950  1.0000 0.590388048
O   O1        1.0  0.80100  0.16340  0.52900  1.0000 -0.5557593223
O   O2        1.0  0.19900  0.66340  0.97100  1.0000 -0.5557593223
O   O3        1.0  0.19900  0.83660  0.47100  1.0000 -0.5557593223
O   O4        1.0  0.80100  0.33660  0.02900  1.0000 -0.5557593223
O   O5        1.0  0.93810  0.17830  0.35510  1.0000 -0.5432521816
O   O6        1.0  0.06190  0.67830  0.14490  1.0000 -0.5432521816
O   O7        1.0  0.06190  0.82170  0.64490  1.0000 -0.5432521816
O   O8        1.0  0.93810  0.32170  0.85510  1.0000 -0.5432521816
O   O9        1.0  0.56450  0.17790  0.03610  1.0000 -0.5451605585
O   O10       1.0  0.43550  0.67790  0.46390  1.0000 -0.5451605585
O   O11       1.0  0.43550  0.82210  0.96390  1.0000 -0.5451605585
O   O12       1.0  0.56450  0.32210  0.53610  1.0000 -0.5451605585
O   O13       1.0  0.62430  0.24230  0.22470  1.0000 -0.5692100939
O   O14       1.0  0.37570  0.74230  0.27530  1.0000 -0.5692100939
O   O15       1.0  0.37570  0.75770  0.77530  1.0000 -0.5692100939
O   O16       1.0  0.62430  0.25770  0.72470  1.0000 -0.5692100939
O   O17       1.0  0.78590  0.36270  0.30700  1.0000 -0.6209971722
O   O18       1.0  0.21410  0.86270  0.19300  1.0000 -0.6209971722
O   O19       1.0  0.21410  0.63730  0.69300  1.0000 -0.6209971722
O   O20       1.0  0.78590  0.13730  0.80700  1.0000 -0.6209971722
O   O21       1.0  0.96930  0.31240  0.57800  1.0000 -0.6209971722
O   O22       1.0  0.03070  0.81240  0.92200  1.0000 -0.6209971722
O   O23       1.0  0.03070  0.68760  0.42200  1.0000 -0.6209971722
O   O24       1.0  0.96930  0.18760  0.07800  1.0000 -0.6209971722
