# DDEC6 charges by PACMAN v1.1 (https://github.com/mtap-research/PACMAN-charge/)
data_2015[Zn][nan]3[FSR]40
_chemical_formula_sum              "Zn12 H96 C136 N8 O56"
_cell_length_a       11.497
_cell_length_b       33.542
_cell_length_c       12.106
_cell_angle_alpha    90
_cell_angle_beta     116.84
_cell_angle_gamma    90

_symmetry_space_group_name_H-M    "P 1"
_symmetry_Int_Tables_number       1

loop_
  _symmetry_equiv_pos_as_xyz
  'x, y, z'

loop_
  _atom_site_type_symbol
  _atom_site_label
  _atom_site_symmetry_multiplicity
  _atom_site_fract_x
  _atom_site_fract_y
  _atom_site_fract_z
  _atom_site_occupancy
  _atom_site_charge
Zn  Zn1       1.0  0.25416  0.86053  0.26989  1.0000 0.9209090305
Zn  Zn2       1.0  0.74584  0.36053  0.23011  1.0000 0.9209090305
Zn  Zn3       1.0  0.74584  0.13947  0.73011  1.0000 0.9209090305
Zn  Zn4       1.0  0.25416  0.63947  0.76989  1.0000 0.9209090305
Zn  Zn5       1.0  0.52365  0.86981  0.23806  1.0000 0.9304928613
Zn  Zn6       1.0  0.47635  0.36981  0.26194  1.0000 0.9304928613
Zn  Zn7       1.0  0.47635  0.13019  0.76194  1.0000 0.9304928613
Zn  Zn8       1.0  0.52365  0.63019  0.73806  1.0000 0.9304928613
Zn  Zn9       1.0  0.24131  0.85418  0.98843  1.0000 0.9715596867
Zn  Zn10      1.0  0.75869  0.35418  0.51157  1.0000 0.9715596867
Zn  Zn11      1.0  0.75869  0.14582  0.01157  1.0000 0.9715596867
Zn  Zn12      1.0  0.24131  0.64582  0.48843  1.0000 0.9715596867
H   H1        1.0  0.98860  0.89300  0.23390  1.0000 0.1112976452
H   H2        1.0  0.01140  0.39300  0.26610  1.0000 0.1112976452
H   H3        1.0  0.01140  0.10700  0.76610  1.0000 0.1112976452
H   H4        1.0  0.98860  0.60700  0.73390  1.0000 0.1112976452
H   H5        1.0  0.86510  0.89920  0.33900  1.0000 0.1486052456
H   H6        1.0  0.13490  0.39920  0.16100  1.0000 0.1486052456
H   H7        1.0  0.13490  0.10080  0.66100  1.0000 0.1486052456
H   H8        1.0  0.86510  0.60080  0.83900  1.0000 0.1486052456
H   H9        1.0  0.17710  0.86730  0.64820  1.0000 0.1399492504
H   H10       1.0  0.82290  0.36730  0.85180  1.0000 0.1399492504
H   H11       1.0  0.82290  0.13270  0.35180  1.0000 0.1399492504
H   H12       1.0  0.17710  0.63270  0.14820  1.0000 0.1399492504
H   H13       1.0  0.29100  0.86050  0.53370  1.0000 0.1112976452
H   H14       1.0  0.70900  0.36050  0.96630  1.0000 0.1112976452
H   H15       1.0  0.70900  0.13950  0.46630  1.0000 0.1112976452
H   H16       1.0  0.29100  0.63950  0.03370  1.0000 0.1112976452
H   H17       1.0  0.81370  0.93220  0.48960  1.0000 0.1486052456
H   H18       1.0  0.18630  0.43220  0.01040  1.0000 0.1486052456
H   H19       1.0  0.18630  0.06780  0.51040  1.0000 0.1486052456
H   H20       1.0  0.81370  0.56780  0.98960  1.0000 0.1486052456
H   H21       1.0  0.70620  0.93370  0.61130  1.0000 0.118482015
H   H22       1.0  0.29380  0.43370  0.88870  1.0000 0.118482015
H   H23       1.0  0.29380  0.06630  0.38870  1.0000 0.118482015
H   H24       1.0  0.70620  0.56630  0.11130  1.0000 0.118482015
H   H25       1.0  0.89710  0.83840  0.79270  1.0000 0.1284537348
H   H26       1.0  0.10290  0.33840  0.70730  1.0000 0.1284537348
H   H27       1.0  0.10290  0.16160  0.20730  1.0000 0.1284537348
H   H28       1.0  0.89710  0.66160  0.29270  1.0000 0.1284537348
H   H29       1.0  0.01630  0.83790  0.68470  1.0000 0.1399492504
H   H30       1.0  0.98370  0.33790  0.81530  1.0000 0.1399492504
H   H31       1.0  0.98370  0.16210  0.31530  1.0000 0.1399492504
H   H32       1.0  0.01630  0.66210  0.18470  1.0000 0.1399492504
H   H33       1.0  0.35100  0.81990  0.16280  1.0000 0.3702673448
H   H34       1.0  0.64900  0.31990  0.33720  1.0000 0.3702673448
H   H35       1.0  0.64900  0.18010  0.83720  1.0000 0.3702673448
H   H36       1.0  0.35100  0.68010  0.66280  1.0000 0.3702673448
H   H37       1.0  0.53930  0.89270  0.63690  1.0000 0.1399492504
H   H38       1.0  0.46070  0.39270  0.86310  1.0000 0.1399492504
H   H39       1.0  0.46070  0.10730  0.36310  1.0000 0.1399492504
H   H40       1.0  0.53930  0.60730  0.13690  1.0000 0.1399492504
H   H41       1.0  0.42670  0.89180  0.75780  1.0000 0.118482015
H   H42       1.0  0.57330  0.39180  0.74220  1.0000 0.118482015
H   H43       1.0  0.57330  0.10820  0.24220  1.0000 0.118482015
H   H44       1.0  0.42670  0.60820  0.25780  1.0000 0.118482015
H   H45       1.0  0.76100  0.87600  0.06380  1.0000 0.118482015
H   H46       1.0  0.23900  0.37600  0.43620  1.0000 0.118482015
H   H47       1.0  0.23900  0.12400  0.93620  1.0000 0.118482015
H   H48       1.0  0.76100  0.62400  0.56380  1.0000 0.118482015
H   H49       1.0  0.87650  0.87910  0.94640  1.0000 0.1284537348
H   H50       1.0  0.12350  0.37910  0.55360  1.0000 0.1284537348
H   H51       1.0  0.12350  0.12090  0.05360  1.0000 0.1284537348
H   H52       1.0  0.87650  0.62090  0.44640  1.0000 0.1284537348
H   H53       1.0  0.84150  0.79810  0.34530  1.0000 0.118482015
H   H54       1.0  0.15850  0.29810  0.15470  1.0000 0.118482015
H   H55       1.0  0.15850  0.20190  0.65470  1.0000 0.118482015
H   H56       1.0  0.84150  0.70190  0.84530  1.0000 0.118482015
H   H57       1.0  0.98980  0.74650  0.39460  1.0000 0.118482015
H   H58       1.0  0.01020  0.24650  0.10540  1.0000 0.118482015
H   H59       1.0  0.01020  0.25350  0.60540  1.0000 0.118482015
H   H60       1.0  0.98980  0.75350  0.89460  1.0000 0.118482015
H   H61       1.0  0.91250  0.71400  0.67420  1.0000 0.118482015
H   H62       1.0  0.08750  0.21400  0.82580  1.0000 0.118482015
H   H63       1.0  0.08750  0.28600  0.32580  1.0000 0.118482015
H   H64       1.0  0.91250  0.78600  0.17420  1.0000 0.118482015
H   H65       1.0  0.75810  0.76360  0.61910  1.0000 0.118482015
H   H66       1.0  0.24190  0.26360  0.88090  1.0000 0.118482015
H   H67       1.0  0.24190  0.23640  0.38090  1.0000 0.118482015
H   H68       1.0  0.75810  0.73640  0.11910  1.0000 0.118482015
H   H69       1.0  0.60870  0.98960  0.38140  1.0000 0.1284537348
H   H70       1.0  0.39130  0.48960  0.11860  1.0000 0.1284537348
H   H71       1.0  0.39130  0.01040  0.61860  1.0000 0.1284537348
H   H72       1.0  0.60870  0.51040  0.88140  1.0000 0.1284537348
H   H73       1.0  0.35810  0.95210  0.50790  1.0000 0.118482015
H   H74       1.0  0.64190  0.45210  0.99210  1.0000 0.118482015
H   H75       1.0  0.64190  0.04790  0.49210  1.0000 0.118482015
H   H76       1.0  0.35810  0.54790  0.00790  1.0000 0.118482015
H   H77       1.0  0.00440  0.96380  0.83930  1.0000 0.1112976452
H   H78       1.0  0.99560  0.46380  0.66070  1.0000 0.1112976452
H   H79       1.0  0.99560  0.03620  0.16070  1.0000 0.1112976452
H   H80       1.0  0.00440  0.53620  0.33930  1.0000 0.1112976452
H   H81       1.0  0.10070  0.97560  0.20010  1.0000 0.118482015
H   H82       1.0  0.89930  0.47560  0.29990  1.0000 0.118482015
H   H83       1.0  0.89930  0.02440  0.79990  1.0000 0.118482015
H   H84       1.0  0.10070  0.52440  0.70010  1.0000 0.118482015
H   H85       1.0  0.21280  0.77430  0.75520  1.0000 0.1112976452
H   H86       1.0  0.78720  0.27430  0.74480  1.0000 0.1112976452
H   H87       1.0  0.78720  0.22570  0.24480  1.0000 0.1112976452
H   H88       1.0  0.21280  0.72570  0.25520  1.0000 0.1112976452
H   H89       1.0  0.43850  0.81720  0.44420  1.0000 0.3984395397
H   H90       1.0  0.56150  0.31720  0.05580  1.0000 0.3984395397
H   H91       1.0  0.56150  0.18280  0.55580  1.0000 0.3984395397
H   H92       1.0  0.43850  0.68280  0.94420  1.0000 0.3984395397
H   H93       1.0  0.31710  0.79010  0.39170  1.0000 0.3796240223
H   H94       1.0  0.68290  0.29010  0.10830  1.0000 0.3796240223
H   H95       1.0  0.68290  0.20990  0.60830  1.0000 0.3796240223
H   H96       1.0  0.31710  0.70990  0.89170  1.0000 0.3796240223
C   C1        1.0  0.02680  0.88740  0.31830  1.0000 0.0933643851
C   C2        1.0  0.97320  0.38740  0.18170  1.0000 0.0933643851
C   C3        1.0  0.97320  0.11260  0.68170  1.0000 0.0933643851
C   C4        1.0  0.02680  0.61260  0.81830  1.0000 0.0933643851
C   C5        1.0  0.95190  0.89140  0.38050  1.0000 -0.1791495176
C   C6        1.0  0.04810  0.39140  0.11950  1.0000 -0.1791495176
C   C7        1.0  0.04810  0.10860  0.61950  1.0000 -0.1791495176
C   C8        1.0  0.95190  0.60860  0.88050  1.0000 -0.1791495176
C   C9        1.0  0.00920  0.88350  0.50520  1.0000 0.1112976452
C   C10       1.0  0.99080  0.38350  0.99480  1.0000 0.1112976452
C   C11       1.0  0.99080  0.11650  0.49480  1.0000 0.1112976452
C   C12       1.0  0.00920  0.61650  0.00520  1.0000 0.1112976452
C   C13       1.0  0.13640  0.87240  0.56360  1.0000 -0.1791495176
C   C14       1.0  0.86360  0.37240  0.93640  1.0000 -0.1791495176
C   C15       1.0  0.86360  0.12760  0.43640  1.0000 -0.1791495176
C   C16       1.0  0.13640  0.62760  0.06360  1.0000 -0.1791495176
C   C17       1.0  0.20430  0.86860  0.49400  1.0000 0.0933643851
C   C18       1.0  0.79570  0.36860  0.00600  1.0000 0.0933643851
C   C19       1.0  0.79570  0.13140  0.50600  1.0000 0.0933643851
C   C20       1.0  0.20430  0.63140  0.99400  1.0000 0.0933643851
C   C21       1.0  0.93000  0.88520  0.57750  1.0000 0.118482015
C   C22       1.0  0.07000  0.38520  0.92250  1.0000 0.118482015
C   C23       1.0  0.07000  0.11480  0.42250  1.0000 0.118482015
C   C24       1.0  0.93000  0.61480  0.07750  1.0000 0.118482015
C   C25       1.0  0.83340  0.91370  0.55270  1.0000 -0.1724204053
C   C26       1.0  0.16660  0.41370  0.94730  1.0000 -0.1724204053
C   C27       1.0  0.16660  0.08630  0.44730  1.0000 -0.1724204053
C   C28       1.0  0.83340  0.58630  0.05270  1.0000 -0.1724204053
C   C29       1.0  0.76750  0.91390  0.62400  1.0000 0.0244906956
C   C30       1.0  0.23250  0.41390  0.87600  1.0000 0.0244906956
C   C31       1.0  0.23250  0.08610  0.37600  1.0000 0.0244906956
C   C32       1.0  0.76750  0.58610  0.12400  1.0000 0.0244906956
C   C33       1.0  0.88170  0.85780  0.73270  1.0000 0.055991972
C   C34       1.0  0.11830  0.35780  0.76730  1.0000 0.055991972
C   C35       1.0  0.11830  0.14220  0.26730  1.0000 0.055991972
C   C36       1.0  0.88170  0.64220  0.23270  1.0000 0.055991972
C   C37       1.0  0.95250  0.85730  0.66770  1.0000 -0.1638480293
C   C38       1.0  0.04750  0.35730  0.83230  1.0000 -0.1638480293
C   C39       1.0  0.04750  0.14270  0.33230  1.0000 -0.1638480293
C   C40       1.0  0.95250  0.64270  0.16770  1.0000 -0.1638480293
C   C41       1.0  0.71640  0.88540  0.78350  1.0000 0.1486052456
C   C42       1.0  0.28360  0.38540  0.71650  1.0000 0.1486052456
C   C43       1.0  0.28360  0.11460  0.21650  1.0000 0.1486052456
C   C44       1.0  0.71640  0.61460  0.28350  1.0000 0.1486052456
C   C45       1.0  0.58320  0.88960  0.72230  1.0000 -0.1724204053
C   C46       1.0  0.41680  0.38960  0.77770  1.0000 -0.1724204053
C   C47       1.0  0.41680  0.11040  0.27770  1.0000 -0.1724204053
C   C48       1.0  0.58320  0.61040  0.22230  1.0000 -0.1724204053
C   C49       1.0  0.51680  0.88880  0.79500  1.0000 -0.0832474231
C   C50       1.0  0.48320  0.38880  0.70500  1.0000 -0.0832474231
C   C51       1.0  0.48320  0.11120  0.20500  1.0000 -0.0832474231
C   C52       1.0  0.51680  0.61120  0.29500  1.0000 -0.0832474231
C   C53       1.0  0.58440  0.88370  0.92170  1.0000 -0.0199425378
C   C54       1.0  0.41560  0.38370  0.57830  1.0000 -0.0199425378
C   C55       1.0  0.41560  0.11630  0.07830  1.0000 -0.0199425378
C   C56       1.0  0.58440  0.61630  0.42170  1.0000 -0.0199425378
C   C57       1.0  0.71680  0.87970  0.97860  1.0000 -0.0859771612
C   C58       1.0  0.28320  0.37970  0.52140  1.0000 -0.0859771612
C   C59       1.0  0.28320  0.12030  0.02140  1.0000 -0.0859771612
C   C60       1.0  0.71680  0.62030  0.47860  1.0000 -0.0859771612
C   C61       1.0  0.78610  0.88110  0.90880  1.0000 -0.1724204053
C   C62       1.0  0.21390  0.38110  0.59120  1.0000 -0.1724204053
C   C63       1.0  0.21390  0.11890  0.09120  1.0000 -0.1724204053
C   C64       1.0  0.78610  0.61890  0.40880  1.0000 -0.1724204053
C   C65       1.0  0.51390  0.88050  0.00230  1.0000 0.5805003253
C   C66       1.0  0.48610  0.38050  0.49770  1.0000 0.5805003253
C   C67       1.0  0.48610  0.11950  0.99770  1.0000 0.5805003253
C   C68       1.0  0.51390  0.61950  0.50230  1.0000 0.5805003253
C   C69       1.0  0.68160  0.81770  0.44090  1.0000 0.5591516924
C   C70       1.0  0.31840  0.31770  0.05910  1.0000 0.5591516924
C   C71       1.0  0.31840  0.18230  0.55910  1.0000 0.5591516924
C   C72       1.0  0.68160  0.68230  0.94090  1.0000 0.5591516924
C   C73       1.0  0.78380  0.78550  0.47720  1.0000 -0.0199425378
C   C74       1.0  0.21620  0.28550  0.02280  1.0000 -0.0199425378
C   C75       1.0  0.21620  0.21450  0.52280  1.0000 -0.0199425378
C   C76       1.0  0.78380  0.71450  0.97720  1.0000 -0.0199425378
C   C77       1.0  0.85430  0.78080  0.40970  1.0000 -0.1181318748
C   C78       1.0  0.14570  0.28080  0.09030  1.0000 -0.1181318748
C   C79       1.0  0.14570  0.21920  0.59030  1.0000 -0.1181318748
C   C80       1.0  0.85430  0.71920  0.90970  1.0000 -0.1181318748
C   C81       1.0  0.94340  0.75000  0.44000  1.0000 -0.1181318748
C   C82       1.0  0.05660  0.25000  0.06000  1.0000 -0.1181318748
C   C83       1.0  0.05660  0.25000  0.56000  1.0000 -0.1181318748
C   C84       1.0  0.94340  0.75000  0.94000  1.0000 -0.1181318748
C   C85       1.0  0.96450  0.72426  0.53650  1.0000 -0.0351005661
C   C86       1.0  0.03550  0.22426  0.96350  1.0000 -0.0351005661
C   C87       1.0  0.03550  0.27574  0.46350  1.0000 -0.0351005661
C   C88       1.0  0.96450  0.77574  0.03650  1.0000 -0.0351005661
C   C89       1.0  0.89630  0.73030  0.60650  1.0000 -0.1181318748
C   C90       1.0  0.10370  0.23030  0.89350  1.0000 -0.1181318748
C   C91       1.0  0.10370  0.26970  0.39350  1.0000 -0.1181318748
C   C92       1.0  0.89630  0.76970  0.10650  1.0000 -0.1181318748
C   C93       1.0  0.80550  0.76030  0.57450  1.0000 -0.1128251421
C   C94       1.0  0.19450  0.26030  0.92550  1.0000 -0.1128251421
C   C95       1.0  0.19450  0.23970  0.42550  1.0000 -0.1128251421
C   C96       1.0  0.80550  0.73970  0.07450  1.0000 -0.1128251421
C   C97       1.0  0.06020  0.69094  0.56820  1.0000 0.5699121189
C   C98       1.0  0.93980  0.19094  0.93180  1.0000 0.5699121189
C   C99       1.0  0.93980  0.30906  0.43180  1.0000 0.5699121189
C   C100      1.0  0.06020  0.80906  0.06820  1.0000 0.5699121189
C   C101      1.0  0.46500  0.92629  0.36680  1.0000 0.5699121189
C   C102      1.0  0.53500  0.42629  0.13320  1.0000 0.5699121189
C   C103      1.0  0.53500  0.07371  0.63320  1.0000 0.5699121189
C   C104      1.0  0.46500  0.57371  0.86680  1.0000 0.5699121189
C   C105      1.0  0.48080  0.96468  0.43310  1.0000 -0.03415413
C   C106      1.0  0.51920  0.46468  0.06690  1.0000 -0.03415413
C   C107      1.0  0.51920  0.03532  0.56690  1.0000 -0.03415413
C   C108      1.0  0.48080  0.53532  0.93310  1.0000 -0.03415413
C   C109      1.0  0.56520  0.99381  0.42910  1.0000 -0.1181318748
C   C110      1.0  0.43480  0.49381  0.07090  1.0000 -0.1181318748
C   C111      1.0  0.43480  0.00619  0.57090  1.0000 -0.1181318748
C   C112      1.0  0.56520  0.50619  0.92910  1.0000 -0.1181318748
C   C113      1.0  0.41490  0.97125  0.50490  1.0000 -0.1181318748
C   C114      1.0  0.58510  0.47125  0.99510  1.0000 -0.1181318748
C   C115      1.0  0.58510  0.02875  0.49510  1.0000 -0.1181318748
C   C116      1.0  0.41490  0.52875  0.00490  1.0000 -0.1181318748
C   C117      1.0  0.13450  0.92312  0.05150  1.0000 0.5805003253
C   C118      1.0  0.86550  0.42312  0.44850  1.0000 0.5805003253
C   C119      1.0  0.86550  0.07688  0.94850  1.0000 0.5805003253
C   C120      1.0  0.13450  0.57688  0.55150  1.0000 0.5805003253
C   C121      1.0  0.06300  0.96290  0.02300  1.0000 -0.0199425378
C   C122      1.0  0.93700  0.46290  0.47700  1.0000 -0.0199425378
C   C123      1.0  0.93700  0.03710  0.97700  1.0000 -0.0199425378
C   C124      1.0  0.06300  0.53710  0.52300  1.0000 -0.0199425378
C   C125      1.0  0.00270  0.97820  0.90420  1.0000 -0.1128251421
C   C126      1.0  0.99730  0.47820  0.59580  1.0000 -0.1128251421
C   C127      1.0  0.99730  0.02180  0.09580  1.0000 -0.1128251421
C   C128      1.0  0.00270  0.52180  0.40420  1.0000 -0.1128251421
C   C129      1.0  0.06010  0.98530  0.11950  1.0000 -0.1128251421
C   C130      1.0  0.93990  0.48530  0.38050  1.0000 -0.1128251421
C   C131      1.0  0.93990  0.01470  0.88050  1.0000 -0.1128251421
C   C132      1.0  0.06010  0.51470  0.61950  1.0000 -0.1128251421
C   C133      1.0  0.23880  0.78440  0.83450  1.0000 0.4711532426
C   C134      1.0  0.76120  0.28440  0.66550  1.0000 0.4711532426
C   C135      1.0  0.76120  0.21560  0.16550  1.0000 0.4711532426
C   C136      1.0  0.23880  0.71560  0.33450  1.0000 0.4711532426
N   N1        1.0  0.15110  0.87602  0.37370  1.0000 -0.2085708695
N   N2        1.0  0.84890  0.37602  0.12630  1.0000 -0.2085708695
N   N3        1.0  0.84890  0.12398  0.62630  1.0000 -0.2085708695
N   N4        1.0  0.15110  0.62398  0.87370  1.0000 -0.2085708695
N   N5        1.0  0.79010  0.88581  0.71190  1.0000 0.0480272603
N   N6        1.0  0.20990  0.38581  0.78810  1.0000 0.0480272603
N   N7        1.0  0.20990  0.11419  0.28810  1.0000 0.0480272603
N   N8        1.0  0.79010  0.61419  0.21190  1.0000 0.0480272603
O   O1        1.0  0.39320  0.88224  0.95140  1.0000 -0.5402662324
O   O2        1.0  0.60680  0.38224  0.54860  1.0000 -0.5402662324
O   O3        1.0  0.60680  0.11776  0.04860  1.0000 -0.5402662324
O   O4        1.0  0.39320  0.61776  0.45140  1.0000 -0.5402662324
O   O5        1.0  0.58670  0.87750  0.11440  1.0000 -0.5292395594
O   O6        1.0  0.41330  0.37750  0.38560  1.0000 -0.5292395594
O   O7        1.0  0.41330  0.12250  0.88560  1.0000 -0.5292395594
O   O8        1.0  0.58670  0.62250  0.61440  1.0000 -0.5292395594
O   O9        1.0  0.66960  0.83849  0.34910  1.0000 -0.5682276902
O   O10       1.0  0.33040  0.33849  0.15090  1.0000 -0.5682276902
O   O11       1.0  0.33040  0.16151  0.65090  1.0000 -0.5682276902
O   O12       1.0  0.66960  0.66151  0.84910  1.0000 -0.5682276902
O   O13       1.0  0.61930  0.82238  0.50160  1.0000 -0.5583938229
O   O14       1.0  0.38070  0.32238  0.99840  1.0000 -0.5583938229
O   O15       1.0  0.38070  0.17762  0.49840  1.0000 -0.5583938229
O   O16       1.0  0.61930  0.67762  0.00160  1.0000 -0.5583938229
O   O17       1.0  0.08680  0.67907  0.48430  1.0000 -0.5583938229
O   O18       1.0  0.91320  0.17907  0.01570  1.0000 -0.5583938229
O   O19       1.0  0.91320  0.32093  0.51570  1.0000 -0.5583938229
O   O20       1.0  0.08680  0.82093  0.98430  1.0000 -0.5583938229
O   O21       1.0  0.10400  0.67733  0.67490  1.0000 -0.5583938229
O   O22       1.0  0.89600  0.17733  0.82510  1.0000 -0.5583938229
O   O23       1.0  0.89600  0.32267  0.32510  1.0000 -0.5583938229
O   O24       1.0  0.10400  0.82267  0.17490  1.0000 -0.5583938229
O   O25       1.0  0.40630  0.89836  0.38970  1.0000 -0.5682276902
O   O26       1.0  0.59370  0.39836  0.11030  1.0000 -0.5682276902
O   O27       1.0  0.59370  0.10164  0.61030  1.0000 -0.5682276902
O   O28       1.0  0.40630  0.60164  0.88970  1.0000 -0.5682276902
O   O29       1.0  0.51670  0.92384  0.29450  1.0000 -0.5402662324
O   O30       1.0  0.48330  0.42384  0.20550  1.0000 -0.5402662324
O   O31       1.0  0.48330  0.07616  0.70550  1.0000 -0.5402662324
O   O32       1.0  0.51670  0.57616  0.79450  1.0000 -0.5402662324
O   O33       1.0  0.17370  0.91038  0.15800  1.0000 -0.5583938229
O   O34       1.0  0.82630  0.41038  0.34200  1.0000 -0.5583938229
O   O35       1.0  0.82630  0.08962  0.84200  1.0000 -0.5583938229
O   O36       1.0  0.17370  0.58962  0.65800  1.0000 -0.5583938229
O   O37       1.0  0.14810  0.90619  0.96170  1.0000 -0.5682276902
O   O38       1.0  0.85190  0.40619  0.53830  1.0000 -0.5682276902
O   O39       1.0  0.85190  0.09381  0.03830  1.0000 -0.5682276902
O   O40       1.0  0.14810  0.59381  0.46170  1.0000 -0.5682276902
O   O41       1.0  0.35480  0.84355  0.16670  1.0000 -0.8209912943
O   O42       1.0  0.64520  0.34355  0.33333  1.0000 -0.8209912943
O   O43       1.0  0.64520  0.15645  0.83330  1.0000 -0.8209912943
O   O44       1.0  0.35480  0.65645  0.66667  1.0000 -0.8209912943
O   O45       1.0  0.22160  0.82168  0.84180  1.0000 -0.5292395594
O   O46       1.0  0.77840  0.32168  0.65820  1.0000 -0.5292395594
O   O47       1.0  0.77840  0.17832  0.15820  1.0000 -0.5292395594
O   O48       1.0  0.22160  0.67832  0.34180  1.0000 -0.5292395594
O   O49       1.0  0.28540  0.76013  0.91940  1.0000 -0.4854472297
O   O50       1.0  0.71460  0.26013  0.58060  1.0000 -0.4854472297
O   O51       1.0  0.71460  0.23987  0.08060  1.0000 -0.4854472297
O   O52       1.0  0.28540  0.73987  0.41940  1.0000 -0.4854472297
O   O53       1.0  0.35550  0.81675  0.40170  1.0000 -0.7508647608
O   O54       1.0  0.64450  0.31675  0.09830  1.0000 -0.7508647608
O   O55       1.0  0.64450  0.18325  0.59830  1.0000 -0.7508647608
O   O56       1.0  0.35550  0.68325  0.90170  1.0000 -0.7508647608
