# DDEC6 charges by PACMAN v1.1 (https://github.com/mtap-research/PACMAN-charge/)
data_2015[Tb][nan]3[FSR]2
_chemical_formula_sum              "Tb4 H56 C96 N8 O24"
_cell_length_a       12.608
_cell_length_b       14.2145
_cell_length_c       14.898
_cell_angle_alpha    69.321
_cell_angle_beta     67.503
_cell_angle_gamma    78.329

_symmetry_space_group_name_H-M    "P 1"
_symmetry_Int_Tables_number       1

loop_
  _symmetry_equiv_pos_as_xyz
  'x, y, z'

loop_
  _atom_site_type_symbol
  _atom_site_label
  _atom_site_symmetry_multiplicity
  _atom_site_fract_x
  _atom_site_fract_y
  _atom_site_fract_z
  _atom_site_occupancy
  _atom_site_charge
Tb  Tb1       1.0  0.43554  0.48139  0.40405  1.0000 1.9422026152
Tb  Tb2       1.0  0.56446  0.51861  0.59595  1.0000 1.9422026152
Tb  Tb3       1.0  0.94881  0.94611  0.90663  1.0000 1.9482325191
Tb  Tb4       1.0  0.05119  0.05389  0.09337  1.0000 1.9482325191
H   H1        1.0  0.69050  0.78960  0.19750  1.0000 0.1287132553
H   H2        1.0  0.30950  0.21040  0.80250  1.0000 0.1287132553
H   H3        1.0  0.19560  0.70830  0.21650  1.0000 0.1209024096
H   H4        1.0  0.80440  0.29170  0.78350  1.0000 0.1209024096
H   H5        1.0  0.45680  0.79080  0.47120  1.0000 0.1209024096
H   H6        1.0  0.54320  0.20920  0.52880  1.0000 0.1209024096
H   H7        1.0  0.67610  0.00870  0.31450  1.0000 0.1209024096
H   H8        1.0  0.32390  0.99130  0.68550  1.0000 0.1209024096
H   H9        1.0  0.20200  0.71070  0.71470  1.0000 0.1209024096
H   H10       1.0  0.79800  0.28930  0.28530  1.0000 0.1209024096
H   H11       1.0  0.16860  0.72030  0.95230  1.0000 0.1287132553
H   H12       1.0  0.83140  0.27970  0.04770  1.0000 0.1287132553
H   H13       1.0  0.37750  0.50330  0.07560  1.0000 0.1209024096
H   H14       1.0  0.62250  0.49670  0.92440  1.0000 0.1209024096
H   H15       1.0  0.29710  0.57820  0.94700  1.0000 0.1087210339
H   H16       1.0  0.70290  0.42180  0.05300  1.0000 0.1087210339
H   H17       1.0  0.02780  0.93530  0.56090  1.0000 0.1087210339
H   H18       1.0  0.97220  0.06470  0.43910  1.0000 0.1087210339
H   H19       1.0  0.51190  0.94660  0.44800  1.0000 0.1046264296
H   H20       1.0  0.48810  0.05340  0.55200  1.0000 0.1046264296
H   H21       1.0  0.59270  0.33590  0.25250  1.0000 0.1087210339
H   H22       1.0  0.40730  0.66410  0.74750  1.0000 0.1087210339
H   H23       1.0  0.76330  0.11650  0.78780  1.0000 0.1087210339
H   H24       1.0  0.23670  0.88350  0.21220  1.0000 0.1087210339
H   H25       1.0  0.10480  0.87210  0.42280  1.0000 0.1209024096
H   H26       1.0  0.89520  0.12790  0.57720  1.0000 0.1209024096
H   H27       1.0  0.82610  0.55890  0.12390  1.0000 0.1287132553
H   H28       1.0  0.17390  0.44110  0.87610  1.0000 0.1287132553
H   H29       1.0  0.03320  0.33180  0.71450  1.0000 0.1287132553
H   H30       1.0  0.96680  0.66820  0.28550  1.0000 0.1287132553
H   H31       1.0  0.12460  0.07680  0.56360  1.0000 0.1287132553
H   H32       1.0  0.87540  0.92320  0.43640  1.0000 0.1287132553
H   H33       1.0  0.59530  0.20540  0.19370  1.0000 0.1287132553
H   H34       1.0  0.40470  0.79460  0.80630  1.0000 0.1287132553
H   H35       1.0  0.18100  0.43640  0.61250  1.0000 0.1087210339
H   H36       1.0  0.81900  0.56360  0.38750  1.0000 0.1087210339
H   H37       1.0  0.94150  0.69320  0.03460  1.0000 0.1087210339
H   H38       1.0  0.05850  0.30680  0.96540  1.0000 0.1087210339
H   H39       1.0  0.02990  0.18850  0.67930  1.0000 0.1379136394
H   H40       1.0  0.97010  0.81150  0.32070  1.0000 0.1379136394
H   H41       1.0  0.22360  0.72520  0.43460  1.0000 0.1209024096
H   H42       1.0  0.77640  0.27480  0.56540  1.0000 0.1209024096
H   H43       1.0  0.64380  0.57740  0.12320  1.0000 0.1379136394
H   H44       1.0  0.35620  0.42260  0.87680  1.0000 0.1379136394
H   H45       1.0  0.58170  0.14410  0.77850  1.0000 0.1287132553
H   H46       1.0  0.41830  0.85590  0.22150  1.0000 0.1287132553
H   H47       1.0  0.26330  0.04720  0.42740  1.0000 0.1287132553
H   H48       1.0  0.73670  0.95280  0.57260  1.0000 0.1287132553
H   H49       1.0  0.48580  0.68770  0.05820  1.0000 0.1209024096
H   H50       1.0  0.51420  0.31230  0.94180  1.0000 0.1209024096
H   H51       1.0  0.42310  0.83720  0.97070  1.0000 0.1287132553
H   H52       1.0  0.57690  0.16280  0.02930  1.0000 0.1287132553
H   H53       1.0  0.45030  0.09650  0.28050  1.0000 0.1087210339
H   H54       1.0  0.54970  0.90350  0.71950  1.0000 0.1087210339
H   H55       1.0  0.45480  0.02270  0.86450  1.0000 0.1209024096
H   H56       1.0  0.54520  0.97730  0.13550  1.0000 0.1209024096
C   C1        1.0  0.53420  0.67160  0.35530  1.0000 0.594772088
C   C2        1.0  0.46580  0.32840  0.64470  1.0000 0.594772088
C   C3        1.0  0.69980  0.90620  0.24190  1.0000 -0.020266572
C   C4        1.0  0.30020  0.09380  0.75810  1.0000 -0.020266572
C   C5        1.0  0.79960  0.95300  0.15100  1.0000 0.6307222918
C   C6        1.0  0.20040  0.04700  0.84900  1.0000 0.6307222918
C   C7        1.0  0.17260  0.73030  0.08270  1.0000 -0.0373071444
C   C8        1.0  0.82740  0.26970  0.91730  1.0000 -0.0373071444
C   C9        1.0  0.57080  0.77310  0.33840  1.0000 -0.0098545619
C   C10       1.0  0.42920  0.22690  0.66160  1.0000 -0.0098545619
C   C11       1.0  0.65900  0.81820  0.25040  1.0000 -0.1506749367
C   C12       1.0  0.34100  0.18180  0.74960  1.0000 -0.1506749367
C   C13       1.0  0.29390  0.59830  0.15940  1.0000 -0.020266572
C   C14       1.0  0.70610  0.40170  0.84060  1.0000 -0.020266572
C   C15       1.0  0.21740  0.68280  0.16190  1.0000 -0.1284124437
C   C16       1.0  0.78260  0.31720  0.83810  1.0000 -0.1284124437
C   C17       1.0  0.30410  0.60710  0.58000  1.0000 0.6307222918
C   C18       1.0  0.69590  0.39290  0.42000  1.0000 0.6307222918
C   C19       1.0  0.10650  0.82830  0.65240  1.0000 -0.020266572
C   C20       1.0  0.89350  0.17170  0.34760  1.0000 -0.020266572
C   C21       1.0  0.09800  0.82680  0.08190  1.0000 0.6307222918
C   C22       1.0  0.90200  0.17320  0.91810  1.0000 0.6307222918
C   C23       1.0  0.51660  0.82020  0.41310  1.0000 -0.1222147589
C   C24       1.0  0.48340  0.17980  0.58690  1.0000 -0.1222147589
C   C25       1.0  0.05260  0.86890  0.74120  1.0000 0.5637161905
C   C26       1.0  0.94740  0.13110  0.25880  1.0000 0.5637161905
C   C27       1.0  0.64730  0.95150  0.31850  1.0000 -0.1222147589
C   C28       1.0  0.35270  0.04850  0.68150  1.0000 -0.1222147589
C   C29       1.0  0.34570  0.55240  0.24220  1.0000 0.5637161905
C   C30       1.0  0.65430  0.44760  0.75780  1.0000 0.5637161905
C   C31       1.0  0.18120  0.74220  0.65680  1.0000 -0.1107498031
C   C32       1.0  0.81880  0.25780  0.34320  1.0000 -0.1107498031
C   C33       1.0  0.26540  0.27550  0.49710  1.0000 0.1209024096
C   C34       1.0  0.73460  0.72450  0.50290  1.0000 0.1209024096
C   C35       1.0  0.20090  0.69020  0.00350  1.0000 -0.1107498031
C   C36       1.0  0.79910  0.30980  0.99650  1.0000 -0.1107498031
C   C37       1.0  0.32510  0.55950  0.07820  1.0000 -0.1107498031
C   C38       1.0  0.67490  0.44050  0.92180  1.0000 -0.1107498031
C   C39       1.0  0.27750  0.60490  0.00050  1.0000 -0.1107498031
C   C40       1.0  0.72250  0.39510  0.99950  1.0000 -0.1107498031
C   C41       1.0  0.35850  0.25320  0.41310  1.0000 0.1287132553
C   C42       1.0  0.64150  0.74680  0.58690  1.0000 0.1287132553
C   C43       1.0  0.22570  0.70210  0.57590  1.0000 -0.0343882417
C   C44       1.0  0.77430  0.29790  0.42410  1.0000 -0.0343882417
C   C45       1.0  0.68150  0.89760  0.92290  1.0000 0.1209024096
C   C46       1.0  0.31850  0.10240  0.07710  1.0000 0.1209024096
C   C47       1.0  0.64750  0.72330  0.03030  1.0000 0.0608466237
C   C48       1.0  0.35250  0.27670  0.96970  1.0000 0.0608466237
C   C49       1.0  0.72170  0.80240  0.97850  1.0000 0.1287132553
C   C50       1.0  0.27830  0.19760  0.02150  1.0000 0.1287132553
C   C51       1.0  0.07760  0.87720  0.56430  1.0000 -0.1107498031
C   C52       1.0  0.92240  0.12280  0.43570  1.0000 -0.1107498031
C   C53       1.0  0.55210  0.91180  0.40080  1.0000 -0.1107498031
C   C54       1.0  0.44790  0.08820  0.59920  1.0000 -0.1107498031
C   C55       1.0  0.17740  0.20810  0.55490  1.0000 0.0608466237
C   C56       1.0  0.82260  0.79190  0.44510  1.0000 0.0608466237
C   C57       1.0  0.53170  0.29480  0.28580  1.0000 0.1209024096
C   C58       1.0  0.46830  0.70520  0.71420  1.0000 0.1209024096
C   C59       1.0  0.56880  0.91320  0.91860  1.0000 0.0439942616
C   C60       1.0  0.43120  0.08680  0.08140  1.0000 0.0439942616
C   C61       1.0  0.71460  0.06430  0.82200  1.0000 0.1087210339
C   C62       1.0  0.28540  0.93570  0.17800  1.0000 0.1087210339
C   C63       1.0  0.12290  0.83910  0.48180  1.0000 -0.1107498031
C   C64       1.0  0.87710  0.16090  0.51820  1.0000 -0.1107498031
C   C65       1.0  0.79760  0.61990  0.08770  1.0000 -0.1409919933
C   C66       1.0  0.20240  0.38010  0.91230  1.0000 -0.1409919933
C   C67       1.0  0.35870  0.16740  0.38590  1.0000 0.04751763
C   C68       1.0  0.64130  0.83260  0.61410  1.0000 0.04751763
C   C69       1.0  0.09080  0.31540  0.65950  1.0000 -0.1284124437
C   C70       1.0  0.90920  0.68460  0.34050  1.0000 -0.1284124437
C   C71       1.0  0.18200  0.12140  0.52540  1.0000 -0.1222147589
C   C72       1.0  0.81800  0.87860  0.47460  1.0000 -0.1284124437
C   C73       1.0  0.53510  0.21500  0.25090  1.0000 -0.1409919933
C   C74       1.0  0.46490  0.78500  0.74910  1.0000 -0.1409919933
C   C75       1.0  0.18100  0.37860  0.59680  1.0000 0.1209024096
C   C76       1.0  0.81900  0.62140  0.40320  1.0000 0.1209024096
C   C77       1.0  0.86700  0.70180  0.03320  1.0000 0.1046264296
C   C78       1.0  0.13300  0.29820  0.96680  1.0000 0.1087210339
C   C79       1.0  0.08890  0.23110  0.63880  1.0000 -0.073827592
C   C80       1.0  0.91110  0.76890  0.36120  1.0000 -0.073827592
C   C81       1.0  0.19490  0.75170  0.48890  1.0000 -0.0930932009
C   C82       1.0  0.80510  0.24830  0.51110  1.0000 -0.0930932009
C   C83       1.0  0.69060  0.63090  0.08660  1.0000 -0.0642669325
C   C84       1.0  0.30940  0.36910  0.91340  1.0000 -0.0642669325
C   C85       1.0  0.60430  0.08130  0.81680  1.0000 -0.1284124437
C   C86       1.0  0.39570  0.91870  0.18320  1.0000 -0.1284124437
C   C87       1.0  0.26500  0.10290  0.44560  1.0000 -0.1409919933
C   C88       1.0  0.73500  0.89710  0.55440  1.0000 -0.1409919933
C   C89       1.0  0.53440  0.73990  0.02480  1.0000 -0.1284124437
C   C90       1.0  0.46560  0.26010  0.97520  1.0000 -0.1284124437
C   C91       1.0  0.49740  0.82880  0.97260  1.0000 -0.1506749367
C   C92       1.0  0.50260  0.17120  0.02740  1.0000 -0.1506749367
C   C93       1.0  0.44860  0.15090  0.30200  1.0000 -0.0976241989
C   C94       1.0  0.55140  0.84910  0.69800  1.0000 -0.0976241989
C   C95       1.0  0.52970  0.00960  0.86550  1.0000 -0.0930932009
C   C96       1.0  0.47030  0.99040  0.13450  1.0000 -0.0930932009
N   N1        1.0  0.26480  0.36130  0.51810  1.0000 -0.3411948507
N   N2        1.0  0.73520  0.63870  0.48190  1.0000 -0.3411948507
N   N3        1.0  0.75290  0.97560  0.87450  1.0000 -0.3540010576
N   N4        1.0  0.24710  0.02440  0.12550  1.0000 -0.3540010576
N   N5        1.0  0.83110  0.79150  0.97940  1.0000 -0.3667290186
N   N6        1.0  0.16890  0.20850  0.02060  1.0000 -0.3667290186
N   N7        1.0  0.44590  0.31520  0.36410  1.0000 -0.3634002929
N   N8        1.0  0.55410  0.68480  0.63590  1.0000 -0.3634002929
O   O1        1.0  0.44470  0.50870  0.22300  1.0000 -0.6164448982
O   O2        1.0  0.55530  0.49130  0.77700  1.0000 -0.6164448982
O   O3        1.0  0.07090  0.82040  0.82380  1.0000 -0.6164448982
O   O4        1.0  0.92910  0.17960  0.17620  1.0000 -0.6164448982
O   O5        1.0  0.53060  0.60440  0.44060  1.0000 -0.724037004
O   O6        1.0  0.46940  0.39560  0.55940  1.0000 -0.724037004
O   O7        1.0  0.80400  0.95280  0.06490  1.0000 -0.6652016168
O   O8        1.0  0.19600  0.04720  0.93510  1.0000 -0.6652016168
O   O9        1.0  0.87000  0.98800  0.16830  1.0000 -0.6375430648
O   O10       1.0  0.13000  0.01200  0.83170  1.0000 -0.6375430648
O   O11       1.0  0.36390  0.58180  0.63730  1.0000 -0.6503613119
O   O12       1.0  0.63610  0.41820  0.36270  1.0000 -0.6503613119
O   O13       1.0  0.30820  0.56230  0.51920  1.0000 -0.6503613119
O   O14       1.0  0.69180  0.43770  0.48080  1.0000 -0.6503613119
O   O15       1.0  0.99150  0.95100  0.73180  1.0000 -0.6296864425
O   O16       1.0  0.00850  0.04900  0.26820  1.0000 -0.6296864425
O   O17       1.0  0.03680  0.85540  0.02520  1.0000 -0.6868445401
O   O18       1.0  0.96320  0.14460  0.97480  1.0000 -0.6868445401
O   O19       1.0  0.50700  0.65450  0.29100  1.0000 -0.572268558
O   O20       1.0  0.49300  0.34550  0.70900  1.0000 -0.572268558
O   O21       1.0  0.28750  0.55970  0.32960  1.0000 -0.6110569959
O   O22       1.0  0.71250  0.44030  0.67040  1.0000 -0.6110569959
O   O23       1.0  0.10080  0.87590  0.13570  1.0000 -0.6296864425
O   O24       1.0  0.89920  0.12410  0.86430  1.0000 -0.6296864425
