# DDEC6 charges by PACMAN v1.1 (https://github.com/mtap-research/PACMAN-charge/)
data_2015[Eu][nan]3[FSR]10
_chemical_formula_sum              "Eu4 H24 C32 N4 O34"
_cell_length_a       7.7297
_cell_length_b       10.2725
_cell_length_c       16.0234
_cell_angle_alpha    86.817
_cell_angle_beta     85.974
_cell_angle_gamma    77.107

_symmetry_space_group_name_H-M    "P 1"
_symmetry_Int_Tables_number       1

loop_
  _symmetry_equiv_pos_as_xyz
  'x, y, z'

loop_
  _atom_site_type_symbol
  _atom_site_label
  _atom_site_symmetry_multiplicity
  _atom_site_fract_x
  _atom_site_fract_y
  _atom_site_fract_z
  _atom_site_occupancy
  _atom_site_charge
Eu  Eu1       1.0  0.35439  0.33627  0.06325  1.0000 2.0468163941
Eu  Eu2       1.0  0.64561  0.66373  0.93675  1.0000 2.0468163941
Eu  Eu3       1.0  0.61510  0.86838  0.32466  1.0000 2.0051602576
Eu  Eu4       1.0  0.38490  0.13162  0.67534  1.0000 2.0051602576
H   H1        1.0  0.61100  0.33500  0.19550  1.0000 0.3706446294
H   H2        1.0  0.38900  0.66500  0.80450  1.0000 0.3706446294
H   H3        1.0  0.66900  0.41100  0.13000  1.0000 0.3900461052
H   H4        1.0  0.33100  0.58900  0.87000  1.0000 0.3900461052
H   H5        1.0  0.34100  0.13500  0.93900  1.0000 0.3706446294
H   H6        1.0  0.65900  0.86500  0.06100  1.0000 0.3706446294
H   H7        1.0  0.24000  0.25100  0.90570  1.0000 0.3706446294
H   H8        1.0  0.76000  0.74900  0.09430  1.0000 0.3706446294
H   H9        1.0  0.78400  0.66300  0.45000  1.0000 0.3706446294
H   H10       1.0  0.21600  0.33700  0.55000  1.0000 0.3706446294
H   H11       1.0  0.90800  0.74100  0.43400  1.0000 0.3706446294
H   H12       1.0  0.09200  0.25900  0.56600  1.0000 0.3706446294
H   H13       1.0  0.16320  0.52450  0.70470  1.0000 0.1407255782
H   H14       1.0  0.83680  0.47550  0.29530  1.0000 0.1407255782
H   H15       1.0  0.91050  0.64400  0.64090  1.0000 0.1407255782
H   H16       1.0  0.08950  0.35600  0.35910  1.0000 0.1407255782
H   H17       1.0  0.66780  0.54540  0.63120  1.0000 0.1407255782
H   H18       1.0  0.33220  0.45460  0.36880  1.0000 0.1407255782
H   H19       1.0  0.08850  0.88380  0.81000  1.0000 0.1407255782
H   H20       1.0  0.91150  0.11620  0.19000  1.0000 0.1407255782
H   H21       1.0  0.92330  0.88970  0.93730  1.0000 0.1407255782
H   H22       1.0  0.07670  0.11030  0.06270  1.0000 0.1407255782
H   H23       1.0  0.75310  0.09270  0.98300  1.0000 0.1407255782
H   H24       1.0  0.24690  0.90730  0.01700  1.0000 0.1407255782
C   C1        1.0  0.06060  0.48790  0.70510  1.0000 -0.0176354717
C   C2        1.0  0.93940  0.51210  0.29490  1.0000 -0.0176354717
C   C3        1.0  0.91240  0.55730  0.66540  1.0000 -0.1126506995
C   C4        1.0  0.08760  0.44270  0.33460  1.0000 -0.1126506995
C   C5        1.0  0.76670  0.50060  0.66150  1.0000 -0.0739637163
C   C6        1.0  0.23330  0.49940  0.33850  1.0000 -0.0739637163
C   C7        1.0  0.76640  0.37790  0.70220  1.0000 -0.0540785786
C   C8        1.0  0.23360  0.62210  0.29780  1.0000 -0.0540785786
C   C9        1.0  0.91170  0.31500  0.74670  1.0000 0.0842909593
C   C10       1.0  0.08830  0.68500  0.25330  1.0000 0.0842909593
C   C11       1.0  0.61960  0.30510  0.69380  1.0000 0.5929196928
C   C12       1.0  0.38040  0.69490  0.30620  1.0000 0.5929196928
C   C13       1.0  0.01820  0.96640  0.82850  1.0000 0.0086507619
C   C14       1.0  0.98180  0.03360  0.17150  1.0000 0.0086507619
C   C15       1.0  0.92120  0.96950  0.90420  1.0000 -0.1126506995
C   C16       1.0  0.07880  0.03050  0.09580  1.0000 -0.1126506995
C   C17       1.0  0.82100  0.08970  0.93110  1.0000 -0.0589113306
C   C18       1.0  0.17900  0.91030  0.06890  1.0000 -0.0589113306
C   C19       1.0  0.81880  0.20630  0.88300  1.0000 -0.0589113306
C   C20       1.0  0.18120  0.79370  0.11700  1.0000 -0.0589113306
C   C21       1.0  0.91770  0.19850  0.80650  1.0000 0.0989286158
C   C22       1.0  0.08230  0.80150  0.19350  1.0000 0.0989286158
C   C23       1.0  0.71490  0.33880  0.91220  1.0000 0.6554496739
C   C24       1.0  0.28510  0.66120  0.08780  1.0000 0.6554496739
C   C25       1.0  0.94900  0.46700  0.03580  1.0000 0.503486887
C   C26       1.0  0.05100  0.53300  0.96420  1.0000 0.503486887
C   C27       1.0  0.42540  0.95830  0.50800  1.0000 0.5164962266
C   C28       1.0  0.57460  0.04170  0.49200  1.0000 0.5164962266
C   C29       1.0  0.51260  0.06130  0.15790  1.0000 0.4910400961
C   C30       1.0  0.48740  0.93870  0.84210  1.0000 0.4910400961
C   C31       1.0  0.38950  0.13860  0.22540  1.0000 0.4815662954
C   C32       1.0  0.61050  0.86140  0.77460  1.0000 0.4815662954
N   N1        1.0  0.05990  0.36890  0.74400  1.0000 0.2794340108
N   N2        1.0  0.94010  0.63110  0.25600  1.0000 0.2794340108
N   N3        1.0  0.01490  0.07880  0.78050  1.0000 0.3054183576
N   N4        1.0  0.98510  0.92120  0.21950  1.0000 0.3054183576
O   O1        1.0  0.20640  0.29730  0.77740  1.0000 -0.5584146526
O   O2        1.0  0.79360  0.70270  0.22260  1.0000 -0.5584146526
O   O3        1.0  0.09970  0.07270  0.70480  1.0000 -0.5810425725
O   O4        1.0  0.90030  0.92730  0.29520  1.0000 -0.5810425725
O   O5        1.0  0.49050  0.35600  0.65190  1.0000 -0.6011407719
O   O6        1.0  0.50950  0.64400  0.34810  1.0000 -0.6011407719
O   O7        1.0  0.64010  0.18810  0.72880  1.0000 -0.6156057265
O   O8        1.0  0.35990  0.81190  0.27120  1.0000 -0.6156057265
O   O9        1.0  0.75950  0.44350  0.88200  1.0000 -0.6389869
O   O10       1.0  0.24050  0.55650  0.11800  1.0000 -0.6389869
O   O11       1.0  0.59190  0.33810  0.96770  1.0000 -0.6882777955
O   O12       1.0  0.40810  0.66190  0.03230  1.0000 -0.6882777955
O   O13       1.0  0.78590  0.51570  0.04850  1.0000 -0.5810425725
O   O14       1.0  0.21410  0.48430  0.95150  1.0000 -0.5810425725
O   O15       1.0  0.03790  0.36850  0.07620  1.0000 -0.6011407719
O   O16       1.0  0.96210  0.63150  0.92380  1.0000 -0.6011407719
O   O17       1.0  0.33780  0.97050  0.57590  1.0000 -0.5711985673
O   O18       1.0  0.66220  0.02950  0.42410  1.0000 -0.5711985673
O   O19       1.0  0.40680  0.88950  0.44730  1.0000 -0.5941622999
O   O20       1.0  0.59320  0.11050  0.55270  1.0000 -0.5941622999
O   O21       1.0  0.39730  0.08830  0.29950  1.0000 -0.5711985673
O   O22       1.0  0.60270  0.91170  0.70050  1.0000 -0.5711985673
O   O23       1.0  0.61790  0.95550  0.18130  1.0000 -0.5810425725
O   O24       1.0  0.38210  0.04450  0.81870  1.0000 -0.5810425725
O   O25       1.0  0.29080  0.24750  0.20300  1.0000 -0.6011407719
O   O26       1.0  0.70920  0.75250  0.79700  1.0000 -0.6011407719
O   O27       1.0  0.50020  0.10670  0.08320  1.0000 -0.606490865
O   O28       1.0  0.49980  0.89330  0.91680  1.0000 -0.606490865
O   O29       1.0  0.59570  0.36250  0.14520  1.0000 -0.7564273622
O   O30       1.0  0.40430  0.63750  0.85480  1.0000 -0.7564273622
O   O31       1.0  0.27390  0.21040  0.95190  1.0000 -0.7662014511
O   O32       1.0  0.72610  0.78960  0.04810  1.0000 -0.7662014511
O   O33       1.0  0.80470  0.73280  0.42340  1.0000 -0.7549649026
O   O34       1.0  0.19530  0.26720  0.57660  1.0000 -0.7549649026
