# DDEC6 charges by PACMAN v1.1 (https://github.com/mtap-research/PACMAN-charge/)
data_2015[Zn][sqc]3[FSR]1
_chemical_formula_sum              "Zn2 H28 C34 N2 O8"
_cell_length_a       5.954
_cell_length_b       13.521
_cell_length_c       13.942
_cell_angle_alpha    95.02
_cell_angle_beta     94.33
_cell_angle_gamma    99.72

_symmetry_space_group_name_H-M    "P 1"
_symmetry_Int_Tables_number       1

loop_
  _symmetry_equiv_pos_as_xyz
  'x, y, z'

loop_
  _atom_site_type_symbol
  _atom_site_label
  _atom_site_symmetry_multiplicity
  _atom_site_fract_x
  _atom_site_fract_y
  _atom_site_fract_z
  _atom_site_occupancy
  _atom_site_charge
Zn  Zn1       1.0  0.27390  0.05515  0.50156  1.0000 0.9162457016
Zn  Zn2       1.0  0.72610  0.94485  0.49844  1.0000 0.9162457016
H   H1        1.0  0.88830  0.84760  0.29920  1.0000 0.131074014
H   H2        1.0  0.11170  0.15240  0.70080  1.0000 0.131074014
H   H3        1.0  0.65640  0.70870  0.21030  1.0000 0.1175202072
H   H4        1.0  0.34360  0.29130  0.78970  1.0000 0.1175202072
H   H5        1.0  0.14470  0.54060  0.25730  1.0000 0.1106922594
H   H6        1.0  0.85530  0.45940  0.74270  1.0000 0.1106922594
H   H7        1.0  0.37120  0.67740  0.35260  1.0000 0.1175202072
H   H8        1.0  0.62880  0.32260  0.64740  1.0000 0.1175202072
H   H9        1.0  0.65840  0.47300  0.21930  1.0000 0.1175202072
H   H10       1.0  0.34160  0.52700  0.78070  1.0000 0.1175202072
H   H11       1.0  0.59350  0.53920  0.13500  1.0000 0.0991732418
H   H12       1.0  0.40650  0.46080  0.86500  1.0000 0.0991732418
H   H13       1.0  0.77170  0.32880  0.02200  1.0000 0.1175202072
H   H14       1.0  0.22830  0.67120  0.97800  1.0000 0.1175202072
H   H15       1.0  0.55530  0.35780  0.07220  1.0000 0.1106922594
H   H16       1.0  0.44470  0.64220  0.92780  1.0000 0.1106922594
H   H17       1.0  0.10530  0.35170  0.19340  1.0000 0.1106922594
H   H18       1.0  0.89470  0.64830  0.80660  1.0000 0.1106922594
H   H19       1.0  0.17310  0.25620  0.31670  1.0000 0.1175202072
H   H20       1.0  0.82690  0.74380  0.68330  1.0000 0.1175202072
H   H21       1.0  0.51610  0.10990  0.27750  1.0000 0.131074014
H   H22       1.0  0.48390  0.89010  0.72250  1.0000 0.131074014
H   H23       1.0  0.44130  0.21290  0.15950  1.0000 0.1175202072
H   H24       1.0  0.55870  0.78710  0.84050  1.0000 0.1175202072
H   H25       1.0  0.92510  0.58890  0.04030  1.0000 0.0991732418
H   H26       1.0  0.07490  0.41110  0.95970  1.0000 0.0991732418
H   H27       1.0  0.76220  0.49890  0.97290  1.0000 0.0991732418
H   H28       1.0  0.23780  0.50110  0.02710  1.0000 0.0991732418
C   C1        1.0  0.29410  0.86250  0.39770  1.0000 0.5998825458
C   C2        1.0  0.70590  0.13750  0.60230  1.0000 0.5998825458
C   C3        1.0  0.14980  0.77540  0.33640  1.0000 -0.0338075916
C   C4        1.0  0.85020  0.22460  0.66360  1.0000 -0.0338075916
C   C5        1.0  0.93940  0.78470  0.29250  1.0000 -0.0830465528
C   C6        1.0  0.06060  0.21530  0.70750  1.0000 -0.0830465528
C   C7        1.0  0.80250  0.70220  0.23870  1.0000 -0.1677408787
C   C8        1.0  0.19750  0.29780  0.76130  1.0000 -0.1677408787
C   C9        1.0  0.87580  0.61060  0.22600  1.0000 0.1106922594
C   C10       1.0  0.12420  0.38940  0.77400  1.0000 0.1106922594
C   C11       1.0  0.09010  0.60240  0.26730  1.0000 -0.1619566652
C   C12       1.0  0.90990  0.39760  0.73270  1.0000 -0.1619566652
C   C13       1.0  0.22600  0.68410  0.32330  1.0000 -0.0981598283
C   C14       1.0  0.77400  0.31590  0.67670  1.0000 -0.0981598283
C   C15       1.0  0.72260  0.51800  0.17200  1.0000 -0.1812741058
C   C16       1.0  0.27740  0.48200  0.82800  1.0000 -0.1812741058
C   C17       1.0  0.72150  0.35770  0.08280  1.0000 -0.1864051866
C   C18       1.0  0.27850  0.64230  0.91720  1.0000 -0.1864051866
C   C19       1.0  0.76450  0.29270  0.16200  1.0000 0.1106922594
C   C20       1.0  0.23550  0.70730  0.83800  1.0000 0.1106922594
C   C21       1.0  0.98410  0.30340  0.21100  1.0000 -0.1619566652
C   C22       1.0  0.01590  0.69660  0.78900  1.0000 -0.1619566652
C   C23       1.0  0.02510  0.24580  0.28290  1.0000 -0.0981598283
C   C24       1.0  0.97490  0.75420  0.71710  1.0000 -0.0981598283
C   C25       1.0  0.85210  0.17050  0.30830  1.0000 -0.0476503755
C   C26       1.0  0.14790  0.82950  0.69170  1.0000 -0.0476503755
C   C27       1.0  0.63570  0.15970  0.26100  1.0000 -0.0877253088
C   C28       1.0  0.36430  0.84030  0.73900  1.0000 -0.0877253088
C   C29       1.0  0.59210  0.22040  0.19010  1.0000 -0.1677408787
C   C30       1.0  0.40790  0.77960  0.80990  1.0000 -0.1677408787
C   C31       1.0  0.90090  0.10680  0.38490  1.0000 0.5998825458
C   C32       1.0  0.09910  0.89320  0.61510  1.0000 0.5998825458
C   C33       1.0  0.89590  0.51520  0.02180  1.0000 -0.1486943337
C   C34       1.0  0.10410  0.48480  0.97820  1.0000 -0.1486943337
N   N1        1.0  0.84490  0.46290  0.10650  1.0000 -0.0877253088
N   N2        1.0  0.15510  0.53710  0.89350  1.0000 -0.0877253088
O   O1        1.0  0.24380  0.94930  0.39390  1.0000 -0.5686324808
O   O2        1.0  0.75620  0.05070  0.60610  1.0000 -0.5686324808
O   O3        1.0  0.46080  0.84430  0.45200  1.0000 -0.5424763086
O   O4        1.0  0.53920  0.15570  0.54800  1.0000 -0.5424763086
O   O5        1.0  0.07710  0.13750  0.44360  1.0000 -0.5424763086
O   O6        1.0  0.92290  0.86250  0.55640  1.0000 -0.5424763086
O   O7        1.0  0.76810  0.02180  0.38680  1.0000 -0.5686324808
O   O8        1.0  0.23190  0.97820  0.61320  1.0000 -0.5686324808
