# DDEC6 charges by PACMAN v1.1 (https://github.com/mtap-research/PACMAN-charge/)
data_2015[Th][flu]3[FSR]1
_chemical_formula_sum              "Th2 P2 H24 C42 O18"
_cell_length_a       11.797
_cell_length_b       12.889
_cell_length_c       14.037
_cell_angle_alpha    66.065
_cell_angle_beta     78.731
_cell_angle_gamma    69.924

_symmetry_space_group_name_H-M    "P 1"
_symmetry_Int_Tables_number       1

loop_
  _symmetry_equiv_pos_as_xyz
  'x, y, z'

loop_
  _atom_site_type_symbol
  _atom_site_label
  _atom_site_symmetry_multiplicity
  _atom_site_fract_x
  _atom_site_fract_y
  _atom_site_fract_z
  _atom_site_occupancy
  _atom_site_charge
Th  Th1       1.0  0.53975  0.55039  0.60113  1.0000 2.3148708143
Th  Th2       1.0  0.46025  0.44961  0.39887  1.0000 2.315506915
P   P1        1.0  0.72340  0.65570  0.72150  1.0000 0.8799257674
P   P2        1.0  0.27660  0.34430  0.27850  1.0000 0.8799257674
H   H1        1.0  0.49840  0.82610  0.73580  1.0000 0.1374730527
H   H2        1.0  0.50160  0.17390  0.26420  1.0000 0.1374730527
H   H3        1.0  0.69920  0.44570  0.88040  1.0000 0.1297970303
H   H4        1.0  0.30080  0.55430  0.11960  1.0000 0.1297970303
H   H5        1.0  0.81740  0.84160  0.57320  1.0000 0.1208002615
H   H6        1.0  0.18260  0.15840  0.42680  1.0000 0.1208002615
H   H7        1.0  0.67150  0.76820  0.87350  1.0000 0.1208002615
H   H8        1.0  0.32850  0.23180  0.12650  1.0000 0.1208002615
H   H9        1.0  0.93330  0.69180  0.76640  1.0000 0.1297970303
H   H10       1.0  0.06670  0.30820  0.23360  1.0000 0.1297970303
H   H11       1.0  0.87690  0.50700  0.62130  1.0000 0.1374730527
H   H12       1.0  0.12310  0.49300  0.37870  1.0000 0.1374730527
H   H13       1.0  0.42090  0.02900  0.65690  1.0000 0.1297970303
H   H14       1.0  0.57910  0.97100  0.34310  1.0000 0.1297970303
H   H15       1.0  0.73640  0.04480  0.48950  1.0000 0.1297970303
H   H16       1.0  0.26360  0.95520  0.51050  1.0000 0.1297970303
H   H17       1.0  0.08030  0.46120  0.56570  1.0000 0.1208002615
H   H18       1.0  0.91970  0.53880  0.43430  1.0000 0.1208002615
H   H19       1.0  0.13740  0.63430  0.71970  1.0000 0.1374730527
H   H20       1.0  0.86260  0.36570  0.28030  1.0000 0.1374730527
H   H21       1.0  0.64510  0.38430  0.05680  1.0000 0.1297970303
H   H22       1.0  0.35490  0.61570  0.94320  1.0000 0.1297970303
H   H23       1.0  0.61020  0.70820  0.05110  1.0000 0.1374730527
H   H24       1.0  0.38980  0.29180  0.94890  1.0000 0.1374730527
C   C1        1.0  0.66710  0.81410  0.66410  1.0000 -0.1423991226
C   C2        1.0  0.33290  0.18590  0.33590  1.0000 -0.1423991226
C   C3        1.0  0.88300  0.61070  0.69270  1.0000 -0.1423991226
C   C4        1.0  0.11700  0.38930  0.30730  1.0000 -0.1423991226
C   C5        1.0  0.54660  0.87040  0.68770  1.0000 -0.0828844491
C   C6        1.0  0.45340  0.12960  0.31230  1.0000 -0.0828844491
C   C7        1.0  0.68140  0.49830  0.91470  1.0000 -0.0707680877
C   C8        1.0  0.31860  0.50170  0.08530  1.0000 -0.0707680877
C   C9        1.0  0.68970  0.61320  0.85920  1.0000 -0.1466275953
C   C10       1.0  0.31030  0.38680  0.14080  1.0000 -0.1466275953
C   C11       1.0  0.73780  0.87930  0.58970  1.0000 -0.0896730134
C   C12       1.0  0.26220  0.12070  0.41030  1.0000 -0.0896730134
C   C13       1.0  0.66420  0.69210  0.90990  1.0000 -0.0896730134
C   C14       1.0  0.33580  0.30790  0.09010  1.0000 -0.0896730134
C   C15       1.0  0.96200  0.64620  0.72490  1.0000 -0.0896730134
C   C16       1.0  0.03800  0.35380  0.27510  1.0000 -0.0896730134
C   C17       1.0  0.92800  0.53790  0.63750  1.0000 -0.0707680877
C   C18       1.0  0.07200  0.46210  0.36250  1.0000 -0.0707680877
C   C19       1.0  0.52170  0.18770  0.51030  1.0000 0.5418499507
C   C20       1.0  0.47830  0.81230  0.48970  1.0000 0.5418499507
C   C21       1.0  0.50000  0.99080  0.63960  1.0000 -0.0828844491
C   C22       1.0  0.50000  0.00920  0.36040  1.0000 -0.0828844491
C   C23       1.0  0.57120  0.05580  0.56500  1.0000 0.0098598729
C   C24       1.0  0.42880  0.94420  0.43500  1.0000 0.0098598729
C   C25       1.0  0.68950  0.00070  0.53980  1.0000 -0.0896730134
C   C26       1.0  0.31050  0.99930  0.46020  1.0000 -0.0896730134
C   C27       1.0  0.05080  0.50930  0.60490  1.0000 -0.0896730134
C   C28       1.0  0.94920  0.49070  0.39510  1.0000 -0.0896730134
C   C29       1.0  0.08400  0.61350  0.69500  1.0000 -0.0896730134
C   C30       1.0  0.91600  0.38650  0.30500  1.0000 -0.0896730134
C   C31       1.0  0.12750  0.55130  0.63010  1.0000 -0.0099387612
C   C32       1.0  0.87250  0.44870  0.36990  1.0000 -0.0099387612
C   C33       1.0  0.25690  0.52690  0.58800  1.0000 0.6098507442
C   C34       1.0  0.74310  0.47310  0.41200  1.0000 0.6098507442
C   C35       1.0  0.61600  0.54250  0.06990  1.0000 0.0098598729
C   C36       1.0  0.38400  0.45750  0.93010  1.0000 0.0098598729
C   C37       1.0  0.56690  0.50700  0.18230  1.0000 0.5185307063
C   C38       1.0  0.43310  0.49300  0.81770  1.0000 0.5185307063
C   C39       1.0  0.64730  0.46200  0.01960  1.0000 -0.0954079158
C   C40       1.0  0.35270  0.53800  0.98040  1.0000 -0.0954079158
C   C41       1.0  0.62720  0.65610  0.01630  1.0000 -0.0896730134
C   C42       1.0  0.37280  0.34390  0.98370  1.0000 -0.0896730134
O   O1        1.0  0.53080  0.39080  0.56620  1.0000 -0.9297928415
O   O2        1.0  0.46920  0.60920  0.43380  1.0000 -0.9297928415
O   O3        1.0  0.66580  0.59810  0.67860  1.0000 -0.6663800977
O   O4        1.0  0.33420  0.40190  0.32140  1.0000 -0.6663800977
O   O5        1.0  0.71650  0.36530  0.68610  1.0000 -0.1797772698
O   O6        1.0  0.28350  0.63470  0.31390  1.0000 -0.1797772698
O   O7        1.0  0.41670  0.24500  0.53170  1.0000 -0.5283107958
O   O8        1.0  0.58330  0.75500  0.46830  1.0000 -0.5283107958
O   O9        1.0  0.59200  0.24180  0.44250  1.0000 -0.5483501754
O   O10       1.0  0.40800  0.75820  0.55750  1.0000 -0.5483501754
O   O11       1.0  0.32630  0.55690  0.62210  1.0000 -0.5483501754
O   O12       1.0  0.67370  0.44310  0.37790  1.0000 -0.5483501754
O   O13       1.0  0.28250  0.48700  0.51740  1.0000 -0.5119736395
O   O14       1.0  0.71750  0.51300  0.48260  1.0000 -0.5119736395
O   O15       1.0  0.57050  0.40230  0.23420  1.0000 -0.5414369605
O   O16       1.0  0.42950  0.59770  0.76580  1.0000 -0.5414369605
O   O17       1.0  0.51530  0.58880  0.21870  1.0000 -0.5201832853
O   O18       1.0  0.48470  0.41120  0.78130  1.0000 -0.5201832853
