# DDEC6 charges by PACMAN v1.1 (https://github.com/mtap-research/PACMAN-charge/)
data_2016[Gd][rtl]3[FSR]1
_chemical_formula_sum              "Gd4 H44 C60 O36"
_cell_length_a       5.9953
_cell_length_b       11.9355
_cell_length_c       23.3985
_cell_angle_alpha    90
_cell_angle_beta     97.6546
_cell_angle_gamma    90

_symmetry_space_group_name_H-M    "P 1"
_symmetry_Int_Tables_number       1

loop_
  _symmetry_equiv_pos_as_xyz
  'x, y, z'

loop_
  _atom_site_type_symbol
  _atom_site_label
  _atom_site_symmetry_multiplicity
  _atom_site_fract_x
  _atom_site_fract_y
  _atom_site_fract_z
  _atom_site_occupancy
  _atom_site_charge
Gd  Gd1       1.0  0.42976  0.14572  0.04399  1.0000 1.9789176991
Gd  Gd2       1.0  0.57024  0.64572  0.45601  1.0000 1.9789176991
Gd  Gd3       1.0  0.57024  0.85428  0.95601  1.0000 1.9789176991
Gd  Gd4       1.0  0.42976  0.35428  0.54399  1.0000 1.9789176991
H   H1        1.0  0.88570  0.11880  0.08860  1.0000 0.3706314276
H   H2        1.0  0.11430  0.61880  0.41140  1.0000 0.3706314276
H   H3        1.0  0.11430  0.88120  0.91140  1.0000 0.3706314276
H   H4        1.0  0.88570  0.38120  0.58860  1.0000 0.3706314276
H   H5        1.0  0.77120  0.05440  0.12460  1.0000 0.3706314276
H   H6        1.0  0.22880  0.55440  0.37540  1.0000 0.3706314276
H   H7        1.0  0.22880  0.94560  0.87540  1.0000 0.3706314276
H   H8        1.0  0.77120  0.44560  0.62460  1.0000 0.3706314276
H   H9        1.0  0.80390  0.26790  0.01630  1.0000 0.3638053944
H   H10       1.0  0.19610  0.76790  0.48370  1.0000 0.3638053944
H   H11       1.0  0.19610  0.73210  0.98370  1.0000 0.3638053944
H   H12       1.0  0.80390  0.23210  0.51630  1.0000 0.3638053944
H   H13       1.0  0.76600  0.31040  0.06940  1.0000 0.3706314276
H   H14       1.0  0.23400  0.81040  0.43060  1.0000 0.3706314276
H   H15       1.0  0.23400  0.68960  0.93060  1.0000 0.3706314276
H   H16       1.0  0.76600  0.18960  0.56940  1.0000 0.3706314276
H   H17       1.0  0.93540  0.59790  0.10800  1.0000 0.1320505252
H   H18       1.0  0.06460  0.09790  0.39200  1.0000 0.1320505252
H   H19       1.0  0.06460  0.40210  0.89200  1.0000 0.1320505252
H   H20       1.0  0.93540  0.90210  0.60800  1.0000 0.1320505252
H   H21       1.0  0.24620  0.52400  0.16680  1.0000 0.11803684
H   H22       1.0  0.75380  0.02400  0.33320  1.0000 0.11803684
H   H23       1.0  0.75380  0.47600  0.83320  1.0000 0.11803684
H   H24       1.0  0.24620  0.97600  0.66680  1.0000 0.11803684
H   H25       1.0  0.57470  0.62550  0.18690  1.0000 0.140451962
H   H26       1.0  0.42530  0.12550  0.31310  1.0000 0.140451962
H   H27       1.0  0.42530  0.37450  0.81310  1.0000 0.140451962
H   H28       1.0  0.57470  0.87450  0.68690  1.0000 0.140451962
H   H29       1.0  0.53950  0.76470  0.25830  1.0000 0.1320505252
H   H30       1.0  0.46050  0.26470  0.24170  1.0000 0.1320505252
H   H31       1.0  0.46050  0.23530  0.74170  1.0000 0.1320505252
H   H32       1.0  0.53950  0.73530  0.75830  1.0000 0.1320505252
H   H33       1.0  0.14090  0.85150  0.34940  1.0000 0.11803684
H   H34       1.0  0.85910  0.35150  0.15060  1.0000 0.11803684
H   H35       1.0  0.85910  0.14850  0.65060  1.0000 0.11803684
H   H36       1.0  0.14090  0.64850  0.84940  1.0000 0.11803684
H   H37       1.0  0.25110  0.92890  0.26500  1.0000 0.11803684
H   H38       1.0  0.74890  0.42890  0.23500  1.0000 0.11803684
H   H39       1.0  0.74890  0.07110  0.73500  1.0000 0.11803684
H   H40       1.0  0.25110  0.57110  0.76500  1.0000 0.11803684
H   H41       1.0  0.02720  0.91710  0.17820  1.0000 0.140451962
H   H42       1.0  0.97280  0.41710  0.32180  1.0000 0.140451962
H   H43       1.0  0.97280  0.08290  0.82180  1.0000 0.140451962
H   H44       1.0  0.02720  0.58290  0.67820  1.0000 0.140451962
C   C1        1.0  0.45990  0.76440  0.14390  1.0000 0.2316668889
C   C2        1.0  0.54010  0.26440  0.35610  1.0000 0.2316668889
C   C3        1.0  0.54010  0.23560  0.85610  1.0000 0.2316668889
C   C4        1.0  0.45990  0.73560  0.64390  1.0000 0.2316668889
C   C5        1.0  0.28120  0.80970  0.10520  1.0000 -0.1286801735
C   C6        1.0  0.71880  0.30970  0.39480  1.0000 -0.1286801735
C   C7        1.0  0.71880  0.19030  0.89480  1.0000 -0.1286801735
C   C8        1.0  0.28120  0.69030  0.60520  1.0000 -0.1286801735
C   C9        1.0  0.09180  0.74160  0.09080  1.0000 -0.0274904657
C   C10       1.0  0.90820  0.24160  0.40920  1.0000 -0.0274904657
C   C11       1.0  0.90820  0.25840  0.90920  1.0000 -0.0274904657
C   C12       1.0  0.09180  0.75840  0.59080  1.0000 -0.0274904657
C   C13       1.0  0.07120  0.63900  0.11520  1.0000 -0.1056242736
C   C14       1.0  0.92880  0.13900  0.38480  1.0000 -0.1056242736
C   C15       1.0  0.92880  0.36100  0.88480  1.0000 -0.1056242736
C   C16       1.0  0.07120  0.86100  0.61520  1.0000 -0.1056242736
C   C17       1.0  0.25490  0.59690  0.15090  1.0000 -0.0591261575
C   C18       1.0  0.74510  0.09690  0.34910  1.0000 -0.0591261575
C   C19       1.0  0.74510  0.40310  0.84910  1.0000 -0.0591261575
C   C20       1.0  0.25490  0.90310  0.65090  1.0000 -0.0591261575
C   C21       1.0  0.44790  0.65800  0.16390  1.0000 -0.1912915299
C   C22       1.0  0.55210  0.15800  0.33610  1.0000 -0.1912915299
C   C23       1.0  0.55210  0.34200  0.83610  1.0000 -0.1912915299
C   C24       1.0  0.44790  0.84200  0.66390  1.0000 -0.1912915299
C   C25       1.0  0.31850  0.92160  0.08050  1.0000 0.655382674
C   C26       1.0  0.68150  0.42160  0.41950  1.0000 0.655382674
C   C27       1.0  0.68150  0.07840  0.91950  1.0000 0.655382674
C   C28       1.0  0.31850  0.57840  0.58050  1.0000 0.655382674
C   C29       1.0  0.89620  0.78450  0.04820  1.0000 0.5681627801
C   C30       1.0  0.10380  0.28450  0.45180  1.0000 0.5681627801
C   C31       1.0  0.10380  0.21550  0.95180  1.0000 0.5681627801
C   C32       1.0  0.89620  0.71550  0.54820  1.0000 0.5681627801
C   C33       1.0  0.76750  0.83720  0.20950  1.0000 0.2726905158
C   C34       1.0  0.23250  0.33720  0.29050  1.0000 0.2726905158
C   C35       1.0  0.23250  0.16280  0.79050  1.0000 0.2726905158
C   C36       1.0  0.76750  0.66280  0.70950  1.0000 0.2726905158
C   C37       1.0  0.68580  0.79630  0.25980  1.0000 -0.2406030709
C   C38       1.0  0.31420  0.29630  0.24020  1.0000 -0.2406030709
C   C39       1.0  0.31420  0.20370  0.74020  1.0000 -0.2406030709
C   C40       1.0  0.68580  0.70370  0.75980  1.0000 -0.2406030709
C   C41       1.0  0.83050  0.80480  0.31150  1.0000 -0.0274904657
C   C42       1.0  0.16950  0.30480  0.18850  1.0000 -0.0274904657
C   C43       1.0  0.16950  0.19520  0.68850  1.0000 -0.0274904657
C   C44       1.0  0.83050  0.69520  0.81150  1.0000 -0.0274904657
C   C45       1.0  0.04220  0.85000  0.31420  1.0000 -0.1216406005
C   C46       1.0  0.95780  0.35000  0.18580  1.0000 -0.1216406005
C   C47       1.0  0.95780  0.15000  0.68580  1.0000 -0.1216406005
C   C48       1.0  0.04220  0.65000  0.81420  1.0000 -0.1216406005
C   C49       1.0  0.10810  0.89360  0.26310  1.0000 -0.0591261575
C   C50       1.0  0.89190  0.39360  0.23690  1.0000 -0.0591261575
C   C51       1.0  0.89190  0.10640  0.73690  1.0000 -0.0591261575
C   C52       1.0  0.10810  0.60640  0.76310  1.0000 -0.0591261575
C   C53       1.0  0.97700  0.88760  0.21200  1.0000 -0.1977606306
C   C54       1.0  0.02300  0.38760  0.28800  1.0000 -0.1977606306
C   C55       1.0  0.02300  0.11240  0.78800  1.0000 -0.1977606306
C   C56       1.0  0.97700  0.61240  0.71200  1.0000 -0.1977606306
C   C57       1.0  0.74740  0.75910  0.36240  1.0000 0.5900919249
C   C58       1.0  0.25260  0.25910  0.13760  1.0000 0.5900919249
C   C59       1.0  0.25260  0.24090  0.63760  1.0000 0.5900919249
C   C60       1.0  0.74740  0.74090  0.86240  1.0000 0.5900919249
O   O1        1.0  0.64680  0.83490  0.15480  1.0000 -0.2123895178
O   O2        1.0  0.35320  0.33490  0.34520  1.0000 -0.2123895178
O   O3        1.0  0.35320  0.16510  0.84520  1.0000 -0.2123895178
O   O4        1.0  0.64680  0.66510  0.65480  1.0000 -0.2123895178
O   O5        1.0  0.41450  0.93270  0.03550  1.0000 -0.7090596745
O   O6        1.0  0.58550  0.43270  0.46450  1.0000 -0.7090596745
O   O7        1.0  0.58550  0.06730  0.96450  1.0000 -0.7090596745
O   O8        1.0  0.41450  0.56730  0.53550  1.0000 -0.7090596745
O   O9        1.0  0.26180  0.00700  0.10680  1.0000 -0.5916474054
O   O10       1.0  0.73820  0.50700  0.39320  1.0000 -0.5916474054
O   O11       1.0  0.73820  0.99300  0.89320  1.0000 -0.5916474054
O   O12       1.0  0.26180  0.49300  0.60680  1.0000 -0.5916474054
O   O13       1.0  0.73430  0.72020  0.02930  1.0000 -0.6083870718
O   O14       1.0  0.26570  0.22020  0.47070  1.0000 -0.6083870718
O   O15       1.0  0.26570  0.27980  0.97070  1.0000 -0.6083870718
O   O16       1.0  0.73430  0.77980  0.52930  1.0000 -0.6083870718
O   O17       1.0  0.90500  0.88310  0.02800  1.0000 -0.5739807079
O   O18       1.0  0.09500  0.38310  0.47200  1.0000 -0.5739807079
O   O19       1.0  0.09500  0.11690  0.97200  1.0000 -0.5739807079
O   O20       1.0  0.90500  0.61690  0.52800  1.0000 -0.5739807079
O   O21       1.0  0.87290  0.74430  0.41190  1.0000 -0.6807778219
O   O22       1.0  0.12710  0.24430  0.08810  1.0000 -0.6807778219
O   O23       1.0  0.12710  0.25570  0.58810  1.0000 -0.6807778219
O   O24       1.0  0.87290  0.75570  0.91190  1.0000 -0.6807778219
O   O25       1.0  0.53440  0.73280  0.36140  1.0000 -0.6722090432
O   O26       1.0  0.46560  0.23280  0.13860  1.0000 -0.6722090432
O   O27       1.0  0.46560  0.26720  0.63860  1.0000 -0.6722090432
O   O28       1.0  0.53440  0.76720  0.86140  1.0000 -0.6722090432
O   O29       1.0  0.78270  0.07030  0.08970  1.0000 -0.7322214434
O   O30       1.0  0.21730  0.57030  0.41030  1.0000 -0.7322214434
O   O31       1.0  0.21730  0.92970  0.91030  1.0000 -0.7322214434
O   O32       1.0  0.78270  0.42970  0.58970  1.0000 -0.7322214434
O   O33       1.0  0.70390  0.29200  0.03590  1.0000 -0.7322214434
O   O34       1.0  0.29610  0.79200  0.46410  1.0000 -0.7322214434
O   O35       1.0  0.29610  0.70800  0.96410  1.0000 -0.7322214434
O   O36       1.0  0.70390  0.20800  0.53590  1.0000 -0.7322214434
