# DDEC6 charges by PACMAN v1.1 (https://github.com/mtap-research/PACMAN-charge/)
data_2016[TbGe][pcu]3[FSR]1
_chemical_formula_sum              "Tb20 Ge28 H132 C104 N8 O140"
_cell_length_a       12.8712
_cell_length_b       21.6552
_cell_length_c       23.5052
_cell_angle_alpha    106.275
_cell_angle_beta     101.46
_cell_angle_gamma    94.909

_symmetry_space_group_name_H-M    "P 1"
_symmetry_Int_Tables_number       1

loop_
  _symmetry_equiv_pos_as_xyz
  'x, y, z'

loop_
  _atom_site_type_symbol
  _atom_site_label
  _atom_site_symmetry_multiplicity
  _atom_site_fract_x
  _atom_site_fract_y
  _atom_site_fract_z
  _atom_site_occupancy
  _atom_site_charge
Tb  Tb1       1.0  0.44370  0.33480  0.83110  1.0000 2.0695676722
Tb  Tb2       1.0  0.55630  0.66520  0.16890  1.0000 2.0695676722
Tb  Tb3       1.0  0.78960  0.52780  0.98200  1.0000 2.2405338206
Tb  Tb4       1.0  0.21040  0.47220  0.01800  1.0000 2.2405338206
Tb  Tb5       1.0  0.70420  0.42140  0.07170  1.0000 2.2022625126
Tb  Tb6       1.0  0.29580  0.57860  0.92830  1.0000 2.2022625126
Tb  Tb7       1.0  0.41940  0.39230  0.08690  1.0000 2.2097989239
Tb  Tb8       1.0  0.58060  0.60770  0.91310  1.0000 2.2097989239
Tb  Tb9       1.0  0.36770  0.27920  0.18000  1.0000 2.051266066
Tb  Tb10      1.0  0.63230  0.72080  0.82000  1.0000 2.051266066
Tb  Tb11      1.0  0.09050  0.11940  0.24190  1.0000 2.0434571423
Tb  Tb12      1.0  0.90950  0.88060  0.75810  1.0000 2.0434571423
Tb  Tb13      1.0  0.06270  0.05840  0.37460  1.0000 2.2097989239
Tb  Tb14      1.0  0.93730  0.94160  0.62540  1.0000 2.2097989239
Tb  Tb15      1.0  0.28590  0.01140  0.46930  1.0000 2.2318216481
Tb  Tb16      1.0  0.71410  0.98860  0.53070  1.0000 2.2318216481
Tb  Tb17      1.0  0.78300  0.04590  0.40150  1.0000 2.2201336541
Tb  Tb18      1.0  0.21700  0.95410  0.59850  1.0000 2.2201336541
Tb  Tb19      1.0  0.05510  0.20270  0.62590  1.0000 2.0695676722
Tb  Tb20      1.0  0.94490  0.79730  0.37410  1.0000 2.0695676722
Ge  Ge1       1.0  0.70020  0.36230  0.90940  1.0000 1.4810227223
Ge  Ge2       1.0  0.29980  0.63770  0.09060  1.0000 1.4810227223
Ge  Ge3       1.0  0.51860  0.29660  0.96170  1.0000 1.4810227223
Ge  Ge4       1.0  0.48140  0.70340  0.03830  1.0000 1.4810227223
Ge  Ge5       1.0  0.26910  0.31080  0.93750  1.0000 1.4910049655
Ge  Ge6       1.0  0.73090  0.68920  0.06250  1.0000 1.4910049655
Ge  Ge7       1.0  0.19190  0.40640  0.85770  1.0000 1.5096638121
Ge  Ge8       1.0  0.80810  0.59360  0.14230  1.0000 1.5096638121
Ge  Ge9       1.0  0.36780  0.47390  0.80770  1.0000 1.4910049655
Ge  Ge10      1.0  0.63220  0.52610  0.19230  1.0000 1.4910049655
Ge  Ge11      1.0  0.61930  0.45670  0.82670  1.0000 1.4910049655
Ge  Ge12      1.0  0.38070  0.54330  0.17330  1.0000 1.4910049655
Ge  Ge13      1.0  0.15290  0.34910  0.11370  1.0000 1.4488119104
Ge  Ge14      1.0  0.84710  0.65090  0.88630  1.0000 1.4488119104
Ge  Ge15      1.0  0.31890  0.08120  0.32750  1.0000 1.4488119104
Ge  Ge16      1.0  0.68110  0.91880  0.67250  1.0000 1.4488119104
Ge  Ge17      1.0  0.21910  0.17820  0.50500  1.0000 1.5096638121
Ge  Ge18      1.0  0.78090  0.82180  0.49500  1.0000 1.5096638121
Ge  Ge19      1.0  0.96800  0.18720  0.47720  1.0000 1.4810227223
Ge  Ge20      1.0  0.03200  0.81280  0.52280  1.0000 1.4810227223
Ge  Ge21      1.0  0.79690  0.15380  0.55340  1.0000 1.4810227223
Ge  Ge22      1.0  0.20310  0.84620  0.44660  1.0000 1.4810227223
Ge  Ge23      1.0  0.89470  0.10270  0.66980  1.0000 1.4910049655
Ge  Ge24      1.0  0.10530  0.89730  0.33020  1.0000 1.4910049655
Ge  Ge25      1.0  0.14700  0.08950  0.69290  1.0000 1.5000344433
Ge  Ge26      1.0  0.85300  0.91050  0.30710  1.0000 1.5000344433
Ge  Ge27      1.0  0.31190  0.12260  0.61740  1.0000 1.5096638121
Ge  Ge28      1.0  0.68810  0.87740  0.38260  1.0000 1.5096638121
H   H1        1.0  0.44850  0.15710  0.38820  1.0000 0.3829877891
H   H2        1.0  0.55150  0.84290  0.61180  1.0000 0.3829877891
H   H3        1.0  0.41460  0.01870  0.37710  1.0000 0.3963914209
H   H4        1.0  0.58540  0.98130  0.62290  1.0000 0.3963914209
H   H5        1.0  0.06110  0.42550  0.08270  1.0000 0.3963914209
H   H6        1.0  0.93890  0.57450  0.91730  1.0000 0.3963914209
H   H7        1.0  0.01300  0.28010  0.05430  1.0000 0.3909345188
H   H8        1.0  0.98700  0.71990  0.94570  1.0000 0.3909345188
H   H9        1.0  0.79730  0.27090  0.90010  1.0000 0.1508163999
H   H10       1.0  0.20270  0.72910  0.09990  1.0000 0.1508163999
H   H11       1.0  0.81370  0.30350  0.85030  1.0000 0.1508163999
H   H12       1.0  0.18630  0.69650  0.14970  1.0000 0.1508163999
H   H13       1.0  0.97650  0.32320  0.91480  1.0000 0.1396031541
H   H14       1.0  0.02350  0.67680  0.08520  1.0000 0.1396031541
H   H15       1.0  0.92850  0.34260  0.97240  1.0000 0.1396031541
H   H16       1.0  0.07150  0.65740  0.02760  1.0000 0.1396031541
H   H17       1.0  0.53030  0.21390  0.01310  1.0000 0.1574301139
H   H18       1.0  0.46970  0.78610  0.98690  1.0000 0.1574301139
H   H19       1.0  0.50020  0.17980  0.94260  1.0000 0.1508163999
H   H20       1.0  0.49980  0.82020  0.05740  1.0000 0.1508163999
H   H21       1.0  0.67350  0.16720  0.99440  1.0000 0.1308437746
H   H22       1.0  0.32650  0.83280  0.00560  1.0000 0.1308437746
H   H23       1.0  0.67160  0.18850  0.93580  1.0000 0.1396031541
H   H24       1.0  0.32840  0.81150  0.06420  1.0000 0.1396031541
H   H25       1.0  0.12500  0.24720  0.95780  1.0000 0.1508163999
H   H26       1.0  0.87500  0.75280  0.04220  1.0000 0.1508163999
H   H27       1.0  0.14830  0.20890  0.89560  1.0000 0.1508163999
H   H28       1.0  0.85170  0.79110  0.10440  1.0000 0.1508163999
H   H29       1.0  0.19170  0.15920  0.97650  1.0000 0.1574301139
H   H30       1.0  0.80830  0.84080  0.02350  1.0000 0.1574301139
H   H31       1.0  0.28240  0.16470  0.94160  1.0000 0.1308437746
H   H32       1.0  0.71760  0.83530  0.05840  1.0000 0.1308437746
H   H33       1.0  0.00260  0.36810  0.81960  1.0000 0.1508163999
H   H34       1.0  0.99740  0.63190  0.18040  1.0000 0.1508163999
H   H35       1.0  0.02320  0.44270  0.82910  1.0000 0.1574301139
H   H36       1.0  0.97680  0.55730  0.17090  1.0000 0.1574301139
H   H37       1.0  0.95410  0.39860  0.73050  1.0000 0.1308437746
H   H38       1.0  0.04590  0.60140  0.26950  1.0000 0.1308437746
H   H39       1.0  0.07560  0.41960  0.73570  1.0000 0.1211890581
H   H40       1.0  0.92440  0.58040  0.26430  1.0000 0.1211890581
H   H41       1.0  0.38280  0.51320  0.72300  1.0000 0.1396031541
H   H42       1.0  0.61720  0.48680  0.27700  1.0000 0.1396031541
H   H43       1.0  0.30840  0.44590  0.69860  1.0000 0.1574301139
H   H44       1.0  0.69160  0.55410  0.30140  1.0000 0.1574301139
H   H45       1.0  0.24760  0.56180  0.71400  1.0000 0.1396031541
H   H46       1.0  0.75240  0.43820  0.28600  1.0000 0.1396031541
H   H47       1.0  0.17370  0.49430  0.68660  1.0000 0.1396031541
H   H48       1.0  0.82630  0.50570  0.31340  1.0000 0.1396031541
H   H49       1.0  0.76970  0.48140  0.78500  1.0000 0.1508163999
H   H50       1.0  0.23030  0.51860  0.21500  1.0000 0.1508163999
H   H51       1.0  0.69540  0.41900  0.73900  1.0000 0.1574301139
H   H52       1.0  0.30460  0.58100  0.26100  1.0000 0.1574301139
H   H53       1.0  0.70180  0.51990  0.70880  1.0000 0.1508163999
H   H54       1.0  0.29820  0.48010  0.29120  1.0000 0.1508163999
H   H55       1.0  0.58990  0.47630  0.69290  1.0000 0.1396031541
H   H56       1.0  0.41010  0.52370  0.30710  1.0000 0.1396031541
H   H57       1.0  0.16880  0.38600  0.22230  1.0000 0.1396031541
H   H58       1.0  0.83120  0.61400  0.77770  1.0000 0.1396031541
H   H59       1.0  0.06280  0.40430  0.18960  1.0000 0.1574301139
H   H60       1.0  0.93720  0.59570  0.81040  1.0000 0.1574301139
H   H61       1.0  0.02180  0.32560  0.23510  1.0000 0.1508163999
H   H62       1.0  0.97820  0.67440  0.76490  1.0000 0.1508163999
H   H63       1.0  0.97730  0.29810  0.16440  1.0000 0.1396031541
H   H64       1.0  0.02270  0.70190  0.83560  1.0000 0.1396031541
H   H65       1.0  0.40170  0.00640  0.25850  1.0000 0.1574301139
H   H66       1.0  0.59830  0.99360  0.74150  1.0000 0.1574301139
H   H67       1.0  0.28850  0.01230  0.22270  1.0000 0.1308437746
H   H68       1.0  0.71150  0.98770  0.77730  1.0000 0.1308437746
H   H69       1.0  0.47750  0.10120  0.24750  1.0000 0.1396031541
H   H70       1.0  0.52250  0.89880  0.75250  1.0000 0.1396031541
H   H71       1.0  0.41440  0.05700  0.18280  1.0000 0.1396031541
H   H72       1.0  0.58560  0.94300  0.81720  1.0000 0.1396031541
H   H73       1.0  0.33340  0.27820  0.51870  1.0000 0.1508163999
H   H74       1.0  0.66667  0.72180  0.48130  1.0000 0.1508163999
H   H75       1.0  0.36080  0.22250  0.46760  1.0000 0.1508163999
H   H76       1.0  0.63920  0.77750  0.53240  1.0000 0.1508163999
H   H77       1.0  0.20550  0.30320  0.45370  1.0000 0.1211890581
H   H78       1.0  0.79450  0.69680  0.54630  1.0000 0.1211890581
H   H79       1.0  0.29010  0.28530  0.41460  1.0000 0.1508163999
H   H80       1.0  0.70990  0.71470  0.58540  1.0000 0.1508163999
H   H81       1.0  0.98170  0.29170  0.45840  1.0000 0.1574301139
H   H82       1.0  0.01830  0.70830  0.54160  1.0000 0.1574301139
H   H83       1.0  0.93240  0.23710  0.39640  1.0000 0.1651679196
H   H84       1.0  0.06760  0.76290  0.60360  1.0000 0.1651679196
H   H85       1.0  0.81830  0.29230  0.48530  1.0000 0.1396031541
H   H86       1.0  0.18170  0.70770  0.51470  1.0000 0.1396031541
H   H87       1.0  0.79640  0.29640  0.41850  1.0000 0.1396031541
H   H88       1.0  0.20360  0.70360  0.58150  1.0000 0.1396031541
H   H89       1.0  0.67620  0.22140  0.59770  1.0000 0.1508163999
H   H90       1.0  0.32380  0.77860  0.40230  1.0000 0.1508163999
H   H91       1.0  0.68990  0.23650  0.53800  1.0000 0.1508163999
H   H92       1.0  0.31010  0.76350  0.46200  1.0000 0.1508163999
H   H93       1.0  0.51380  0.18640  0.53030  1.0000 0.1396031541
H   H94       1.0  0.48620  0.81360  0.46970  1.0000 0.1396031541
H   H95       1.0  0.56540  0.14990  0.47800  1.0000 0.1396031541
H   H96       1.0  0.43460  0.85010  0.52200  1.0000 0.1396031541
H   H97       1.0  0.82810  0.16950  0.75210  1.0000 0.1508163999
H   H98       1.0  0.17190  0.83050  0.24790  1.0000 0.1574301139
H   H99       1.0  0.75450  0.10170  0.72480  1.0000 0.1508163999
H   H100      1.0  0.24550  0.89830  0.27520  1.0000 0.1508163999
H   H101      1.0  0.94350  0.13550  0.81620  1.0000 0.1508163999
H   H102      1.0  0.05650  0.86450  0.18380  1.0000 0.1508163999
H   H103      1.0  0.83520  0.09590  0.81560  1.0000 0.1508163999
H   H104      1.0  0.16480  0.90410  0.18440  1.0000 0.1508163999
H   H105      1.0  0.18400  0.14320  0.80180  1.0000 0.1508163999
H   H106      1.0  0.81600  0.85680  0.19820  1.0000 0.1508163999
H   H107      1.0  0.16000  0.06780  0.78970  1.0000 0.1396031541
H   H108      1.0  0.84000  0.93220  0.21030  1.0000 0.1396031541
H   H109      1.0  0.35800  0.14190  0.80370  1.0000 0.1508163999
H   H110      1.0  0.64200  0.85810  0.19630  1.0000 0.1508163999
H   H111      1.0  0.33490  0.08720  0.83330  1.0000 0.1308437746
H   H112      1.0  0.66510  0.91280  0.16670  1.0000 0.1308437746
H   H113      1.0  0.46000  0.12490  0.70060  1.0000 0.1508163999
H   H114      1.0  0.54000  0.87510  0.29940  1.0000 0.1508163999
H   H115      1.0  0.49680  0.10320  0.63940  1.0000 0.1508163999
H   H116      1.0  0.50320  0.89680  0.36060  1.0000 0.1508163999
H   H117      1.0  0.60010  0.19990  0.69010  1.0000 0.1308437746
H   H118      1.0  0.39990  0.80010  0.30990  1.0000 0.1308437746
H   H119      1.0  0.51230  0.21710  0.64250  1.0000 0.1308437746
H   H120      1.0  0.48770  0.78290  0.35750  1.0000 0.1308437746
H   H121      1.0  0.79990  0.29970  0.19610  1.0000 0.1396031541
H   H122      1.0  0.20010  0.70030  0.80390  1.0000 0.1396031541
H   H123      1.0  0.72660  0.20500  0.30970  1.0000 0.1211890581
H   H124      1.0  0.27340  0.79500  0.69030  1.0000 0.1211890581
H   H125      1.0  0.55420  0.22320  0.28520  1.0000 0.1308437746
H   H126      1.0  0.44580  0.77680  0.71480  1.0000 0.1308437746
H   H127      1.0  0.90510  0.12080  0.11060  1.0000 0.1396031541
H   H128      1.0  0.09490  0.87920  0.88940  1.0000 0.1396031541
H   H129      1.0  0.72630  0.10390  0.06350  1.0000 0.1211890581
H   H130      1.0  0.27370  0.89610  0.93650  1.0000 0.1211890581
H   H131      1.0  0.65840  0.07150  0.21170  1.0000 0.1396031541
H   H132      1.0  0.34160  0.92850  0.78830  1.0000 0.1396031541
C   C1        1.0  0.81270  0.31230  0.89290  1.0000 -0.5004602715
C   C2        1.0  0.18730  0.68770  0.10710  1.0000 -0.5004602715
C   C3        1.0  0.92260  0.34600  0.93160  1.0000 -0.2892303846
C   C4        1.0  0.07740  0.65400  0.06840  1.0000 -0.2892303846
C   C5        1.0  0.94670  0.41740  0.93600  1.0000 0.7036406614
C   C6        1.0  0.05330  0.58260  0.06400  1.0000 0.7036406614
C   C7        1.0  0.54750  0.21490  0.97490  1.0000 -0.5004602715
C   C8        1.0  0.45250  0.78510  0.02510  1.0000 -0.5004602715
C   C9        1.0  0.66190  0.20250  0.97720  1.0000 -0.2714708429
C   C10       1.0  0.33810  0.79750  0.02280  1.0000 -0.2714708429
C   C11       1.0  0.74560  0.26070  0.01390  1.0000 0.6478723603
C   C12       1.0  0.25440  0.73930  0.98610  1.0000 0.6478723603
C   C13       1.0  0.18180  0.23390  0.93750  1.0000 -0.5072859547
C   C14       1.0  0.81820  0.76610  0.06250  1.0000 -0.5072859547
C   C15       1.0  0.24270  0.18960  0.96870  1.0000 -0.279918683
C   C16       1.0  0.75730  0.81040  0.03130  1.0000 -0.279918683
C   C17       1.0  0.31920  0.22840  0.02780  1.0000 0.6909348287
C   C18       1.0  0.68080  0.77160  0.97220  1.0000 0.6909348287
C   C19       1.0  0.04750  0.40180  0.81200  1.0000 -0.5004602715
C   C20       1.0  0.95250  0.59820  0.18800  1.0000 -0.5004602715
C   C21       1.0  0.02540  0.38900  0.74390  1.0000 -0.2536290965
C   C22       1.0  0.97460  0.61100  0.25610  1.0000 -0.2536290965
C   C23       1.0  0.03200  0.32220  0.70550  1.0000 0.6181077081
C   C24       1.0  0.96800  0.67780  0.29450  1.0000 0.6181077081
C   C25       1.0  0.32330  0.48780  0.72980  1.0000 -0.4933836393
C   C26       1.0  0.67670  0.51220  0.27020  1.0000 -0.4933836393
C   C27       1.0  0.22680  0.52150  0.72210  1.0000 -0.279918683
C   C28       1.0  0.77320  0.47850  0.27790  1.0000 -0.279918683
C   C29       1.0  0.17560  0.53700  0.77540  1.0000 0.6478723603
C   C30       1.0  0.82440  0.46300  0.22460  1.0000 0.6478723603
C   C31       1.0  0.69570  0.46250  0.76530  1.0000 -0.5004602715
C   C32       1.0  0.30430  0.53750  0.23470  1.0000 -0.5004602715
C   C33       1.0  0.64720  0.50360  0.72620  1.0000 -0.2714708429
C   C34       1.0  0.35280  0.49640  0.27380  1.0000 -0.2714708429
C   C35       1.0  0.60320  0.56050  0.76310  1.0000 0.67641171
C   C36       1.0  0.39680  0.43950  0.23690  1.0000 0.67641171
C   C37       1.0  0.10650  0.36980  0.18850  1.0000 -0.5072859547
C   C38       1.0  0.89350  0.63020  0.81150  1.0000 -0.5072859547
C   C39       1.0  0.04240  0.31200  0.19650  1.0000 -0.3095199547
C   C40       1.0  0.95760  0.68800  0.80350  1.0000 -0.3095199547
C   C41       1.0  0.10200  0.25520  0.19510  1.0000 0.7090964534
C   C42       1.0  0.89800  0.74480  0.80490  1.0000 0.7090964534
C   C43       1.0  0.35380  0.03700  0.25130  1.0000 -0.5004602715
C   C44       1.0  0.64620  0.96300  0.74870  1.0000 -0.5004602715
C   C45       1.0  0.40630  0.08240  0.22230  1.0000 -0.2892303846
C   C46       1.0  0.59370  0.91760  0.77770  1.0000 -0.2892303846
C   C47       1.0  0.34440  0.13730  0.21430  1.0000 0.6909348287
C   C48       1.0  0.65560  0.86270  0.78570  1.0000 0.6909348287
C   C49       1.0  0.30220  0.24180  0.48250  1.0000 -0.5185166381
C   C50       1.0  0.69780  0.75820  0.51750  1.0000 -0.5185166381
C   C51       1.0  0.24000  0.26780  0.43410  1.0000 -0.2714708429
C   C52       1.0  0.76000  0.73220  0.56590  1.0000 -0.2714708429
C   C53       1.0  0.15570  0.21650  0.38570  1.0000 0.6909348287
C   C54       1.0  0.84430  0.78350  0.61430  1.0000 0.6909348287
C   C55       1.0  0.92980  0.25250  0.43900  1.0000 -0.5004602715
C   C56       1.0  0.07020  0.74750  0.56100  1.0000 -0.5004602715
C   C57       1.0  0.81680  0.26850  0.44340  1.0000 -0.279918683
C   C58       1.0  0.18320  0.73150  0.55660  1.0000 -0.279918683
C   C59       1.0  0.73340  0.20810  0.42270  1.0000 0.640647582
C   C60       1.0  0.26660  0.79190  0.57730  1.0000 0.640647582
C   C61       1.0  0.67820  0.20170  0.55550  1.0000 -0.4933836393
C   C62       1.0  0.32180  0.79830  0.44450  1.0000 -0.4933836393
C   C63       1.0  0.56960  0.16040  0.52140  1.0000 -0.3095199547
C   C64       1.0  0.43040  0.83960  0.47860  1.0000 -0.3095199547
C   C65       1.0  0.54700  0.09830  0.53590  1.0000 0.7090964534
C   C66       1.0  0.45300  0.90170  0.46410  1.0000 0.7090964534
C   C67       1.0  0.82840  0.12290  0.73810  1.0000 -0.5004602715
C   C68       1.0  0.17160  0.87710  0.26190  1.0000 -0.5004602715
C   C69       1.0  0.88510  0.10160  0.79090  1.0000 -0.2714708429
C   C70       1.0  0.11490  0.89840  0.20910  1.0000 -0.279918683
C   C71       1.0  0.92910  0.03860  0.76950  1.0000 0.6745560684
C   C72       1.0  0.07090  0.96140  0.23050  1.0000 0.6745560684
C   C73       1.0  0.19870  0.10150  0.77870  1.0000 -0.5072859547
C   C74       1.0  0.80130  0.89850  0.22130  1.0000 -0.5072859547
C   C75       1.0  0.31840  0.09910  0.79610  1.0000 -0.2892303846
C   C76       1.0  0.68160  0.90090  0.20390  1.0000 -0.2892303846
C   C77       1.0  0.35290  0.05010  0.74570  1.0000 0.6478723603
C   C78       1.0  0.64710  0.94990  0.25430  1.0000 0.6478723603
C   C79       1.0  0.46000  0.13470  0.66280  1.0000 -0.5004602715
C   C80       1.0  0.54000  0.86530  0.33720  1.0000 -0.5004602715
C   C81       1.0  0.52420  0.20200  0.67810  1.0000 -0.2714708429
C   C82       1.0  0.47580  0.79800  0.32190  1.0000 -0.2714708429
C   C83       1.0  0.49050  0.24800  0.72870  1.0000 0.6107918837
C   C84       1.0  0.50950  0.75200  0.27130  1.0000 0.6107918837
C   C85       1.0  0.60780  0.32580  0.15560  1.0000 0.6181077081
C   C86       1.0  0.39220  0.67420  0.84440  1.0000 0.6181077081
C   C87       1.0  0.64560  0.29110  0.20090  1.0000 0.067764854
C   C88       1.0  0.35440  0.70890  0.79910  1.0000 0.067764854
C   C89       1.0  0.75130  0.28360  0.21480  1.0000 0.0192327995
C   C90       1.0  0.24870  0.71640  0.78520  1.0000 0.0192327995
C   C91       1.0  0.70800  0.22810  0.28220  1.0000 0.0192327995
C   C92       1.0  0.29200  0.77190  0.71780  1.0000 0.0192327995
C   C93       1.0  0.60400  0.23840  0.26660  1.0000 0.067764854
C   C94       1.0  0.39600  0.76160  0.73340  1.0000 0.067764854
C   C95       1.0  0.85490  0.10970  0.13100  1.0000 0.0860234567
C   C96       1.0  0.14510  0.89030  0.86900  1.0000 0.0860234567
C   C97       1.0  0.74720  0.10000  0.10240  1.0000 0.0192327995
C   C98       1.0  0.25280  0.90000  0.89760  1.0000 0.0192327995
C   C99       1.0  0.70750  0.08070  0.18990  1.0000 0.0192327995
C   C100      1.0  0.29250  0.91930  0.81010  1.0000 0.0192327995
C   C101      1.0  0.81530  0.09020  0.21530  1.0000 0.067764854
C   C102      1.0  0.18470  0.90980  0.78470  1.0000 0.067764854
C   C103      1.0  0.85790  0.08860  0.27870  1.0000 0.6181077081
C   C104      1.0  0.14210  0.91140  0.72130  1.0000 0.6181077081
N   N1        1.0  0.57010  0.26960  0.22560  1.0000 -0.3035612188
N   N2        1.0  0.42990  0.73040  0.77440  1.0000 -0.3035612188
N   N3        1.0  0.78510  0.25170  0.25740  1.0000 -0.1983204863
N   N4        1.0  0.21490  0.74830  0.74260  1.0000 -0.1983204863
N   N5        1.0  0.88970  0.10390  0.18600  1.0000 -0.2892303846
N   N6        1.0  0.11030  0.89610  0.81400  1.0000 -0.2892303846
N   N7        1.0  0.67200  0.08480  0.13190  1.0000 -0.1860378615
N   N8        1.0  0.32800  0.91520  0.86810  1.0000 -0.1860378615
O   O1        1.0  0.57940  0.30980  0.90310  1.0000 -0.8305057369
O   O2        1.0  0.42060  0.69020  0.09690  1.0000 -0.8305057369
O   O3        1.0  0.38840  0.29300  0.91140  1.0000 -0.8201981641
O   O4        1.0  0.61160  0.70700  0.08860  1.0000 -0.8201981641
O   O5        1.0  0.19550  0.33210  0.87480  1.0000 -0.7286883078
O   O6        1.0  0.80450  0.66790  0.12520  1.0000 -0.7286883078
O   O7        1.0  0.29460  0.40230  0.81550  1.0000 -0.79184831
O   O8        1.0  0.70540  0.59770  0.18450  1.0000 -0.79184831
O   O9        1.0  0.47850  0.42770  0.79990  1.0000 -0.8420444361
O   O10       1.0  0.52150  0.57230  0.20010  1.0000 -0.8420444361
O   O11       1.0  0.63750  0.38060  0.84250  1.0000 -0.8201981641
O   O12       1.0  0.36250  0.61940  0.15750  1.0000 -0.8201981641
O   O13       1.0  0.71640  0.42540  0.97630  1.0000 -1.0486527763
O   O14       1.0  0.28360  0.57460  0.02370  1.0000 -1.0486527763
O   O15       1.0  0.53190  0.37000  0.01900  1.0000 -1.0022975288
O   O16       1.0  0.46810  0.63000  0.98100  1.0000 -1.0022975288
O   O17       1.0  0.29010  0.38160  0.99930  1.0000 -1.0810763917
O   O18       1.0  0.70990  0.61840  0.00070  1.0000 -1.0810763917
O   O19       1.0  0.23620  0.47250  0.92350  1.0000 -1.0609451018
O   O20       1.0  0.76380  0.52750  0.07650  1.0000 -1.0609451018
O   O21       1.0  0.42080  0.53150  0.87900  1.0000 -1.0054643236
O   O22       1.0  0.57920  0.46850  0.12100  1.0000 -1.0054643236
O   O23       1.0  0.65560  0.51370  0.89890  1.0000 -1.0684409223
O   O24       1.0  0.34440  0.48630  0.10110  1.0000 -1.0684409223
O   O25       1.0  0.87110  0.44540  0.91760  1.0000 -0.678057105
O   O26       1.0  0.12890  0.55460  0.08240  1.0000 -0.678057105
O   O27       1.0  0.04120  0.44430  0.95790  1.0000 -0.6910208098
O   O28       1.0  0.95880  0.55570  0.04210  1.0000 -0.6910208098
O   O29       1.0  0.71690  0.31430  0.01350  1.0000 -0.6507615528
O   O30       1.0  0.28310  0.68570  0.98650  1.0000 -0.6507615528
O   O31       1.0  0.83710  0.25490  0.03840  1.0000 -0.5072859547
O   O32       1.0  0.16290  0.74510  0.96160  1.0000 -0.5072859547
O   O33       1.0  0.37380  0.27820  0.02580  1.0000 -0.678057105
O   O34       1.0  0.62620  0.72180  0.97420  1.0000 -0.678057105
O   O35       1.0  0.32670  0.21060  0.07480  1.0000 -0.5892900459
O   O36       1.0  0.67330  0.78940  0.92520  1.0000 -0.5892900459
O   O37       1.0  0.06980  0.28040  0.72830  1.0000 -0.5812862597
O   O38       1.0  0.93020  0.71960  0.27170  1.0000 -0.5812862597
O   O39       1.0  0.99940  0.30800  0.64860  1.0000 -0.6214723158
O   O40       1.0  0.00060  0.69200  0.35140  1.0000 -0.6214723158
O   O41       1.0  0.21680  0.51840  0.82050  1.0000 -0.658947625
O   O42       1.0  0.78320  0.48160  0.17950  1.0000 -0.658947625
O   O43       1.0  0.09640  0.56600  0.77420  1.0000 -0.47627879
O   O44       1.0  0.90360  0.43400  0.22580  1.0000 -0.47627879
O   O45       1.0  0.56360  0.55020  0.80470  1.0000 -0.6682321511
O   O46       1.0  0.43640  0.44980  0.19530  1.0000 -0.6682321511
O   O47       1.0  0.60510  0.61320  0.74990  1.0000 -0.5892900459
O   O48       1.0  0.39490  0.38680  0.25010  1.0000 -0.5892900459
O   O49       1.0  0.06220  0.20860  0.20920  1.0000 -0.6214723158
O   O50       1.0  0.93780  0.79140  0.79080  1.0000 -0.6214723158
O   O51       1.0  0.18980  0.25690  0.17820  1.0000 -0.658947625
O   O52       1.0  0.81020  0.74310  0.82180  1.0000 -0.658947625
O   O53       1.0  0.26890  0.14670  0.24150  1.0000 -0.6214723158
O   O54       1.0  0.73110  0.85330  0.75850  1.0000 -0.6214723158
O   O55       1.0  0.37280  0.17090  0.18340  1.0000 -0.6091867767
O   O56       1.0  0.62720  0.82910  0.81660  1.0000 -0.6091867767
O   O57       1.0  0.10130  0.20470  0.52870  1.0000 -0.8201981641
O   O58       1.0  0.89870  0.79530  0.47130  1.0000 -0.8201981641
O   O59       1.0  0.91300  0.19860  0.54290  1.0000 -0.8420444361
O   O60       1.0  0.08700  0.80140  0.45710  1.0000 -0.8420444361
O   O61       1.0  0.86610  0.16190  0.62950  1.0000 -0.8201981641
O   O62       1.0  0.13390  0.83810  0.37050  1.0000 -0.8201981641
O   O63       1.0  0.03420  0.13490  0.68750  1.0000 -0.8420444361
O   O64       1.0  0.96580  0.86510  0.31250  1.0000 -0.8420444361
O   O65       1.0  0.21600  0.14630  0.66340  1.0000 -0.7726631842
O   O66       1.0  0.78400  0.85370  0.33660  1.0000 -0.7726631842
O   O67       1.0  0.30060  0.18130  0.57780  1.0000 -0.7286883078
O   O68       1.0  0.69940  0.81870  0.42220  1.0000 -0.7286883078
O   O69       1.0  0.19750  0.09600  0.46290  1.0000 -1.0810763917
O   O70       1.0  0.80250  0.90400  0.53710  1.0000 -1.0810763917
O   O71       1.0  0.95450  0.10450  0.43960  1.0000 -1.0022975288
O   O72       1.0  0.04550  0.89550  0.56040  1.0000 -1.0022975288
O   O73       1.0  0.77950  0.07570  0.50330  1.0000 -1.0486527763
O   O74       1.0  0.22050  0.92430  0.49670  1.0000 -1.0486527763
O   O75       1.0  0.85550  0.02920  0.61170  1.0000 -1.0609451018
O   O76       1.0  0.14450  0.97080  0.38830  1.0000 -1.0609451018
O   O77       1.0  0.09300  0.01570  0.63590  1.0000 -1.0162721358
O   O78       1.0  0.90700  0.98430  0.36410  1.0000 -1.0162721358
O   O79       1.0  0.26770  0.04360  0.56890  1.0000 -1.0486527763
O   O80       1.0  0.73230  0.95640  0.43110  1.0000 -1.0486527763
O   O81       1.0  0.13870  0.21530  0.33120  1.0000 -0.5812862597
O   O82       1.0  0.86130  0.78470  0.66880  1.0000 -0.5812862597
O   O83       1.0  0.10590  0.17700  0.40550  1.0000 -0.6910208098
O   O84       1.0  0.89410  0.82300  0.59450  1.0000 -0.6910208098
O   O85       1.0  0.76780  0.15770  0.43010  1.0000 -0.658947625
O   O86       1.0  0.23220  0.84230  0.56990  1.0000 -0.658947625
O   O87       1.0  0.63770  0.20920  0.40090  1.0000 -0.5072859547
O   O88       1.0  0.36230  0.79080  0.59910  1.0000 -0.5072859547
O   O89       1.0  0.62170  0.07860  0.56630  1.0000 -0.6910208098
O   O90       1.0  0.37830  0.92140  0.43370  1.0000 -0.6910208098
O   O91       1.0  0.45290  0.06850  0.51620  1.0000 -0.7074397288
O   O92       1.0  0.54710  0.93150  0.48380  1.0000 -0.7074397288
O   O93       1.0  0.96180  0.03120  0.72100  1.0000 -0.678057105
O   O94       1.0  0.03820  0.96880  0.27900  1.0000 -0.678057105
O   O95       1.0  0.93230  0.99850  0.79870  1.0000 -0.5601713143
O   O96       1.0  0.06770  0.00150  0.20130  1.0000 -0.5601713143
O   O97       1.0  0.29780  0.04210  0.69190  1.0000 -0.678057105
O   O98       1.0  0.70220  0.95790  0.30810  1.0000 -0.678057105
O   O99       1.0  0.43010  0.02190  0.75630  1.0000 -0.472615727
O   O100      1.0  0.56990  0.97810  0.24370  1.0000 -0.472615727
O   O101      1.0  0.45140  0.29780  0.72270  1.0000 -0.5812862597
O   O102      1.0  0.54860  0.70220  0.27730  1.0000 -0.5812862597
O   O103      1.0  0.50050  0.23590  0.77940  1.0000 -0.6299239717
O   O104      1.0  0.49950  0.76410  0.22060  1.0000 -0.6299239717
O   O105      1.0  0.39500  0.15970  0.36380  1.0000 -0.6682321511
O   O106      1.0  0.60500  0.84030  0.63620  1.0000 -0.6682321511
O   O107      1.0  0.35340  0.03750  0.38220  1.0000 -0.8305057369
O   O108      1.0  0.64660  0.96250  0.61780  1.0000 -0.8305057369
O   O109      1.0  0.18370  0.08560  0.32070  1.0000 -1.0486527763
O   O110      1.0  0.81630  0.91440  0.67930  1.0000 -1.0486527763
O   O111      1.0  0.28680  0.34170  0.12150  1.0000 -1.0371869884
O   O112      1.0  0.71320  0.65830  0.87850  1.0000 -1.0371869884
O   O113      1.0  0.12610  0.41170  0.07750  1.0000 -0.8420444361
O   O114      1.0  0.87390  0.58830  0.92250  1.0000 -0.8420444361
O   O115      1.0  0.07700  0.27710  0.05890  1.0000 -0.6910208098
O   O116      1.0  0.92300  0.72290  0.94110  1.0000 -0.6910208098
O   O117      1.0  0.67330  0.34890  0.13330  1.0000 -0.5684382401
O   O118      1.0  0.32670  0.65110  0.86670  1.0000 -0.5684382401
O   O119      1.0  0.50680  0.32780  0.14390  1.0000 -0.7457507334
O   O120      1.0  0.49320  0.67220  0.85610  1.0000 -0.7457507334
O   O121      1.0  0.95970  0.09430  0.29550  1.0000 -0.7418835245
O   O122      1.0  0.04030  0.90570  0.70450  1.0000 -0.7418835245
O   O123      1.0  0.79400  0.08120  0.31020  1.0000 -0.5812862597
O   O124      1.0  0.20600  0.91880  0.68980  1.0000 -0.5812862597
O   O125      1.0  0.28030  0.25820  0.77950  1.0000 -0.5684382401
O   O126      1.0  0.71970  0.74180  0.22050  1.0000 -0.5601713143
O   O127      1.0  0.46990  0.42580  0.92400  1.0000 -0.6910208098
O   O128      1.0  0.53010  0.57420  0.07600  1.0000 -0.6910208098
O   O129      1.0  0.89010  0.39540  0.10110  1.0000 -0.6214723158
O   O130      1.0  0.10990  0.60460  0.89890  1.0000 -0.6299239717
O   O131      1.0  0.36470  0.27920  0.28460  1.0000 -0.3095199547
O   O132      1.0  0.63530  0.72080  0.71540  1.0000 -0.3167996488
O   O133      1.0  0.09610  0.08020  0.13620  1.0000 -0.5601713143
O   O134      1.0  0.90390  0.91980  0.86380  1.0000 -0.5601713143
O   O135      1.0  0.59130  0.05990  0.36310  1.0000 -0.6299239717
O   O136      1.0  0.40870  0.94010  0.63690  1.0000 -0.6299239717
O   O137      1.0  0.03090  0.09140  0.55800  1.0000 -0.6910208098
O   O138      1.0  0.96910  0.90860  0.44200  1.0000 -0.6910208098
O   O139      1.0  0.21890  0.28110  0.65050  1.0000 -0.5185166381
O   O140      1.0  0.78110  0.71890  0.34950  1.0000 -0.5185166381
