# DDEC6 charges by PACMAN v1.1 (https://github.com/mtap-research/PACMAN-charge/)
data_2016[Cd][pcu]3[FSR]2
_chemical_formula_sum              "Cd6 H60 C100 N8 O28"
_cell_length_a       13.862
_cell_length_b       14.477
_cell_length_c       14.664
_cell_angle_alpha    95.331
_cell_angle_beta     106.021
_cell_angle_gamma    118.084

_symmetry_space_group_name_H-M    "P 1"
_symmetry_Int_Tables_number       1

loop_
  _symmetry_equiv_pos_as_xyz
  'x, y, z'

loop_
  _atom_site_type_symbol
  _atom_site_label
  _atom_site_symmetry_multiplicity
  _atom_site_fract_x
  _atom_site_fract_y
  _atom_site_fract_z
  _atom_site_occupancy
  _atom_site_charge
Cd  Cd1       1.0  0.62151  0.71356  0.41856  1.0000 0.8571642761
Cd  Cd2       1.0  0.37849  0.28644  0.58144  1.0000 0.8571642761
Cd  Cd3       1.0  0.52645  0.72488  0.16923  1.0000 0.9685850863
Cd  Cd4       1.0  0.47355  0.27512  0.83077  1.0000 0.9685850863
Cd  Cd5       1.0  0.28356  0.79385  0.13661  1.0000 0.8939865951
Cd  Cd6       1.0  0.71644  0.20615  0.86339  1.0000 0.8939865951
H   H1        1.0  0.60870  0.16590  0.24600  1.0000 0.1107712078
H   H2        1.0  0.39130  0.83410  0.75400  1.0000 0.1107712078
H   H3        1.0  0.78290  0.30890  0.35640  1.0000 0.1107712078
H   H4        1.0  0.21710  0.69110  0.64360  1.0000 0.1154677075
H   H5        1.0  0.92090  0.28060  0.45810  1.0000 0.1314558645
H   H6        1.0  0.07910  0.71940  0.54190  1.0000 0.1314558645
H   H7        1.0  0.79800  0.11890  0.57690  1.0000 0.1382282441
H   H8        1.0  0.20200  0.88110  0.42310  1.0000 0.1382282441
H   H9        1.0  0.01270  0.12390  0.82750  1.0000 0.1154677075
H   H10       1.0  0.98730  0.87610  0.17250  1.0000 0.1154677075
H   H11       1.0  0.12450  0.10480  0.74540  1.0000 0.1154677075
H   H12       1.0  0.87550  0.89520  0.25460  1.0000 0.1154677075
H   H13       1.0  0.07540  0.09540  0.57900  1.0000 0.1382282441
H   H14       1.0  0.92460  0.90460  0.42100  1.0000 0.1382282441
H   H15       1.0  0.30690  0.33800  0.25860  1.0000 0.1107712078
H   H16       1.0  0.69310  0.66200  0.74140  1.0000 0.1107712078
H   H17       1.0  0.16310  0.19840  0.12310  1.0000 0.1107712078
H   H18       1.0  0.83690  0.80160  0.87690  1.0000 0.1107712078
H   H19       1.0  0.07300  0.23260  0.98530  1.0000 0.1473052272
H   H20       1.0  0.92700  0.76740  0.01470  1.0000 0.1473052272
H   H21       1.0  0.25960  0.39240  0.91850  1.0000 0.1382282441
H   H22       1.0  0.74040  0.60760  0.08150  1.0000 0.1382282441
H   H23       1.0  0.15540  0.39640  0.63770  1.0000 0.1154677075
H   H24       1.0  0.84460  0.60360  0.36230  1.0000 0.1154677075
H   H25       1.0  0.00280  0.41480  0.65710  1.0000 0.1107712078
H   H26       1.0  0.99720  0.58520  0.34290  1.0000 0.1107712078
H   H27       1.0  0.97850  0.41810  0.80580  1.0000 0.1473052272
H   H28       1.0  0.02150  0.58190  0.19420  1.0000 0.1473052272
H   H29       1.0  0.45050  0.58360  0.52570  1.0000 0.1107712078
H   H30       1.0  0.54950  0.41640  0.47430  1.0000 0.1107712078
H   H31       1.0  0.43190  0.58880  0.67280  1.0000 0.1382282441
H   H32       1.0  0.56810  0.41120  0.32720  1.0000 0.1382282441
H   H33       1.0  0.64550  0.91180  0.74890  1.0000 0.1473052272
H   H34       1.0  0.35450  0.08820  0.25110  1.0000 0.1473052272
H   H35       1.0  0.65820  0.89580  0.59790  1.0000 0.1107712078
H   H36       1.0  0.34180  0.10420  0.40210  1.0000 0.1107712078
H   H37       1.0  0.39220  0.61350  0.79930  1.0000 0.1314558645
H   H38       1.0  0.60780  0.38650  0.20070  1.0000 0.1314558645
H   H39       1.0  0.38420  0.62720  0.95320  1.0000 0.1154677075
H   H40       1.0  0.61580  0.37280  0.04680  1.0000 0.1154677075
H   H41       1.0  0.66930  0.89060  0.05360  1.0000 0.1107712078
H   H42       1.0  0.33070  0.10940  0.94640  1.0000 0.1107712078
H   H43       1.0  0.67280  0.89760  0.90230  1.0000 0.1473052272
H   H44       1.0  0.32720  0.10240  0.09770  1.0000 0.1473052272
H   H45       1.0  0.28830  0.91430  0.96630  1.0000 0.1107712078
H   H46       1.0  0.71170  0.08570  0.03370  1.0000 0.1107712078
H   H47       1.0  0.16440  0.90770  0.82200  1.0000 0.1314558645
H   H48       1.0  0.83560  0.09230  0.17800  1.0000 0.1314558645
H   H49       1.0  0.95580  0.59220  0.79590  1.0000 0.1314558645
H   H50       1.0  0.04420  0.40780  0.20410  1.0000 0.1314558645
H   H51       1.0  0.08500  0.61200  0.94060  1.0000 0.1154677075
H   H52       1.0  0.91500  0.38800  0.05940  1.0000 0.1154677075
H   H53       1.0  0.99620  0.89570  0.73870  1.0000 0.1314558645
H   H54       1.0  0.00380  0.10430  0.26130  1.0000 0.1314558645
H   H55       1.0  0.85100  0.88170  0.60840  1.0000 0.1033273649
H   H56       1.0  0.14900  0.11830  0.39160  1.0000 0.1033273649
H   H57       1.0  0.74420  0.58020  0.50200  1.0000 0.1107712078
H   H58       1.0  0.25580  0.41980  0.49800  1.0000 0.1107712078
H   H59       1.0  0.88120  0.58490  0.63150  1.0000 0.1382282441
H   H60       1.0  0.11880  0.41510  0.36850  1.0000 0.1382282441
C   C1        1.0  0.82350  0.11730  0.41020  1.0000 0.2024714102
C   C2        1.0  0.17650  0.88270  0.58980  1.0000 0.2024714102
C   C3        1.0  0.71880  0.02990  0.34870  1.0000 -0.136445053
C   C4        1.0  0.28120  0.97010  0.65130  1.0000 -0.136445053
C   C5        1.0  0.69660  0.91770  0.35020  1.0000 0.6091016655
C   C6        1.0  0.30340  0.08230  0.64980  1.0000 0.6091016655
C   C7        1.0  0.63390  0.04470  0.28510  1.0000 -0.029132635
C   C8        1.0  0.36610  0.95530  0.71490  1.0000 -0.029132635
C   C9        1.0  0.51310  0.95390  0.22070  1.0000 0.557762218
C   C10       1.0  0.48690  0.04610  0.77930  1.0000 0.557762218
C   C11       1.0  0.66190  0.15290  0.28830  1.0000 -0.136445053
C   C12       1.0  0.33810  0.84710  0.71170  1.0000 -0.136445053
C   C13       1.0  0.76700  0.23850  0.35350  1.0000 -0.080923345
C   C14       1.0  0.23300  0.76150  0.64650  1.0000 -0.080923345
C   C15       1.0  0.84950  0.22210  0.41470  1.0000 -0.2002594496
C   C16       1.0  0.15050  0.77790  0.58530  1.0000 -0.2069096044
C   C17       1.0  0.93400  0.10780  0.56410  1.0000 0.2501303082
C   C18       1.0  0.06600  0.89220  0.43590  1.0000 0.2501303082
C   C19       1.0  0.86390  0.11700  0.61160  1.0000 -0.2389657646
C   C20       1.0  0.13610  0.88300  0.38840  1.0000 -0.2389657646
C   C21       1.0  0.89310  0.12320  0.71170  1.0000 -0.022970258
C   C22       1.0  0.10690  0.87680  0.28830  1.0000 -0.022970258
C   C23       1.0  0.82590  0.14140  0.76490  1.0000 0.5340743189
C   C24       1.0  0.17410  0.85860  0.23510  1.0000 0.5340743189
C   C25       1.0  0.99180  0.11920  0.76050  1.0000 -0.1308787738
C   C26       1.0  0.00820  0.88080  0.23950  1.0000 -0.1308787738
C   C27       1.0  0.05930  0.10830  0.71160  1.0000 -0.080923345
C   C28       1.0  0.94070  0.89170  0.28840  1.0000 -0.080923345
C   C29       1.0  0.03020  0.10260  0.61240  1.0000 -0.2002594496
C   C30       1.0  0.96980  0.89740  0.38760  1.0000 -0.2002594496
C   C31       1.0  0.15890  0.39420  0.04140  1.0000 0.2024714102
C   C32       1.0  0.84110  0.60580  0.95860  1.0000 0.2024714102
C   C33       1.0  0.24290  0.48000  0.12360  1.0000 -0.1308787738
C   C34       1.0  0.75710  0.52000  0.87640  1.0000 -0.1308787738
C   C35       1.0  0.25910  0.59000  0.12090  1.0000 0.5898157184
C   C36       1.0  0.74090  0.41000  0.87910  1.0000 0.5898157184
C   C37       1.0  0.30160  0.45750  0.20390  1.0000 -0.0442255462
C   C38       1.0  0.69840  0.54250  0.79610  1.0000 -0.0442255462
C   C39       1.0  0.40400  0.54800  0.28890  1.0000 0.5688505893
C   C40       1.0  0.59600  0.45200  0.71110  1.0000 0.5688505893
C   C41       1.0  0.27020  0.35300  0.20370  1.0000 -0.1308787738
C   C42       1.0  0.72980  0.64700  0.79630  1.0000 -0.1308787738
C   C43       1.0  0.18420  0.26940  0.12230  1.0000 -0.0850504513
C   C44       1.0  0.81580  0.73060  0.87770  1.0000 -0.0850504513
C   C45       1.0  0.12940  0.28930  0.04070  1.0000 -0.1813307785
C   C46       1.0  0.87060  0.71070  0.95930  1.0000 -0.1857346321
C   C47       1.0  0.11860  0.41000  0.87700  1.0000 0.2501303082
C   C48       1.0  0.88140  0.59000  0.12300  1.0000 0.2501303082
C   C49       1.0  0.20830  0.39720  0.86560  1.0000 -0.2275880551
C   C50       1.0  0.79170  0.60280  0.13440  1.0000 -0.2275880551
C   C51       1.0  0.22060  0.39180  0.77680  1.0000 -0.0048883853
C   C52       1.0  0.77940  0.60820  0.22320  1.0000 -0.0048883853
C   C53       1.0  0.31640  0.37370  0.76290  1.0000 0.5750137691
C   C54       1.0  0.68360  0.62630  0.23710  1.0000 0.5750137691
C   C55       1.0  0.14570  0.39890  0.69800  1.0000 -0.136445053
C   C56       1.0  0.85430  0.60110  0.30200  1.0000 -0.136445053
C   C57       1.0  0.05430  0.40990  0.70980  1.0000 -0.080923345
C   C58       1.0  0.94570  0.59010  0.29020  1.0000 -0.080923345
C   C59       1.0  0.04080  0.41340  0.79870  1.0000 -0.1813307785
C   C60       1.0  0.95920  0.58660  0.20130  1.0000 -0.1813307785
C   C61       1.0  0.49130  0.65050  0.57150  1.0000 0.0789909021
C   C62       1.0  0.50870  0.34950  0.42850  1.0000 0.0789909021
C   C63       1.0  0.47970  0.65300  0.65960  1.0000 -0.1813307785
C   C64       1.0  0.52030  0.34700  0.34040  1.0000 -0.1813307785
C   C65       1.0  0.53800  0.75000  0.73070  1.0000 0.1154677075
C   C66       1.0  0.46200  0.25000  0.26930  1.0000 0.1154677075
C   C67       1.0  0.60590  0.84380  0.70490  1.0000 -0.1813307785
C   C68       1.0  0.39410  0.15620  0.29510  1.0000 -0.1813307785
C   C69       1.0  0.61240  0.83290  0.61400  1.0000 0.0789909021
C   C70       1.0  0.38760  0.16710  0.38600  1.0000 0.0789909021
C   C71       1.0  0.53750  0.75280  0.83100  1.0000 0.1033273649
C   C72       1.0  0.46250  0.24720  0.16900  1.0000 0.1033273649
C   C73       1.0  0.45240  0.67380  0.85020  1.0000 -0.2069096044
C   C74       1.0  0.54760  0.32620  0.14980  1.0000 -0.2069096044
C   C75       1.0  0.45130  0.67930  0.94520  1.0000 0.0918309552
C   C76       1.0  0.54870  0.32070  0.05480  1.0000 0.0918309552
C   C77       1.0  0.61140  0.83030  0.00180  1.0000 0.0701854055
C   C78       1.0  0.38860  0.16970  0.99820  1.0000 0.0701854055
C   C79       1.0  0.61460  0.83490  0.90980  1.0000 -0.2002594496
C   C80       1.0  0.38540  0.16510  0.09020  1.0000 -0.2002594496
C   C81       1.0  0.21840  0.84890  0.93250  1.0000 0.0701854055
C   C82       1.0  0.78160  0.15110  0.06750  1.0000 0.0701854055
C   C83       1.0  0.14520  0.84590  0.84500  1.0000 -0.2002594496
C   C84       1.0  0.85480  0.15410  0.15500  1.0000 -0.2002594496
C   C85       1.0  0.04280  0.74850  0.79260  1.0000 0.1107712078
C   C86       1.0  0.95720  0.25150  0.20740  1.0000 0.1107712078
C   C87       1.0  0.02220  0.66000  0.83000  1.0000 -0.1813307785
C   C88       1.0  0.97780  0.34000  0.17000  1.0000 -0.1813307785
C   C89       1.0  0.10040  0.67320  0.91730  1.0000 0.0789909021
C   C90       1.0  0.89960  0.32680  0.08270  1.0000 0.0789909021
C   C91       1.0  0.95460  0.74120  0.70230  1.0000 0.1107712078
C   C92       1.0  0.04540  0.25880  0.29770  1.0000 0.1107712078
C   C93       1.0  0.94390  0.82950  0.69180  1.0000 -0.1813307785
C   C94       1.0  0.05610  0.17050  0.30820  1.0000 -0.1813307785
C   C95       1.0  0.85690  0.82080  0.61290  1.0000 0.0789909021
C   C96       1.0  0.14310  0.17920  0.38710  1.0000 0.0789909021
C   C97       1.0  0.79440  0.64450  0.55150  1.0000 0.0701854055
C   C98       1.0  0.20560  0.35550  0.44850  1.0000 0.0701854055
C   C99       1.0  0.87690  0.64680  0.62850  1.0000 -0.1813307785
C   C100      1.0  0.12310  0.35320  0.37150  1.0000 -0.1813307785
N   N1        1.0  0.55770  0.73820  0.54580  1.0000 -0.2389657646
N   N2        1.0  0.44230  0.26180  0.45420  1.0000 -0.2389657646
N   N3        1.0  0.53640  0.75130  0.02230  1.0000 -0.2002594496
N   N4        1.0  0.46360  0.24870  0.97770  1.0000 -0.2002594496
N   N5        1.0  0.19680  0.76620  0.97200  1.0000 -0.2275880551
N   N6        1.0  0.80320  0.23380  0.02800  1.0000 -0.2275880551
N   N7        1.0  0.78010  0.72880  0.54190  1.0000 -0.2389657646
N   N8        1.0  0.21990  0.27120  0.45810  1.0000 -0.2389657646
O   O1        1.0  0.44490  0.97440  0.16310  1.0000 -0.5475419859
O   O2        1.0  0.55510  0.02560  0.83690  1.0000 -0.5475419859
O   O3        1.0  0.48260  0.85890  0.22820  1.0000 -0.5421225305
O   O4        1.0  0.51740  0.14110  0.77180  1.0000 -0.5421225305
O   O5        1.0  0.68560  0.88810  0.42480  1.0000 -0.5084224219
O   O6        1.0  0.31440  0.11190  0.57520  1.0000 -0.5084224219
O   O7        1.0  0.69590  0.86350  0.27770  1.0000 -0.5703689183
O   O8        1.0  0.30410  0.13650  0.72230  1.0000 -0.5703689183
O   O9        1.0  0.91090  0.10070  0.46470  1.0000 -0.2275880551
O   O10       1.0  0.08910  0.89930  0.53530  1.0000 -0.2275880551
O   O11       1.0  0.84880  0.14170  0.85320  1.0000 -0.5475419859
O   O12       1.0  0.15120  0.85830  0.14680  1.0000 -0.5475419859
O   O13       1.0  0.74770  0.16310  0.72290  1.0000 -0.5292965497
O   O14       1.0  0.25230  0.83690  0.27710  1.0000 -0.5292965497
O   O15       1.0  0.44940  0.52930  0.36480  1.0000 -0.5292965497
O   O16       1.0  0.55060  0.47070  0.63520  1.0000 -0.5292965497
O   O17       1.0  0.44980  0.64660  0.27960  1.0000 -0.5703689183
O   O18       1.0  0.55020  0.35340  0.72040  1.0000 -0.5703689183
O   O19       1.0  0.19950  0.61690  0.15300  1.0000 -0.4979575153
O   O20       1.0  0.80050  0.38310  0.84700  1.0000 -0.4979575153
O   O21       1.0  0.32880  0.64790  0.08120  1.0000 -0.5946332688
O   O22       1.0  0.67120  0.35210  0.91880  1.0000 -0.5946332688
O   O23       1.0  0.09840  0.41730  0.96370  1.0000 -0.2002594496
O   O24       1.0  0.90160  0.58270  0.03630  1.0000 -0.2002594496
O   O25       1.0  0.32080  0.36590  0.67990  1.0000 -0.5475419859
O   O26       1.0  0.67920  0.63410  0.32010  1.0000 -0.5475419859
O   O27       1.0  0.38410  0.36770  0.83540  1.0000 -0.5475419859
O   O28       1.0  0.61590  0.63230  0.16460  1.0000 -0.5475419859
