# DDEC6 charges by PACMAN v1.1 (https://github.com/mtap-research/PACMAN-charge/)
data_2016[Ag][nan]3[FSR]3
_chemical_formula_sum              "Ag16 H64 C96 N16 O32"
_cell_length_a       19.6637
_cell_length_b       19.6637
_cell_length_c       19.6637
_cell_angle_alpha    158.798
_cell_angle_beta     105.842
_cell_angle_gamma    78.153

_symmetry_space_group_name_H-M    "P 1"
_symmetry_Int_Tables_number       1

loop_
  _symmetry_equiv_pos_as_xyz
  'x, y, z'

loop_
  _atom_site_type_symbol
  _atom_site_label
  _atom_site_symmetry_multiplicity
  _atom_site_fract_x
  _atom_site_fract_y
  _atom_site_fract_z
  _atom_site_occupancy
  _atom_site_charge
Ag  Ag1       1.0  0.06066  0.48577  0.96523  1.0000 0.350510677
Ag  Ag2       1.0  0.02054  0.09543  0.53477  1.0000 0.350510677
Ag  Ag3       1.0  0.47946  0.01423  0.07489  1.0000 0.350510677
Ag  Ag4       1.0  0.43934  0.40457  0.42511  1.0000 0.350510677
Ag  Ag5       1.0  0.93934  0.51423  0.03477  1.0000 0.350510677
Ag  Ag6       1.0  0.97946  0.90457  0.46523  1.0000 0.350510677
Ag  Ag7       1.0  0.52054  0.98577  0.92511  1.0000 0.350510677
Ag  Ag8       1.0  0.56066  0.59543  0.57489  1.0000 0.350510677
Ag  Ag9       1.0  0.92609  0.00753  0.96576  1.0000 0.3908477926
Ag  Ag10      1.0  0.54177  0.96033  0.53424  1.0000 0.3908477926
Ag  Ag11      1.0  0.95823  0.49247  0.41856  1.0000 0.3908477926
Ag  Ag12      1.0  0.57391  0.53967  0.08144  1.0000 0.3908477926
Ag  Ag13      1.0  0.07391  0.99247  0.03424  1.0000 0.3908477926
Ag  Ag14      1.0  0.45823  0.03967  0.46576  1.0000 0.3908477926
Ag  Ag15      1.0  0.04177  0.50753  0.58144  1.0000 0.3908477926
Ag  Ag16      1.0  0.42609  0.46033  0.91856  1.0000 0.3908477926
H   H1        1.0  0.19860  0.28480  0.82620  1.0000 0.125568995
H   H2        1.0  0.95860  0.37240  0.67380  1.0000 0.125568995
H   H3        1.0  0.54140  0.21520  0.41380  1.0000 0.125568995
H   H4        1.0  0.30140  0.12760  0.08620  1.0000 0.125568995
H   H5        1.0  0.80140  0.71520  0.17380  1.0000 0.125568995
H   H6        1.0  0.04140  0.62760  0.32620  1.0000 0.125568995
H   H7        1.0  0.45860  0.78480  0.58620  1.0000 0.125568995
H   H8        1.0  0.69860  0.87240  0.91380  1.0000 0.125568995
H   H9        1.0  0.30990  0.27390  0.80400  1.0000 0.1196941544
H   H10       1.0  0.96990  0.50590  0.69600  1.0000 0.1196941544
H   H11       1.0  0.53010  0.22610  0.53600  1.0000 0.1196941544
H   H12       1.0  0.19010  0.99410  0.96400  1.0000 0.1196941544
H   H13       1.0  0.69010  0.72610  0.19600  1.0000 0.1196941544
H   H14       1.0  0.03010  0.49410  0.30400  1.0000 0.1196941544
H   H15       1.0  0.46990  0.77390  0.46400  1.0000 0.1196941544
H   H16       1.0  0.80990  0.00590  0.03600  1.0000 0.1196941544
H   H17       1.0  0.27680  0.63460  0.99100  1.0000 0.1196941544
H   H18       1.0  0.14360  0.28580  0.50900  1.0000 0.1196941544
H   H19       1.0  0.35640  0.86540  0.14220  1.0000 0.1196941544
H   H20       1.0  0.22320  0.21420  0.35780  1.0000 0.1196941544
H   H21       1.0  0.72320  0.36540  0.00900  1.0000 0.1196941544
H   H22       1.0  0.85640  0.71420  0.49100  1.0000 0.1196941544
H   H23       1.0  0.64360  0.13460  0.85780  1.0000 0.1196941544
H   H24       1.0  0.77680  0.78580  0.64220  1.0000 0.1196941544
H   H25       1.0  0.16540  0.64590  0.01230  1.0000 0.125568995
H   H26       1.0  0.13360  0.15310  0.48770  1.0000 0.125568995
H   H27       1.0  0.36640  0.85410  0.01950  1.0000 0.125568995
H   H28       1.0  0.33460  0.34690  0.48050  1.0000 0.125568995
H   H29       1.0  0.83460  0.35410  0.98770  1.0000 0.125568995
H   H30       1.0  0.86640  0.84690  0.51230  1.0000 0.125568995
H   H31       1.0  0.63360  0.14590  0.98050  1.0000 0.125568995
H   H32       1.0  0.66540  0.65310  0.51950  1.0000 0.125568995
H   H33       1.0  0.84020  0.90110  0.22530  1.0000 0.1196941544
H   H34       1.0  0.17580  0.61490  0.27470  1.0000 0.1196941544
H   H35       1.0  0.32420  0.59890  0.43910  1.0000 0.1196941544
H   H36       1.0  0.65980  0.88510  0.06090  1.0000 0.1196941544
H   H37       1.0  0.15980  0.09890  0.77470  1.0000 0.1196941544
H   H38       1.0  0.82420  0.38510  0.72530  1.0000 0.1196941544
H   H39       1.0  0.67580  0.40110  0.56090  1.0000 0.1196941544
H   H40       1.0  0.34020  0.11490  0.93910  1.0000 0.1196941544
H   H41       1.0  0.80210  0.08930  0.30560  1.0000 0.1126145983
H   H42       1.0  0.28370  0.49650  0.19440  1.0000 0.1126145983
H   H43       1.0  0.21630  0.41070  0.21280  1.0000 0.1126145983
H   H44       1.0  0.69790  0.00350  0.28720  1.0000 0.1126145983
H   H45       1.0  0.19790  0.91070  0.69440  1.0000 0.1126145983
H   H46       1.0  0.71630  0.50350  0.80560  1.0000 0.1126145983
H   H47       1.0  0.78370  0.58930  0.78720  1.0000 0.1126145983
H   H48       1.0  0.30210  0.99650  0.71280  1.0000 0.1126145983
H   H49       1.0  0.86500  0.13620  0.26700  1.0000 0.1126145983
H   H50       1.0  0.36920  0.59800  0.23300  1.0000 0.1126145983
H   H51       1.0  0.13080  0.36380  0.22880  1.0000 0.1126145983
H   H52       1.0  0.63500  0.90200  0.27120  1.0000 0.1126145983
H   H53       1.0  0.13500  0.86380  0.73300  1.0000 0.1126145983
H   H54       1.0  0.63080  0.40200  0.76700  1.0000 0.1126145983
H   H55       1.0  0.86920  0.63620  0.77120  1.0000 0.1126145983
H   H56       1.0  0.36500  0.09800  0.72880  1.0000 0.1126145983
H   H57       1.0  0.00510  0.80640  0.06570  1.0000 0.1196941544
H   H58       1.0  0.24070  0.93940  0.43430  1.0000 0.1196941544
H   H59       1.0  0.25930  0.69360  0.69870  1.0000 0.1196941544
H   H60       1.0  0.49490  0.56060  0.80130  1.0000 0.1196941544
H   H61       1.0  0.99490  0.19360  0.93430  1.0000 0.1196941544
H   H62       1.0  0.75930  0.06060  0.56570  1.0000 0.1196941544
H   H63       1.0  0.74070  0.30640  0.30130  1.0000 0.1196941544
H   H64       1.0  0.50510  0.43940  0.19870  1.0000 0.1196941544
C   C1        1.0  0.21399  0.35905  0.86154  1.0000 0.0309224629
C   C2        1.0  0.99751  0.35245  0.63846  1.0000 0.0309224629
C   C3        1.0  0.50249  0.14095  0.35494  1.0000 0.0309224629
C   C4        1.0  0.28601  0.14755  0.14506  1.0000 0.0309224629
C   C5        1.0  0.78601  0.64095  0.13846  1.0000 0.0309224629
C   C6        1.0  0.00249  0.64755  0.36154  1.0000 0.0309224629
C   C7        1.0  0.49751  0.85905  0.64506  1.0000 0.0309224629
C   C8        1.0  0.71399  0.85245  0.85494  1.0000 0.0309224629
C   C9        1.0  0.28070  0.35320  0.84890  1.0000 0.0235988965
C   C10       1.0  0.00430  0.43180  0.65110  1.0000 0.0235988965
C   C11       1.0  0.49570  0.14680  0.42750  1.0000 0.0235988965
C   C12       1.0  0.21930  0.06820  0.07250  1.0000 0.0235988965
C   C13       1.0  0.71930  0.64680  0.15110  1.0000 0.0235988965
C   C14       1.0  0.99570  0.56820  0.34890  1.0000 0.0235988965
C   C15       1.0  0.50430  0.85320  0.57250  1.0000 0.0235988965
C   C16       1.0  0.78070  0.93180  0.92750  1.0000 0.0235988965
C   C17       1.0  0.26134  0.56104  0.95650  1.0000 -0.0101163044
C   C18       1.0  0.10454  0.30484  0.54350  1.0000 -0.0101163044
C   C19       1.0  0.39546  0.93896  0.20030  1.0000 -0.0101163044
C   C20       1.0  0.23866  0.19516  0.29970  1.0000 -0.0101163044
C   C21       1.0  0.73866  0.43896  0.04350  1.0000 -0.0101163044
C   C22       1.0  0.89546  0.69516  0.45650  1.0000 -0.0101163044
C   C23       1.0  0.60454  0.06104  0.79970  1.0000 -0.0101163044
C   C24       1.0  0.76134  0.80484  0.70030  1.0000 -0.0101163044
C   C25       1.0  0.19486  0.56816  0.96950  1.0000 0.0235988965
C   C26       1.0  0.09866  0.22536  0.53050  1.0000 0.0235988965
C   C27       1.0  0.40134  0.93184  0.12670  1.0000 0.0235988965
C   C28       1.0  0.30514  0.27464  0.37330  1.0000 0.0235988965
C   C29       1.0  0.80514  0.43184  0.03050  1.0000 0.0235988965
C   C30       1.0  0.90134  0.77464  0.46950  1.0000 0.0235988965
C   C31       1.0  0.59866  0.06816  0.87330  1.0000 0.0235988965
C   C32       1.0  0.69486  0.72536  0.62670  1.0000 0.0235988965
C   C33       1.0  0.95405  0.72155  0.09490  1.0000 0.5306892187
C   C34       1.0  0.12665  0.85915  0.40510  1.0000 0.5306892187
C   C35       1.0  0.37335  0.77845  0.73250  1.0000 0.5306892187
C   C36       1.0  0.54595  0.64085  0.76750  1.0000 0.5306892187
C   C37       1.0  0.04595  0.27845  0.90510  1.0000 0.5306892187
C   C38       1.0  0.87335  0.14085  0.59490  1.0000 0.5306892187
C   C39       1.0  0.62665  0.22155  0.26750  1.0000 0.5306892187
C   C40       1.0  0.45405  0.35915  0.23250  1.0000 0.5306892187
C   C41       1.0  0.92680  0.83657  0.13923  1.0000 -0.0288985333
C   C42       1.0  0.19734  0.78757  0.36077  1.0000 -0.0288985333
C   C43       1.0  0.30266  0.66343  0.59023  1.0000 -0.0288985333
C   C44       1.0  0.57320  0.71243  0.90977  1.0000 -0.0288985333
C   C45       1.0  0.07320  0.16343  0.86077  1.0000 -0.0288985333
C   C46       1.0  0.80266  0.21243  0.63923  1.0000 -0.0288985333
C   C47       1.0  0.69734  0.33657  0.40977  1.0000 -0.0288985333
C   C48       1.0  0.42680  0.28757  0.09023  1.0000 -0.0288985333
C   C49       1.0  0.86625  0.92015  0.20950  1.0000 -0.1101971755
C   C50       1.0  0.21065  0.65675  0.29050  1.0000 -0.1101971755
C   C51       1.0  0.28935  0.57985  0.44610  1.0000 -0.1101971755
C   C52       1.0  0.63375  0.84325  0.05390  1.0000 -0.1101971755
C   C53       1.0  0.13375  0.07985  0.79050  1.0000 -0.1101971755
C   C54       1.0  0.78935  0.34325  0.70950  1.0000 -0.1101971755
C   C55       1.0  0.71065  0.42015  0.55390  1.0000 -0.1101971755
C   C56       1.0  0.36625  0.15675  0.94610  1.0000 -0.1101971755
C   C57       1.0  0.84337  0.03187  0.25690  1.0000 -0.1039678289
C   C58       1.0  0.27497  0.58647  0.24310  1.0000 -0.1039678289
C   C59       1.0  0.22503  0.46813  0.31150  1.0000 -0.1039678289
C   C60       1.0  0.65663  0.91353  0.18850  1.0000 -0.1039678289
C   C61       1.0  0.15663  0.96813  0.74310  1.0000 -0.1039678289
C   C62       1.0  0.72503  0.41353  0.75690  1.0000 -0.1039678289
C   C63       1.0  0.77497  0.53187  0.68850  1.0000 -0.1039678289
C   C64       1.0  0.34337  0.08647  0.81150  1.0000 -0.1039678289
C   C65       1.0  0.88062  0.05882  0.23320  1.0000 -0.1101971755
C   C66       1.0  0.32562  0.64742  0.26680  1.0000 -0.1101971755
C   C67       1.0  0.17438  0.44118  0.32180  1.0000 -0.1101971755
C   C68       1.0  0.61938  0.85258  0.17820  1.0000 -0.1101971755
C   C69       1.0  0.11938  0.94118  0.76680  1.0000 -0.1101971755
C   C70       1.0  0.67438  0.35258  0.73320  1.0000 -0.1101971755
C   C71       1.0  0.82562  0.55882  0.67820  1.0000 -0.1101971755
C   C72       1.0  0.38062  0.14742  0.82180  1.0000 -0.1101971755
C   C73       1.0  0.94095  0.97434  0.16001  1.0000 -0.0288985333
C   C74       1.0  0.31433  0.78094  0.33999  1.0000 -0.0288985333
C   C75       1.0  0.18567  0.52566  0.46661  1.0000 -0.0288985333
C   C76       1.0  0.55905  0.71906  0.03339  1.0000 -0.0288985333
C   C77       1.0  0.05905  0.02566  0.83999  1.0000 -0.0288985333
C   C78       1.0  0.68567  0.21906  0.66001  1.0000 -0.0288985333
C   C79       1.0  0.81433  0.47434  0.53339  1.0000 -0.0288985333
C   C80       1.0  0.44095  0.28094  0.96661  1.0000 -0.0288985333
C   C81       1.0  0.96378  0.86369  0.11429  1.0000 -0.1360748646
C   C82       1.0  0.24940  0.84949  0.38571  1.0000 -0.1360748646
C   C83       1.0  0.25060  0.63631  0.60009  1.0000 -0.1360748646
C   C84       1.0  0.53622  0.65051  0.89991  1.0000 -0.1360748646
C   C85       1.0  0.03622  0.13631  0.88571  1.0000 -0.1360748646
C   C86       1.0  0.75060  0.15051  0.61429  1.0000 -0.1360748646
C   C87       1.0  0.74940  0.36369  0.39991  1.0000 -0.1360748646
C   C88       1.0  0.46378  0.34949  0.10009  1.0000 -0.1360748646
C   C89       1.0  0.97950  0.99840  0.12690  1.0000 0.5388526709
C   C90       1.0  0.37150  0.85260  0.37310  1.0000 0.5388526709
C   C91       1.0  0.12850  0.50160  0.48110  1.0000 0.5388526709
C   C92       1.0  0.52050  0.64740  0.01890  1.0000 0.5388526709
C   C93       1.0  0.02050  0.00160  0.87310  1.0000 0.5388526709
C   C94       1.0  0.62850  0.14740  0.62690  1.0000 0.5388526709
C   C95       1.0  0.87150  0.49840  0.51890  1.0000 0.5388526709
C   C96       1.0  0.47950  0.35260  0.98110  1.0000 0.5388526709
N   N1        1.0  0.17046  0.46761  0.92285  1.0000 -0.1591900497
N   N2        1.0  0.04476  0.24761  0.57715  1.0000 -0.1591900497
N   N3        1.0  0.45524  0.03239  0.20285  1.0000 -0.1591900497
N   N4        1.0  0.32954  0.25239  0.29715  1.0000 -0.1591900497
N   N5        1.0  0.82954  0.53239  0.07715  1.0000 -0.1591900497
N   N6        1.0  0.95524  0.75239  0.42285  1.0000 -0.1591900497
N   N7        1.0  0.54476  0.96761  0.79715  1.0000 -0.1591900497
N   N8        1.0  0.67046  0.74761  0.70285  1.0000 -0.1591900497
N   N9        1.0  0.30540  0.45400  0.89680  1.0000 -0.1360748646
N   N10       1.0  0.05720  0.40860  0.60320  1.0000 -0.1360748646
N   N11       1.0  0.44280  0.04600  0.35140  1.0000 -0.1360748646
N   N12       1.0  0.19460  0.09140  0.14860  1.0000 -0.1360748646
N   N13       1.0  0.69460  0.54600  0.10320  1.0000 -0.1360748646
N   N14       1.0  0.94280  0.59140  0.39680  1.0000 -0.1360748646
N   N15       1.0  0.55720  0.95400  0.64860  1.0000 -0.1360748646
N   N16       1.0  0.80540  0.90860  0.85140  1.0000 -0.1360748646
O   O1        1.0  0.00974  0.65483  0.03671  1.0000 -0.4834303542
O   O2        1.0  0.11812  0.97303  0.46329  1.0000 -0.4834303542
O   O3        1.0  0.38188  0.84517  0.85491  1.0000 -0.4834303542
O   O4        1.0  0.49026  0.52697  0.64509  1.0000 -0.4834303542
O   O5        1.0  0.99026  0.34517  0.96329  1.0000 -0.4834303542
O   O6        1.0  0.88188  0.02697  0.53671  1.0000 -0.4834303542
O   O7        1.0  0.61812  0.15483  0.14509  1.0000 -0.4834303542
O   O8        1.0  0.50974  0.47303  0.35491  1.0000 -0.4834303542
O   O9        1.0  0.91780  0.70069  0.11871  1.0000 -0.5054340421
O   O10       1.0  0.08198  0.79909  0.38129  1.0000 -0.5054340421
O   O11       1.0  0.41802  0.79931  0.71711  1.0000 -0.5054340421
O   O12       1.0  0.58220  0.70091  0.78289  1.0000 -0.5054340421
O   O13       1.0  0.08220  0.29931  0.88129  1.0000 -0.5054340421
O   O14       1.0  0.91802  0.20091  0.61871  1.0000 -0.5054340421
O   O15       1.0  0.58198  0.20069  0.28289  1.0000 -0.5054340421
O   O16       1.0  0.41780  0.29909  0.21711  1.0000 -0.5054340421
O   O17       1.0  0.03409  0.92091  0.06238  1.0000 -0.5054340421
O   O18       1.0  0.35853  0.97171  0.43762  1.0000 -0.5054340421
O   O19       1.0  0.14147  0.57909  0.61318  1.0000 -0.5054340421
O   O20       1.0  0.46591  0.52829  0.88682  1.0000 -0.5054340421
O   O21       1.0  0.96591  0.07909  0.93762  1.0000 -0.5054340421
O   O22       1.0  0.64147  0.02829  0.56238  1.0000 -0.5054340421
O   O23       1.0  0.85853  0.42091  0.38682  1.0000 -0.5054340421
O   O24       1.0  0.53409  0.47171  0.11318  1.0000 -0.5054340421
O   O25       1.0  0.95424  0.09363  0.16401  1.0000 -0.5262506514
O   O26       1.0  0.42962  0.79023  0.33599  1.0000 -0.5262506514
O   O27       1.0  0.07038  0.40637  0.36061  1.0000 -0.5262506514
O   O28       1.0  0.54576  0.70977  0.13939  1.0000 -0.5262506514
O   O29       1.0  0.04576  0.90637  0.83599  1.0000 -0.5262506514
O   O30       1.0  0.57038  0.20977  0.66401  1.0000 -0.5262506514
O   O31       1.0  0.92962  0.59363  0.63939  1.0000 -0.5262506514
O   O32       1.0  0.45424  0.29023  0.86061  1.0000 -0.5262506514
