# DDEC6 charges by PACMAN v1.1 (https://github.com/mtap-research/PACMAN-charge/)
data_2016[Dy][dia]3[FSR]1
_chemical_formula_sum              "Dy4 P4 H36 C32 N4 O36"
_cell_length_a       9.7192
_cell_length_b       10.4517
_cell_length_c       16.4217
_cell_angle_alpha    90
_cell_angle_beta     112.58
_cell_angle_gamma    90

_symmetry_space_group_name_H-M    "P 1"
_symmetry_Int_Tables_number       1

loop_
  _symmetry_equiv_pos_as_xyz
  'x, y, z'

loop_
  _atom_site_type_symbol
  _atom_site_label
  _atom_site_symmetry_multiplicity
  _atom_site_fract_x
  _atom_site_fract_y
  _atom_site_fract_z
  _atom_site_occupancy
  _atom_site_charge
Dy  Dy1       1.0  0.82158  0.10571  0.60698  1.0000 2.0661337704
Dy  Dy2       1.0  0.17842  0.60571  0.89302  1.0000 2.0648465484
Dy  Dy3       1.0  0.17842  0.89429  0.39302  1.0000 2.0648465484
Dy  Dy4       1.0  0.82158  0.39429  0.10698  1.0000 2.0648465484
P   P1        1.0  0.92520  0.85017  0.76869  1.0000 1.3784020275
P   P2        1.0  0.07480  0.35017  0.73131  1.0000 1.3784020275
P   P3        1.0  0.07480  0.14983  0.23131  1.0000 1.3784020275
P   P4        1.0  0.92520  0.64983  0.26869  1.0000 1.3784020275
H   H1        1.0  0.39040  0.88310  0.06840  1.0000 0.1423061911
H   H2        1.0  0.60960  0.38310  0.43160  1.0000 0.1423061911
H   H3        1.0  0.60960  0.11690  0.93160  1.0000 0.1423061911
H   H4        1.0  0.39040  0.61690  0.56840  1.0000 0.1423061911
H   H5        1.0  0.45170  0.09670  0.06810  1.0000 0.1340448439
H   H6        1.0  0.54830  0.59670  0.43190  1.0000 0.1340448439
H   H7        1.0  0.54830  0.90330  0.93190  1.0000 0.1340448439
H   H8        1.0  0.45170  0.40330  0.56810  1.0000 0.1340448439
H   H9        1.0  0.27620  0.23610  0.97570  1.0000 0.1423061911
H   H10       1.0  0.72380  0.73610  0.52430  1.0000 0.1423061911
H   H11       1.0  0.72380  0.76390  0.02430  1.0000 0.1423061911
H   H12       1.0  0.27620  0.26390  0.47570  1.0000 0.1423061911
H   H13       1.0  0.04690  0.16160  0.88610  1.0000 0.159464135
H   H14       1.0  0.95310  0.66160  0.61390  1.0000 0.159464135
H   H15       1.0  0.95310  0.83840  0.11390  1.0000 0.159464135
H   H16       1.0  0.04690  0.33840  0.38610  1.0000 0.159464135
H   H17       1.0  0.90640  0.85960  0.90490  1.0000 0.1783728369
H   H18       1.0  0.09360  0.35960  0.59510  1.0000 0.1783728369
H   H19       1.0  0.09360  0.14040  0.09510  1.0000 0.1783728369
H   H20       1.0  0.90640  0.64040  0.40490  1.0000 0.1783728369
H   H21       1.0  0.85820  0.99090  0.85610  1.0000 0.159464135
H   H22       1.0  0.14180  0.49090  0.64390  1.0000 0.159464135
H   H23       1.0  0.14180  0.00910  0.14390  1.0000 0.159464135
H   H24       1.0  0.85820  0.50910  0.35610  1.0000 0.159464135
H   H25       1.0  0.71280  0.82930  0.68530  1.0000 0.3777951479
H   H26       1.0  0.28720  0.32930  0.81470  1.0000 0.3777951479
H   H27       1.0  0.28720  0.17070  0.31470  1.0000 0.3777951479
H   H28       1.0  0.71280  0.67070  0.18530  1.0000 0.3777951479
H   H29       1.0  0.72130  0.22300  0.72320  1.0000 0.3964239627
H   H30       1.0  0.27870  0.72300  0.77680  1.0000 0.3964239627
H   H31       1.0  0.27870  0.77700  0.27680  1.0000 0.3964239627
H   H32       1.0  0.72130  0.27700  0.22320  1.0000 0.3964239627
H   H33       1.0  0.60660  0.12740  0.68960  1.0000 0.3939735025
H   H34       1.0  0.39340  0.62740  0.81040  1.0000 0.3939735025
H   H35       1.0  0.39340  0.87260  0.31040  1.0000 0.3964239627
H   H36       1.0  0.60660  0.37260  0.18960  1.0000 0.3939735025
C   C1        1.0  0.32100  0.94020  0.03150  1.0000 -0.0468069737
C   C2        1.0  0.67900  0.44020  0.46850  1.0000 -0.0468069737
C   C3        1.0  0.67900  0.05980  0.96850  1.0000 -0.0468069737
C   C4        1.0  0.32100  0.55980  0.53150  1.0000 -0.0468069737
C   C5        1.0  0.35800  0.06730  0.03150  1.0000 -0.1453242421
C   C6        1.0  0.64200  0.56730  0.46850  1.0000 -0.1453242421
C   C7        1.0  0.64200  0.93270  0.96850  1.0000 -0.1453242421
C   C8        1.0  0.35800  0.43270  0.53150  1.0000 -0.1453242421
C   C9        1.0  0.25360  0.14980  0.97660  1.0000 -0.0468069737
C   C10       1.0  0.74640  0.64980  0.52340  1.0000 -0.0468069737
C   C11       1.0  0.74640  0.85020  0.02340  1.0000 -0.0468069737
C   C12       1.0  0.25360  0.35020  0.47660  1.0000 -0.0468069737
C   C13       1.0  0.11680  0.10510  0.92340  1.0000 -0.1669475406
C   C14       1.0  0.88320  0.60510  0.57660  1.0000 -0.1669475406
C   C15       1.0  0.88320  0.89490  0.07660  1.0000 -0.1669475406
C   C16       1.0  0.11680  0.39490  0.42340  1.0000 -0.1669475406
C   C17       1.0  0.07990  0.97760  0.92390  1.0000 0.2012935124
C   C18       1.0  0.92010  0.47760  0.57610  1.0000 0.2012935124
C   C19       1.0  0.92010  0.02240  0.07610  1.0000 0.2012935124
C   C20       1.0  0.07990  0.52240  0.42390  1.0000 0.2012935124
C   C21       1.0  0.93220  0.92330  0.87020  1.0000 -0.5891907483
C   C22       1.0  0.06780  0.42330  0.62980  1.0000 -0.6009298474
C   C23       1.0  0.06780  0.07670  0.12980  1.0000 -0.6009298474
C   C24       1.0  0.93220  0.57670  0.37020  1.0000 -0.5891907483
C   C25       1.0  0.07220  0.03130  0.53290  1.0000 0.5088338733
C   C26       1.0  0.92780  0.53130  0.96710  1.0000 0.5088338733
C   C27       1.0  0.92780  0.96870  0.46710  1.0000 0.5088338733
C   C28       1.0  0.07220  0.46870  0.03290  1.0000 0.5088338733
C   C29       1.0  0.48280  0.06180  0.47270  1.0000 0.5088338733
C   C30       1.0  0.51720  0.56180  0.02730  1.0000 0.5088338733
C   C31       1.0  0.51720  0.93820  0.52730  1.0000 0.5088338733
C   C32       1.0  0.48280  0.43820  0.97270  1.0000 0.5088338733
N   N1        1.0  0.18570  0.89800  0.97860  1.0000 0.2717891216
N   N2        1.0  0.81430  0.39800  0.52140  1.0000 0.2717891216
N   N3        1.0  0.81430  0.10200  0.02140  1.0000 0.2717891216
N   N4        1.0  0.18570  0.60200  0.47860  1.0000 0.2717891216
O   O1        1.0  0.93970  0.95240  0.70810  1.0000 -0.86795291
O   O2        1.0  0.06030  0.45240  0.79190  1.0000 -0.86795291
O   O3        1.0  0.06030  0.04760  0.29190  1.0000 -0.86795291
O   O4        1.0  0.93970  0.54760  0.20810  1.0000 -0.86795291
O   O5        1.0  0.76500  0.78890  0.72910  1.0000 -0.6009298474
O   O6        1.0  0.23500  0.28890  0.77090  1.0000 -0.6009298474
O   O7        1.0  0.23500  0.21110  0.27090  1.0000 -0.6009298474
O   O8        1.0  0.76500  0.71110  0.22910  1.0000 -0.6084781822
O   O9        1.0  0.04050  0.74810  0.79000  1.0000 -0.8762195527
O   O10       1.0  0.95950  0.24810  0.71000  1.0000 -0.8762195527
O   O11       1.0  0.95950  0.25190  0.21000  1.0000 -0.8762195527
O   O12       1.0  0.04050  0.75190  0.29000  1.0000 -0.8762195527
O   O13       1.0  0.15360  0.77510  0.98230  1.0000 -0.5891907483
O   O14       1.0  0.84640  0.27510  0.51770  1.0000 -0.5891907483
O   O15       1.0  0.84640  0.22490  0.01770  1.0000 -0.5891907483
O   O16       1.0  0.15360  0.72490  0.48230  1.0000 -0.5891907483
O   O17       1.0  0.18600  0.02060  0.51530  1.0000 -0.6084781822
O   O18       1.0  0.81400  0.52060  0.98470  1.0000 -0.6084781822
O   O19       1.0  0.81400  0.97940  0.48470  1.0000 -0.6084781822
O   O20       1.0  0.18600  0.47940  0.01530  1.0000 -0.6084781822
O   O21       1.0  0.06330  0.08640  0.59760  1.0000 -0.5494686037
O   O22       1.0  0.93670  0.58640  0.90240  1.0000 -0.5494686037
O   O23       1.0  0.93670  0.91360  0.40240  1.0000 -0.5494686037
O   O24       1.0  0.06330  0.41360  0.09760  1.0000 -0.5494686037
O   O25       1.0  0.57740  0.14880  0.49560  1.0000 -0.5891907483
O   O26       1.0  0.42260  0.64880  0.00440  1.0000 -0.5891907483
O   O27       1.0  0.42260  0.85120  0.50440  1.0000 -0.5891907483
O   O28       1.0  0.57740  0.35120  0.99560  1.0000 -0.5891907483
O   O29       1.0  0.35890  0.06480  0.40890  1.0000 -0.6084781822
O   O30       1.0  0.64110  0.56480  0.09110  1.0000 -0.6084781822
O   O31       1.0  0.64110  0.93520  0.59110  1.0000 -0.6084781822
O   O32       1.0  0.35890  0.43520  0.90890  1.0000 -0.6084781822
O   O33       1.0  0.68450  0.16840  0.69210  1.0000 -0.7263424367
O   O34       1.0  0.31550  0.66840  0.80790  1.0000 -0.7263424367
O   O35       1.0  0.31550  0.83160  0.30790  1.0000 -0.7263424367
O   O36       1.0  0.68450  0.33160  0.19210  1.0000 -0.7263424367
