# DDEC6 charges by PACMAN v1.1 (https://github.com/mtap-research/PACMAN-charge/)
data_2016[Dy][pcu]3[FSR]1
_chemical_formula_sum              "Dy4 H32 C48 N12 O36"
_cell_length_a       10.1353
_cell_length_b       17.3501
_cell_length_c       11.3594
_cell_angle_alpha    90
_cell_angle_beta     109.798
_cell_angle_gamma    90

_symmetry_space_group_name_H-M    "P 1"
_symmetry_Int_Tables_number       1

loop_
  _symmetry_equiv_pos_as_xyz
  'x, y, z'

loop_
  _atom_site_type_symbol
  _atom_site_label
  _atom_site_symmetry_multiplicity
  _atom_site_fract_x
  _atom_site_fract_y
  _atom_site_fract_z
  _atom_site_occupancy
  _atom_site_charge
Dy  Dy1       1.0  0.99199  0.50688  0.31982  1.0000 2.0215847296
Dy  Dy2       1.0  0.00801  0.00688  0.18018  1.0000 2.0215847296
Dy  Dy3       1.0  0.00801  0.49312  0.68018  1.0000 2.0215847296
Dy  Dy4       1.0  0.99199  0.99312  0.81982  1.0000 2.0215847296
H   H1        1.0  0.32520  0.37340  0.47610  1.0000 0.1406773691
H   H2        1.0  0.67480  0.87340  0.02390  1.0000 0.1406773691
H   H3        1.0  0.67480  0.62660  0.52390  1.0000 0.1406773691
H   H4        1.0  0.32520  0.12660  0.97610  1.0000 0.1406773691
H   H5        1.0  0.51990  0.49030  0.20960  1.0000 0.1577232767
H   H6        1.0  0.48010  0.99030  0.29040  1.0000 0.1577232767
H   H7        1.0  0.48010  0.50970  0.79040  1.0000 0.1577232767
H   H8        1.0  0.51990  0.00970  0.70960  1.0000 0.1577232767
H   H9        1.0  0.56360  0.39210  0.54010  1.0000 0.1406773691
H   H10       1.0  0.43640  0.89210  0.95990  1.0000 0.1406773691
H   H11       1.0  0.43640  0.60790  0.45990  1.0000 0.1406773691
H   H12       1.0  0.56360  0.10790  0.04010  1.0000 0.1406773691
H   H13       1.0  0.09020  0.81580  0.19640  1.0000 0.1577232767
H   H14       1.0  0.90980  0.31580  0.30360  1.0000 0.1577232767
H   H15       1.0  0.90980  0.18420  0.80360  1.0000 0.1577232767
H   H16       1.0  0.09020  0.68420  0.69640  1.0000 0.1577232767
H   H17       1.0  0.28130  0.47470  0.15270  1.0000 0.1336489607
H   H18       1.0  0.71870  0.97470  0.34730  1.0000 0.1336489607
H   H19       1.0  0.71870  0.52530  0.84730  1.0000 0.1336489607
H   H20       1.0  0.28130  0.02530  0.65270  1.0000 0.1336489607
H   H21       1.0  0.95120  0.59640  0.96090  1.0000 0.1406773691
H   H22       1.0  0.04880  0.09640  0.53910  1.0000 0.1406773691
H   H23       1.0  0.04880  0.40360  0.03910  1.0000 0.1406773691
H   H24       1.0  0.95120  0.90360  0.46090  1.0000 0.1406773691
H   H25       1.0  0.90090  0.71480  0.86390  1.0000 0.1505362195
H   H26       1.0  0.09910  0.21480  0.63610  1.0000 0.1505362195
H   H27       1.0  0.09910  0.28520  0.13610  1.0000 0.1505362195
H   H28       1.0  0.90090  0.78520  0.36390  1.0000 0.1505362195
H   H29       1.0  0.14720  0.69660  0.28500  1.0000 0.1406773691
H   H30       1.0  0.85280  0.19660  0.21500  1.0000 0.1406773691
H   H31       1.0  0.85280  0.30340  0.71500  1.0000 0.1406773691
H   H32       1.0  0.14720  0.80340  0.78500  1.0000 0.1406773691
C   C1        1.0  0.36510  0.39840  0.42400  1.0000 -0.0466809228
C   C2        1.0  0.63490  0.89840  0.07600  1.0000 -0.0466809228
C   C3        1.0  0.63490  0.60160  0.57600  1.0000 -0.0466809228
C   C4        1.0  0.36510  0.10160  0.92400  1.0000 -0.0466809228
C   C5        1.0  0.96260  0.85650  0.95760  1.0000 0.6159196299
C   C6        1.0  0.03740  0.35650  0.54240  1.0000 0.6159196299
C   C7        1.0  0.03740  0.14350  0.04240  1.0000 0.6159196299
C   C8        1.0  0.96260  0.64350  0.45760  1.0000 0.6159196299
C   C9        1.0  0.48170  0.46810  0.26530  1.0000 -0.1205496165
C   C10       1.0  0.51830  0.96810  0.23470  1.0000 -0.1205496165
C   C11       1.0  0.51830  0.53190  0.73470  1.0000 -0.1205496165
C   C12       1.0  0.48170  0.03190  0.76530  1.0000 -0.1205496165
C   C13       1.0  0.50750  0.40910  0.46140  1.0000 -0.1286502969
C   C14       1.0  0.49250  0.90910  0.03860  1.0000 -0.1286502969
C   C15       1.0  0.49250  0.59090  0.53860  1.0000 -0.1286502969
C   C16       1.0  0.50750  0.09090  0.96140  1.0000 -0.1286502969
C   C17       1.0  0.06320  0.77180  0.14720  1.0000 -0.1286502969
C   C18       1.0  0.93680  0.27180  0.35280  1.0000 -0.1286502969
C   C19       1.0  0.93680  0.22820  0.85280  1.0000 -0.1286502969
C   C20       1.0  0.06320  0.72820  0.64720  1.0000 -0.1286502969
C   C21       1.0  0.56970  0.44490  0.38360  1.0000 -0.0107058005
C   C22       1.0  0.43030  0.94490  0.11640  1.0000 -0.0107058005
C   C23       1.0  0.43030  0.55510  0.61640  1.0000 -0.0107058005
C   C24       1.0  0.56970  0.05510  0.88360  1.0000 -0.0107058005
C   C25       1.0  0.72360  0.46210  0.42590  1.0000 0.6280642551
C   C26       1.0  0.27640  0.96210  0.07410  1.0000 0.6280642551
C   C27       1.0  0.27640  0.53790  0.57410  1.0000 0.6280642551
C   C28       1.0  0.72360  0.03790  0.92590  1.0000 0.6280642551
C   C29       1.0  0.33930  0.45820  0.23100  1.0000 -0.0227087614
C   C30       1.0  0.66070  0.95820  0.26900  1.0000 -0.0227087614
C   C31       1.0  0.66070  0.54180  0.76900  1.0000 -0.0227087614
C   C32       1.0  0.33930  0.04180  0.73100  1.0000 -0.0227087614
C   C33       1.0  0.98980  0.77880  0.01990  1.0000 0.0070903458
C   C34       1.0  0.01020  0.27880  0.48010  1.0000 0.0070903458
C   C35       1.0  0.01020  0.22120  0.98010  1.0000 0.0070903458
C   C36       1.0  0.98980  0.72120  0.51990  1.0000 0.0070903458
C   C37       1.0  0.98070  0.64120  0.00720  1.0000 -0.0107058005
C   C38       1.0  0.01930  0.14120  0.49280  1.0000 -0.0107058005
C   C39       1.0  0.01930  0.35880  0.99280  1.0000 -0.0107058005
C   C40       1.0  0.98070  0.85880  0.50720  1.0000 -0.0107058005
C   C41       1.0  0.94910  0.71180  0.94950  1.0000 -0.1286502969
C   C42       1.0  0.05090  0.21180  0.55050  1.0000 -0.1286502969
C   C43       1.0  0.05090  0.28820  0.05050  1.0000 -0.1286502969
C   C44       1.0  0.94910  0.78820  0.44950  1.0000 -0.1286502969
C   C45       1.0  0.09580  0.70090  0.20020  1.0000 -0.0227087614
C   C46       1.0  0.90420  0.20090  0.29980  1.0000 -0.0227087614
C   C47       1.0  0.90420  0.29910  0.79980  1.0000 -0.0227087614
C   C48       1.0  0.09580  0.79910  0.70020  1.0000 -0.0227087614
N   N1        1.0  0.76920  0.46960  0.09170  1.0000 0.7067308527
N   N2        1.0  0.23080  0.96960  0.40830  1.0000 0.7067308527
N   N3        1.0  0.23080  0.53040  0.90830  1.0000 0.7067308527
N   N4        1.0  0.76920  0.03040  0.59170  1.0000 0.7067308527
N   N5        1.0  0.28300  0.42486  0.31000  1.0000 0.339847653
N   N6        1.0  0.71700  0.92486  0.19000  1.0000 0.339847653
N   N7        1.0  0.71700  0.57514  0.69000  1.0000 0.339847653
N   N8        1.0  0.28300  0.07514  0.81000  1.0000 0.339847653
N   N9        1.0  0.05410  0.63660  0.13060  1.0000 0.339847653
N   N10       1.0  0.94590  0.13660  0.36940  1.0000 0.339847653
N   N11       1.0  0.94590  0.36340  0.86940  1.0000 0.339847653
N   N12       1.0  0.05410  0.86340  0.63060  1.0000 0.339847653
O   O1        1.0  0.77240  0.48501  0.34480  1.0000 -0.6295370656
O   O2        1.0  0.22760  0.98501  0.15520  1.0000 -0.6295370656
O   O3        1.0  0.22760  0.51499  0.65520  1.0000 -0.6295370656
O   O4        1.0  0.77240  0.01499  0.84480  1.0000 -0.6295370656
O   O5        1.0  0.14410  0.41693  0.27540  1.0000 -0.6009228129
O   O6        1.0  0.85590  0.91693  0.22460  1.0000 -0.6009228129
O   O7        1.0  0.85590  0.58307  0.72460  1.0000 -0.6009228129
O   O8        1.0  0.14410  0.08307  0.77540  1.0000 -0.6009228129
O   O9        1.0  0.79080  0.45263  0.54150  1.0000 -0.6685014415
O   O10       1.0  0.20920  0.95263  0.95850  1.0000 -0.6685014415
O   O11       1.0  0.20920  0.54737  0.45850  1.0000 -0.6685014415
O   O12       1.0  0.79080  0.04737  0.04150  1.0000 -0.6685014415
O   O13       1.0  0.08900  0.56757  0.18320  1.0000 -0.6087293747
O   O14       1.0  0.91100  0.06757  0.31680  1.0000 -0.6087293747
O   O15       1.0  0.91100  0.43243  0.81680  1.0000 -0.6087293747
O   O16       1.0  0.08900  0.93243  0.68320  1.0000 -0.6087293747
O   O17       1.0  0.94010  0.86053  0.84170  1.0000 -0.6087293747
O   O18       1.0  0.05990  0.36053  0.65830  1.0000 -0.6087293747
O   O19       1.0  0.05990  0.13947  0.15830  1.0000 -0.6087293747
O   O20       1.0  0.94010  0.63947  0.34170  1.0000 -0.6087293747
O   O21       1.0  0.85500  0.41858  0.15650  1.0000 -0.527424981
O   O22       1.0  0.14500  0.91858  0.34350  1.0000 -0.527424981
O   O23       1.0  0.14500  0.58142  0.84350  1.0000 -0.527424981
O   O24       1.0  0.85500  0.08142  0.65650  1.0000 -0.527424981
O   O25       1.0  0.97300  0.91599  0.02370  1.0000 -0.7106763172
O   O26       1.0  0.02700  0.41599  0.47630  1.0000 -0.7106763172
O   O27       1.0  0.02700  0.08401  0.97630  1.0000 -0.7106763172
O   O28       1.0  0.97300  0.58401  0.52370  1.0000 -0.7106763172
O   O29       1.0  0.66540  0.45217  0.00450  1.0000 -0.3558496359
O   O30       1.0  0.33460  0.95217  0.49550  1.0000 -0.3558496359
O   O31       1.0  0.33460  0.54783  0.99550  1.0000 -0.3558496359
O   O32       1.0  0.66540  0.04783  0.50450  1.0000 -0.3558496359
O   O33       1.0  0.79890  0.53921  0.12310  1.0000 -0.491044772
O   O34       1.0  0.20110  0.03921  0.37690  1.0000 -0.491044772
O   O35       1.0  0.20110  0.46079  0.87690  1.0000 -0.491044772
O   O36       1.0  0.79890  0.96079  0.62310  1.0000 -0.491044772
