# DDEC6 charges by PACMAN v1.1 (https://github.com/mtap-research/PACMAN-charge/)
data_2016[Cu][nbo]3[FSR]4
_chemical_formula_sum              "Cu12 H120 C240 N12 O48"
_cell_length_a       32.7892
_cell_length_b       32.7892
_cell_length_c       32.7892
_cell_angle_alpha    60
_cell_angle_beta     60
_cell_angle_gamma    60

_symmetry_space_group_name_H-M    "P 1"
_symmetry_Int_Tables_number       1

loop_
  _symmetry_equiv_pos_as_xyz
  'x, y, z'

loop_
  _atom_site_type_symbol
  _atom_site_label
  _atom_site_symmetry_multiplicity
  _atom_site_fract_x
  _atom_site_fract_y
  _atom_site_fract_z
  _atom_site_occupancy
  _atom_site_charge
Cu  Cu1       1.0  0.80003  0.19997  0.19997  1.0000 0.7710540506
Cu  Cu2       1.0  0.19997  0.80003  0.80003  1.0000 0.7710540506
Cu  Cu3       1.0  0.19997  0.80003  0.19997  1.0000 0.7710540506
Cu  Cu4       1.0  0.80003  0.19997  0.80003  1.0000 0.7710540506
Cu  Cu5       1.0  0.19997  0.19997  0.80003  1.0000 0.7762626621
Cu  Cu6       1.0  0.80003  0.80003  0.19997  1.0000 0.7710540506
Cu  Cu7       1.0  0.85375  0.14625  0.14625  1.0000 0.7939875139
Cu  Cu8       1.0  0.14625  0.85375  0.85375  1.0000 0.8044836534
Cu  Cu9       1.0  0.14625  0.85375  0.14625  1.0000 0.8044836534
Cu  Cu10      1.0  0.85375  0.14625  0.85375  1.0000 0.7939875139
Cu  Cu11      1.0  0.14625  0.14625  0.85375  1.0000 0.7939875139
Cu  Cu12      1.0  0.85375  0.85375  0.14625  1.0000 0.8044836534
H   H1        1.0  0.57861  0.92719  0.52013  1.0000 0.1097930062
H   H2        1.0  0.92719  0.57861  0.97407  1.0000 0.1097930062
H   H3        1.0  0.97407  0.52013  0.92719  1.0000 0.1097930062
H   H4        1.0  0.52013  0.97407  0.57861  1.0000 0.1097930062
H   H5        1.0  0.52013  0.57861  0.92719  1.0000 0.1097930062
H   H6        1.0  0.57861  0.52013  0.97407  1.0000 0.1097930062
H   H7        1.0  0.97407  0.92719  0.57861  1.0000 0.1097930062
H   H8        1.0  0.92719  0.97407  0.52013  1.0000 0.1097930062
H   H9        1.0  0.92719  0.52013  0.57861  1.0000 0.1097930062
H   H10       1.0  0.97407  0.57861  0.52013  1.0000 0.1097930062
H   H11       1.0  0.57861  0.97407  0.92719  1.0000 0.1097930062
H   H12       1.0  0.52013  0.92719  0.97407  1.0000 0.1097930062
H   H13       1.0  0.65311  0.92697  0.44461  1.0000 0.1213842193
H   H14       1.0  0.92697  0.65311  0.97531  1.0000 0.1213842193
H   H15       1.0  0.97531  0.44461  0.92697  1.0000 0.1213842193
H   H16       1.0  0.44461  0.97531  0.65311  1.0000 0.1213842193
H   H17       1.0  0.44461  0.65311  0.92697  1.0000 0.1213842193
H   H18       1.0  0.65311  0.44461  0.97531  1.0000 0.1213842193
H   H19       1.0  0.97531  0.92697  0.65311  1.0000 0.1213842193
H   H20       1.0  0.92697  0.97531  0.44461  1.0000 0.1213842193
H   H21       1.0  0.92697  0.44461  0.65311  1.0000 0.1213842193
H   H22       1.0  0.97531  0.65311  0.44461  1.0000 0.1213842193
H   H23       1.0  0.65311  0.97531  0.92697  1.0000 0.1213842193
H   H24       1.0  0.44461  0.92697  0.97531  1.0000 0.1213842193
H   H25       1.0  0.69302  0.13188  0.31158  1.0000 0.1213842193
H   H26       1.0  0.13188  0.69302  0.86352  1.0000 0.1213842193
H   H27       1.0  0.86352  0.31158  0.13188  1.0000 0.1213842193
H   H28       1.0  0.31158  0.86352  0.69302  1.0000 0.1213842193
H   H29       1.0  0.31158  0.69302  0.13188  1.0000 0.1213842193
H   H30       1.0  0.69302  0.31158  0.86352  1.0000 0.1213842193
H   H31       1.0  0.86352  0.13188  0.69302  1.0000 0.1213842193
H   H32       1.0  0.13188  0.86352  0.31158  1.0000 0.1213842193
H   H33       1.0  0.13188  0.31158  0.69302  1.0000 0.1213842193
H   H34       1.0  0.86352  0.69302  0.31158  1.0000 0.1213842193
H   H35       1.0  0.69302  0.86352  0.13188  1.0000 0.1213842193
H   H36       1.0  0.31158  0.13188  0.86352  1.0000 0.1213842193
H   H37       1.0  0.64102  0.07764  0.36836  1.0000 0.1097930062
H   H38       1.0  0.07764  0.64102  0.91298  1.0000 0.1097930062
H   H39       1.0  0.91298  0.36836  0.07764  1.0000 0.1097930062
H   H40       1.0  0.36836  0.91298  0.64102  1.0000 0.1097930062
H   H41       1.0  0.36836  0.64102  0.07764  1.0000 0.1097930062
H   H42       1.0  0.64102  0.36836  0.91298  1.0000 0.1097930062
H   H43       1.0  0.91298  0.07764  0.64102  1.0000 0.1097930062
H   H44       1.0  0.07764  0.91298  0.36836  1.0000 0.1097930062
H   H45       1.0  0.07764  0.36836  0.64102  1.0000 0.1097930062
H   H46       1.0  0.91298  0.64102  0.36836  1.0000 0.1097930062
H   H47       1.0  0.64102  0.91298  0.07764  1.0000 0.1097930062
H   H48       1.0  0.36836  0.07764  0.91298  1.0000 0.1097930062
H   H49       1.0  0.78248  0.03818  0.21770  1.0000 0.1304509452
H   H50       1.0  0.03818  0.78248  0.96164  1.0000 0.1304509452
H   H51       1.0  0.96164  0.21770  0.03818  1.0000 0.1304509452
H   H52       1.0  0.21770  0.96164  0.78248  1.0000 0.1304509452
H   H53       1.0  0.21770  0.78248  0.03818  1.0000 0.1304509452
H   H54       1.0  0.78248  0.21770  0.96164  1.0000 0.1304509452
H   H55       1.0  0.96164  0.03818  0.78248  1.0000 0.1304509452
H   H56       1.0  0.03818  0.96164  0.21770  1.0000 0.1304509452
H   H57       1.0  0.03818  0.21770  0.78248  1.0000 0.1304509452
H   H58       1.0  0.96164  0.78248  0.21770  1.0000 0.1304509452
H   H59       1.0  0.78248  0.96164  0.03818  1.0000 0.1304509452
H   H60       1.0  0.21770  0.03818  0.96164  1.0000 0.1304509452
H   H61       1.0  0.78285  0.95955  0.21805  1.0000 0.1304509452
H   H62       1.0  0.95955  0.78285  0.03955  1.0000 0.1304509452
H   H63       1.0  0.03955  0.21805  0.95955  1.0000 0.1304509452
H   H64       1.0  0.21805  0.03955  0.78285  1.0000 0.1304509452
H   H65       1.0  0.21805  0.78285  0.95955  1.0000 0.1304509452
H   H66       1.0  0.78285  0.21805  0.03955  1.0000 0.1304509452
H   H67       1.0  0.03955  0.95955  0.78285  1.0000 0.1304509452
H   H68       1.0  0.95955  0.03955  0.21805  1.0000 0.1304509452
H   H69       1.0  0.95955  0.21805  0.78285  1.0000 0.1304509452
H   H70       1.0  0.03955  0.78285  0.21805  1.0000 0.1304509452
H   H71       1.0  0.78285  0.03955  0.95955  1.0000 0.1304509452
H   H72       1.0  0.21805  0.95955  0.03955  1.0000 0.1304509452
H   H73       1.0  0.64338  0.90908  0.37046  1.0000 0.1097930062
H   H74       1.0  0.90908  0.64338  0.07708  1.0000 0.1097930062
H   H75       1.0  0.07708  0.37046  0.90908  1.0000 0.1097930062
H   H76       1.0  0.37046  0.07708  0.64338  1.0000 0.1097930062
H   H77       1.0  0.37046  0.64338  0.90908  1.0000 0.1097930062
H   H78       1.0  0.64338  0.37046  0.07708  1.0000 0.1097930062
H   H79       1.0  0.07708  0.90908  0.64338  1.0000 0.1097930062
H   H80       1.0  0.90908  0.07708  0.37046  1.0000 0.1097930062
H   H81       1.0  0.90908  0.37046  0.64338  1.0000 0.1097930062
H   H82       1.0  0.07708  0.64338  0.37046  1.0000 0.1097930062
H   H83       1.0  0.64338  0.07708  0.90908  1.0000 0.1097930062
H   H84       1.0  0.37046  0.90908  0.07708  1.0000 0.1097930062
H   H85       1.0  0.69606  0.85896  0.31430  1.0000 0.1213842193
H   H86       1.0  0.85896  0.69606  0.13068  1.0000 0.1213842193
H   H87       1.0  0.13068  0.31430  0.85896  1.0000 0.1213842193
H   H88       1.0  0.31430  0.13068  0.69606  1.0000 0.1213842193
H   H89       1.0  0.31430  0.69606  0.85896  1.0000 0.1213842193
H   H90       1.0  0.69606  0.31430  0.13068  1.0000 0.1213842193
H   H91       1.0  0.13068  0.85896  0.69606  1.0000 0.1213842193
H   H92       1.0  0.85896  0.13068  0.31430  1.0000 0.1213842193
H   H93       1.0  0.85896  0.31430  0.69606  1.0000 0.1213842193
H   H94       1.0  0.13068  0.69606  0.31430  1.0000 0.1213842193
H   H95       1.0  0.69606  0.13068  0.85896  1.0000 0.1213842193
H   H96       1.0  0.31430  0.85896  0.13068  1.0000 0.1213842193
H   H97       1.0  0.56687  0.05957  0.35897  1.0000 0.1213842193
H   H98       1.0  0.05957  0.56687  0.01459  1.0000 0.1213842193
H   H99       1.0  0.01459  0.35897  0.05957  1.0000 0.1213842193
H   H100      1.0  0.35897  0.01459  0.56687  1.0000 0.1213842193
H   H101      1.0  0.35897  0.56687  0.05957  1.0000 0.1213842193
H   H102      1.0  0.56687  0.35897  0.01459  1.0000 0.1213842193
H   H103      1.0  0.01459  0.05957  0.56687  1.0000 0.1213842193
H   H104      1.0  0.05957  0.01459  0.35897  1.0000 0.1213842193
H   H105      1.0  0.05957  0.35897  0.56687  1.0000 0.1213842193
H   H106      1.0  0.01459  0.56687  0.35897  1.0000 0.1213842193
H   H107      1.0  0.56687  0.01459  0.05957  1.0000 0.1213842193
H   H108      1.0  0.35897  0.05957  0.01459  1.0000 0.1213842193
H   H109      1.0  0.49196  0.05998  0.43412  1.0000 0.1097930062
H   H110      1.0  0.05998  0.49196  0.01394  1.0000 0.1097930062
H   H111      1.0  0.01394  0.43412  0.05998  1.0000 0.1097930062
H   H112      1.0  0.43412  0.01394  0.49196  1.0000 0.1097930062
H   H113      1.0  0.43412  0.49196  0.05998  1.0000 0.1097930062
H   H114      1.0  0.49196  0.43412  0.01394  1.0000 0.1097930062
H   H115      1.0  0.01394  0.05998  0.49196  1.0000 0.1097930062
H   H116      1.0  0.05998  0.01394  0.43412  1.0000 0.1097930062
H   H117      1.0  0.05998  0.43412  0.49196  1.0000 0.1097930062
H   H118      1.0  0.01394  0.49196  0.43412  1.0000 0.1097930062
H   H119      1.0  0.49196  0.01394  0.05998  1.0000 0.1097930062
H   H120      1.0  0.43412  0.05998  0.01394  1.0000 0.1097930062
C   C1        1.0  0.57547  0.95651  0.48501  1.0000 -0.1200296304
C   C2        1.0  0.95651  0.57547  0.98301  1.0000 -0.1200296304
C   C3        1.0  0.98301  0.48501  0.95651  1.0000 -0.1200296304
C   C4        1.0  0.48501  0.98301  0.57547  1.0000 -0.1200296304
C   C5        1.0  0.48501  0.57547  0.95651  1.0000 -0.1200296304
C   C6        1.0  0.57547  0.48501  0.98301  1.0000 -0.1200296304
C   C7        1.0  0.98301  0.95651  0.57547  1.0000 -0.1200296304
C   C8        1.0  0.95651  0.98301  0.48501  1.0000 -0.1200296304
C   C9        1.0  0.95651  0.48501  0.57547  1.0000 -0.1200296304
C   C10       1.0  0.98301  0.57547  0.48501  1.0000 -0.1200296304
C   C11       1.0  0.57547  0.98301  0.95651  1.0000 -0.1200296304
C   C12       1.0  0.48501  0.95651  0.98301  1.0000 -0.1200296304
C   C13       1.0  0.61777  0.95617  0.44215  1.0000 -0.1632489244
C   C14       1.0  0.95617  0.61777  0.98391  1.0000 -0.1632489244
C   C15       1.0  0.98391  0.44215  0.95617  1.0000 -0.1632489244
C   C16       1.0  0.44215  0.98391  0.61777  1.0000 -0.1632489244
C   C17       1.0  0.44215  0.61777  0.95617  1.0000 -0.1632489244
C   C18       1.0  0.61777  0.44215  0.98391  1.0000 -0.1632489244
C   C19       1.0  0.98391  0.95617  0.61777  1.0000 -0.1657511678
C   C20       1.0  0.95617  0.98391  0.44215  1.0000 -0.1657511678
C   C21       1.0  0.95617  0.44215  0.61777  1.0000 -0.1632489244
C   C22       1.0  0.98391  0.61777  0.44215  1.0000 -0.1632489244
C   C23       1.0  0.61777  0.98391  0.95617  1.0000 -0.1632489244
C   C24       1.0  0.44215  0.95617  0.98391  1.0000 -0.1657511678
C   C25       1.0  0.70131  0.10007  0.30303  1.0000 -0.0712456791
C   C26       1.0  0.10007  0.70131  0.89559  1.0000 -0.0712456791
C   C27       1.0  0.89559  0.30303  0.10007  1.0000 -0.0712456791
C   C28       1.0  0.30303  0.89559  0.70131  1.0000 -0.0712456791
C   C29       1.0  0.30303  0.70131  0.10007  1.0000 -0.0712456791
C   C30       1.0  0.70131  0.30303  0.89559  1.0000 -0.0712456791
C   C31       1.0  0.89559  0.10007  0.70131  1.0000 -0.0712456791
C   C32       1.0  0.10007  0.89559  0.30303  1.0000 -0.0712456791
C   C33       1.0  0.10007  0.30303  0.70131  1.0000 -0.0712456791
C   C34       1.0  0.89559  0.70131  0.30303  1.0000 -0.0712456791
C   C35       1.0  0.70131  0.89559  0.10007  1.0000 -0.0712456791
C   C36       1.0  0.30303  0.10007  0.89559  1.0000 -0.0712456791
C   C37       1.0  0.67140  0.06954  0.33554  1.0000 -0.1924174875
C   C38       1.0  0.06954  0.67140  0.92352  1.0000 -0.1924174875
C   C39       1.0  0.92352  0.33554  0.06954  1.0000 -0.1924174875
C   C40       1.0  0.33554  0.92352  0.67140  1.0000 -0.1924174875
C   C41       1.0  0.33554  0.67140  0.06954  1.0000 -0.1924174875
C   C42       1.0  0.67140  0.33554  0.92352  1.0000 -0.1924174875
C   C43       1.0  0.92352  0.06954  0.67140  1.0000 -0.1924174875
C   C44       1.0  0.06954  0.92352  0.33554  1.0000 -0.1924174875
C   C45       1.0  0.06954  0.33554  0.67140  1.0000 -0.1924174875
C   C46       1.0  0.92352  0.67140  0.33554  1.0000 -0.1924174875
C   C47       1.0  0.67140  0.92352  0.06954  1.0000 -0.1924174875
C   C48       1.0  0.33554  0.06954  0.92352  1.0000 -0.1924174875
C   C49       1.0  0.68234  0.02856  0.32446  1.0000 0.1213842193
C   C50       1.0  0.02856  0.68234  0.96464  1.0000 0.1213842193
C   C51       1.0  0.96464  0.32446  0.02856  1.0000 0.1213842193
C   C52       1.0  0.32446  0.96464  0.68234  1.0000 0.1213842193
C   C53       1.0  0.32446  0.68234  0.02856  1.0000 0.1213842193
C   C54       1.0  0.68234  0.32446  0.96464  1.0000 0.1213842193
C   C55       1.0  0.96464  0.02856  0.68234  1.0000 0.1213842193
C   C56       1.0  0.02856  0.96464  0.32446  1.0000 0.1213842193
C   C57       1.0  0.02856  0.32446  0.68234  1.0000 0.1213842193
C   C58       1.0  0.96464  0.68234  0.32446  1.0000 0.1213842193
C   C59       1.0  0.68234  0.96464  0.02856  1.0000 0.1213842193
C   C60       1.0  0.32446  0.02856  0.96464  1.0000 0.1213842193
C   C61       1.0  0.72154  0.01796  0.28292  1.0000 -0.0261896234
C   C62       1.0  0.01796  0.72154  0.97758  1.0000 -0.0261896234
C   C63       1.0  0.97758  0.28292  0.01796  1.0000 -0.0243005426
C   C64       1.0  0.28292  0.97758  0.72154  1.0000 -0.0243005426
C   C65       1.0  0.28292  0.72154  0.01796  1.0000 -0.0243005426
C   C66       1.0  0.72154  0.28292  0.97758  1.0000 -0.0243005426
C   C67       1.0  0.97758  0.01796  0.72154  1.0000 -0.0261896234
C   C68       1.0  0.01796  0.97758  0.28292  1.0000 -0.0243005426
C   C69       1.0  0.01796  0.28292  0.72154  1.0000 -0.0243005426
C   C70       1.0  0.97758  0.72154  0.28292  1.0000 -0.0243005426
C   C71       1.0  0.72154  0.97758  0.01796  1.0000 -0.0243005426
C   C72       1.0  0.28292  0.01796  0.97758  1.0000 -0.0261896234
C   C73       1.0  0.75186  0.04758  0.24988  1.0000 -0.1134424392
C   C74       1.0  0.04758  0.75186  0.95068  1.0000 -0.1134424392
C   C75       1.0  0.95068  0.24988  0.04758  1.0000 -0.1200296304
C   C76       1.0  0.24988  0.95068  0.75186  1.0000 -0.1134424392
C   C77       1.0  0.24988  0.75186  0.04758  1.0000 -0.1200296304
C   C78       1.0  0.75186  0.24988  0.95068  1.0000 -0.1200296304
C   C79       1.0  0.95068  0.04758  0.75186  1.0000 -0.1134424392
C   C80       1.0  0.04758  0.95068  0.24988  1.0000 -0.1200296304
C   C81       1.0  0.04758  0.24988  0.75186  1.0000 -0.1134424392
C   C82       1.0  0.95068  0.75186  0.24988  1.0000 -0.1134424392
C   C83       1.0  0.75186  0.95068  0.04758  1.0000 -0.1200296304
C   C84       1.0  0.24988  0.04758  0.95068  1.0000 -0.1134424392
C   C85       1.0  0.74172  0.08948  0.26012  1.0000 -0.0712456791
C   C86       1.0  0.08948  0.74172  0.90868  1.0000 -0.0712456791
C   C87       1.0  0.90868  0.26012  0.08948  1.0000 -0.0712456791
C   C88       1.0  0.26012  0.90868  0.74172  1.0000 -0.0712456791
C   C89       1.0  0.26012  0.74172  0.08948  1.0000 -0.0712456791
C   C90       1.0  0.74172  0.26012  0.90868  1.0000 -0.0712456791
C   C91       1.0  0.90868  0.08948  0.74172  1.0000 -0.0712456791
C   C92       1.0  0.08948  0.90868  0.26012  1.0000 -0.0712456791
C   C93       1.0  0.08948  0.26012  0.74172  1.0000 -0.0712456791
C   C94       1.0  0.90868  0.74172  0.26012  1.0000 -0.0762422022
C   C95       1.0  0.74172  0.90868  0.08948  1.0000 -0.0762422022
C   C96       1.0  0.26012  0.08948  0.90868  1.0000 -0.0712456791
C   C97       1.0  0.77298  0.12052  0.22564  1.0000 0.5807071987
C   C98       1.0  0.12052  0.77298  0.88086  1.0000 0.5807071987
C   C99       1.0  0.88086  0.22564  0.12052  1.0000 0.5807071987
C   C100      1.0  0.22564  0.88086  0.77298  1.0000 0.5807071987
C   C101      1.0  0.22564  0.77298  0.12052  1.0000 0.5807071987
C   C102      1.0  0.77298  0.22564  0.88086  1.0000 0.5807071987
C   C103      1.0  0.88086  0.12052  0.77298  1.0000 0.5807071987
C   C104      1.0  0.12052  0.88086  0.22564  1.0000 0.5807071987
C   C105      1.0  0.12052  0.22564  0.77298  1.0000 0.5807071987
C   C106      1.0  0.88086  0.77298  0.22564  1.0000 0.5807071987
C   C107      1.0  0.77298  0.88086  0.12052  1.0000 0.5807071987
C   C108      1.0  0.22564  0.12052  0.88086  1.0000 0.5807071987
C   C109      1.0  0.77437  0.87785  0.22703  1.0000 0.5807071987
C   C110      1.0  0.87785  0.77437  0.12075  1.0000 0.5807071987
C   C111      1.0  0.12075  0.22703  0.87785  1.0000 0.5807071987
C   C112      1.0  0.22703  0.12075  0.77437  1.0000 0.5807071987
C   C113      1.0  0.22703  0.77437  0.87785  1.0000 0.5807071987
C   C114      1.0  0.77437  0.22703  0.12075  1.0000 0.5807071987
C   C115      1.0  0.12075  0.87785  0.77437  1.0000 0.5807071987
C   C116      1.0  0.87785  0.12075  0.22703  1.0000 0.5807071987
C   C117      1.0  0.87785  0.22703  0.77437  1.0000 0.5807071987
C   C118      1.0  0.12075  0.77437  0.22703  1.0000 0.5807071987
C   C119      1.0  0.77437  0.12075  0.87785  1.0000 0.5807071987
C   C120      1.0  0.22703  0.87785  0.12075  1.0000 0.5807071987
C   C121      1.0  0.74365  0.90513  0.26187  1.0000 -0.0712456791
C   C122      1.0  0.90513  0.74365  0.08935  1.0000 -0.0712456791
C   C123      1.0  0.08935  0.26187  0.90513  1.0000 -0.0712456791
C   C124      1.0  0.26187  0.08935  0.74365  1.0000 -0.0712456791
C   C125      1.0  0.26187  0.74365  0.90513  1.0000 -0.0712456791
C   C126      1.0  0.74365  0.26187  0.08935  1.0000 -0.0712456791
C   C127      1.0  0.08935  0.90513  0.74365  1.0000 -0.0712456791
C   C128      1.0  0.90513  0.08935  0.26187  1.0000 -0.0712456791
C   C129      1.0  0.90513  0.26187  0.74365  1.0000 -0.0712456791
C   C130      1.0  0.08935  0.74365  0.26187  1.0000 -0.0712456791
C   C131      1.0  0.74365  0.08935  0.90513  1.0000 -0.0712456791
C   C132      1.0  0.26187  0.90513  0.08935  1.0000 -0.0712456791
C   C133      1.0  0.75311  0.94779  0.25097  1.0000 -0.1134424392
C   C134      1.0  0.94779  0.75311  0.04813  1.0000 -0.1134424392
C   C135      1.0  0.04813  0.25097  0.94779  1.0000 -0.1134424392
C   C136      1.0  0.25097  0.04813  0.75311  1.0000 -0.1134424392
C   C137      1.0  0.25097  0.75311  0.94779  1.0000 -0.1134424392
C   C138      1.0  0.75311  0.25097  0.04813  1.0000 -0.1134424392
C   C139      1.0  0.04813  0.94779  0.75311  1.0000 -0.1134424392
C   C140      1.0  0.94779  0.04813  0.25097  1.0000 -0.1134424392
C   C141      1.0  0.94779  0.25097  0.75311  1.0000 -0.1134424392
C   C142      1.0  0.04813  0.75311  0.25097  1.0000 -0.1134424392
C   C143      1.0  0.75311  0.04813  0.94779  1.0000 -0.1134424392
C   C144      1.0  0.25097  0.94779  0.04813  1.0000 -0.1134424392
C   C145      1.0  0.72245  0.97503  0.28373  1.0000 -0.0243005426
C   C146      1.0  0.97503  0.72245  0.01879  1.0000 -0.0243005426
C   C147      1.0  0.01879  0.28373  0.97503  1.0000 -0.0261896234
C   C148      1.0  0.28373  0.01879  0.72245  1.0000 -0.0261896234
C   C149      1.0  0.28373  0.72245  0.97503  1.0000 -0.0243005426
C   C150      1.0  0.72245  0.28373  0.01879  1.0000 -0.0243005426
C   C151      1.0  0.01879  0.97503  0.72245  1.0000 -0.0243005426
C   C152      1.0  0.97503  0.01879  0.28373  1.0000 -0.0261896234
C   C153      1.0  0.97503  0.28373  0.72245  1.0000 -0.0261896234
C   C154      1.0  0.01879  0.72245  0.28373  1.0000 -0.0243005426
C   C155      1.0  0.72245  0.01879  0.97503  1.0000 -0.0261896234
C   C156      1.0  0.28373  0.97503  0.01879  1.0000 -0.0243005426
C   C157      1.0  0.68402  0.96138  0.32594  1.0000 0.1213842193
C   C158      1.0  0.96138  0.68402  0.02866  1.0000 0.1213842193
C   C159      1.0  0.02866  0.32594  0.96138  1.0000 0.1213842193
C   C160      1.0  0.32594  0.02866  0.68402  1.0000 0.1213842193
C   C161      1.0  0.32594  0.68402  0.96138  1.0000 0.1213842193
C   C162      1.0  0.68402  0.32594  0.02866  1.0000 0.1213842193
C   C163      1.0  0.02866  0.96138  0.68402  1.0000 0.1213842193
C   C164      1.0  0.96138  0.02866  0.32594  1.0000 0.1213842193
C   C165      1.0  0.96138  0.32594  0.68402  1.0000 0.1304509452
C   C166      1.0  0.02866  0.68402  0.32594  1.0000 0.1213842193
C   C167      1.0  0.68402  0.02866  0.96138  1.0000 0.1213842193
C   C168      1.0  0.32594  0.96138  0.02866  1.0000 0.1213842193
C   C169      1.0  0.67382  0.91956  0.33768  1.0000 -0.1966839817
C   C170      1.0  0.91956  0.67382  0.06894  1.0000 -0.1966839817
C   C171      1.0  0.06894  0.33768  0.91956  1.0000 -0.1966839817
C   C172      1.0  0.33768  0.06894  0.67382  1.0000 -0.1966839817
C   C173      1.0  0.33768  0.67382  0.91956  1.0000 -0.1966839817
C   C174      1.0  0.67382  0.33768  0.06894  1.0000 -0.1966839817
C   C175      1.0  0.06894  0.91956  0.67382  1.0000 -0.1966839817
C   C176      1.0  0.91956  0.06894  0.33768  1.0000 -0.1966839817
C   C177      1.0  0.91956  0.33768  0.67382  1.0000 -0.1966839817
C   C178      1.0  0.06894  0.67382  0.33768  1.0000 -0.1966839817
C   C179      1.0  0.67382  0.06894  0.91956  1.0000 -0.1966839817
C   C180      1.0  0.33768  0.91956  0.06894  1.0000 -0.1966839817
C   C181      1.0  0.70396  0.89138  0.30540  1.0000 -0.0712456791
C   C182      1.0  0.89138  0.70396  0.09926  1.0000 -0.0712456791
C   C183      1.0  0.09926  0.30540  0.89138  1.0000 -0.0712456791
C   C184      1.0  0.30540  0.09926  0.70396  1.0000 -0.0712456791
C   C185      1.0  0.30540  0.70396  0.89138  1.0000 -0.0712456791
C   C186      1.0  0.70396  0.30540  0.09926  1.0000 -0.0712456791
C   C187      1.0  0.09926  0.89138  0.70396  1.0000 -0.0712456791
C   C188      1.0  0.89138  0.09926  0.30540  1.0000 -0.0712456791
C   C189      1.0  0.89138  0.30540  0.70396  1.0000 -0.0712456791
C   C190      1.0  0.09926  0.70396  0.30540  1.0000 -0.0712456791
C   C191      1.0  0.70396  0.09926  0.89138  1.0000 -0.0712456791
C   C192      1.0  0.30540  0.89138  0.09926  1.0000 -0.0712456791
C   C193      1.0  0.61462  0.99362  0.39630  1.0000 0.1660199553
C   C194      1.0  0.99362  0.61462  0.99546  1.0000 0.1660199553
C   C195      1.0  0.99546  0.39630  0.99362  1.0000 0.1660199553
C   C196      1.0  0.39630  0.99546  0.61462  1.0000 0.1660199553
C   C197      1.0  0.39630  0.61462  0.99362  1.0000 0.1644107166
C   C198      1.0  0.61462  0.39630  0.99546  1.0000 0.1660199553
C   C199      1.0  0.99546  0.99362  0.61462  1.0000 0.1660199553
C   C200      1.0  0.99362  0.99546  0.39630  1.0000 0.1660199553
C   C201      1.0  0.99362  0.39630  0.61462  1.0000 0.1660199553
C   C202      1.0  0.99546  0.61462  0.39630  1.0000 0.1660199553
C   C203      1.0  0.61462  0.99546  0.99362  1.0000 0.1660199553
C   C204      1.0  0.39630  0.99362  0.99546  1.0000 0.1660199553
C   C205      1.0  0.56961  0.03051  0.39429  1.0000 -0.1632489244
C   C206      1.0  0.03051  0.56961  0.00559  1.0000 -0.1632489244
C   C207      1.0  0.00559  0.39429  0.03051  1.0000 -0.1632489244
C   C208      1.0  0.39429  0.00559  0.56961  1.0000 -0.1632489244
C   C209      1.0  0.39429  0.56961  0.03051  1.0000 -0.1632489244
C   C210      1.0  0.56961  0.39429  0.00559  1.0000 -0.1632489244
C   C211      1.0  0.00559  0.03051  0.56961  1.0000 -0.1632489244
C   C212      1.0  0.03051  0.00559  0.39429  1.0000 -0.1632489244
C   C213      1.0  0.03051  0.39429  0.56961  1.0000 -0.1632489244
C   C214      1.0  0.00559  0.56961  0.39429  1.0000 -0.1632489244
C   C215      1.0  0.56961  0.00559  0.03051  1.0000 -0.1632489244
C   C216      1.0  0.39429  0.03051  0.00559  1.0000 -0.1632489244
C   C217      1.0  0.52709  0.03053  0.43697  1.0000 -0.1200296304
C   C218      1.0  0.03053  0.52709  0.00541  1.0000 -0.1200296304
C   C219      1.0  0.00541  0.43697  0.03053  1.0000 -0.1200296304
C   C220      1.0  0.43697  0.00541  0.52709  1.0000 -0.1200296304
C   C221      1.0  0.43697  0.52709  0.03053  1.0000 -0.1200296304
C   C222      1.0  0.52709  0.43697  0.00541  1.0000 -0.1200296304
C   C223      1.0  0.00541  0.03053  0.52709  1.0000 -0.1200296304
C   C224      1.0  0.03053  0.00541  0.43697  1.0000 -0.1200296304
C   C225      1.0  0.03053  0.43697  0.52709  1.0000 -0.1200296304
C   C226      1.0  0.00541  0.52709  0.43697  1.0000 -0.1200296304
C   C227      1.0  0.52709  0.00541  0.03053  1.0000 -0.1200296304
C   C228      1.0  0.43697  0.03053  0.00541  1.0000 -0.1200296304
C   C229      1.0  0.52930  0.99400  0.48234  1.0000 0.0639296062
C   C230      1.0  0.99400  0.52930  0.99436  1.0000 0.0639296062
C   C231      1.0  0.99436  0.48234  0.99400  1.0000 0.0639296062
C   C232      1.0  0.48234  0.99436  0.52930  1.0000 0.0639296062
C   C233      1.0  0.48234  0.52930  0.99400  1.0000 0.0639296062
C   C234      1.0  0.52930  0.48234  0.99436  1.0000 0.0653246927
C   C235      1.0  0.99436  0.99400  0.52930  1.0000 0.0639296062
C   C236      1.0  0.99400  0.99436  0.48234  1.0000 0.0639296062
C   C237      1.0  0.99400  0.48234  0.52930  1.0000 0.0639296062
C   C238      1.0  0.99436  0.52930  0.48234  1.0000 0.0639296062
C   C239      1.0  0.52930  0.99436  0.99400  1.0000 0.0639296062
C   C240      1.0  0.48234  0.99400  0.99436  1.0000 0.0653246927
N   N1        1.0  0.65914  0.99402  0.35114  1.0000 -0.1134424392
N   N2        1.0  0.99402  0.65914  0.99570  1.0000 -0.1200296304
N   N3        1.0  0.99570  0.35114  0.99402  1.0000 -0.1134424392
N   N4        1.0  0.35114  0.99570  0.65914  1.0000 -0.1200296304
N   N5        1.0  0.35114  0.65914  0.99402  1.0000 -0.1134424392
N   N6        1.0  0.65914  0.35114  0.99570  1.0000 -0.1134424392
N   N7        1.0  0.99570  0.99402  0.65914  1.0000 -0.1134424392
N   N8        1.0  0.99402  0.99570  0.35114  1.0000 -0.1134424392
N   N9        1.0  0.99402  0.35114  0.65914  1.0000 -0.1134424392
N   N10       1.0  0.99570  0.65914  0.35114  1.0000 -0.1134424392
N   N11       1.0  0.65914  0.99570  0.99402  1.0000 -0.1134424392
N   N12       1.0  0.35114  0.99402  0.99570  1.0000 -0.1200296304
O   O1        1.0  0.76310  0.15782  0.23574  1.0000 -0.4917666477
O   O2        1.0  0.15782  0.76310  0.84334  1.0000 -0.4917666477
O   O3        1.0  0.84334  0.23574  0.15782  1.0000 -0.4917666477
O   O4        1.0  0.23574  0.84334  0.76310  1.0000 -0.4917666477
O   O5        1.0  0.23574  0.76310  0.15782  1.0000 -0.4917666477
O   O6        1.0  0.76310  0.23574  0.84334  1.0000 -0.4917666477
O   O7        1.0  0.84334  0.15782  0.76310  1.0000 -0.4917666477
O   O8        1.0  0.15782  0.84334  0.23574  1.0000 -0.4917666477
O   O9        1.0  0.15782  0.23574  0.76310  1.0000 -0.4917666477
O   O10       1.0  0.84334  0.76310  0.23574  1.0000 -0.4917666477
O   O11       1.0  0.76310  0.84334  0.15782  1.0000 -0.4917666477
O   O12       1.0  0.23574  0.15782  0.84334  1.0000 -0.4917666477
O   O13       1.0  0.81054  0.10992  0.18850  1.0000 -0.4976996593
O   O14       1.0  0.10992  0.81054  0.89104  1.0000 -0.4976996593
O   O15       1.0  0.89104  0.18850  0.10992  1.0000 -0.4976996593
O   O16       1.0  0.18850  0.89104  0.81054  1.0000 -0.4976996593
O   O17       1.0  0.18850  0.81054  0.10992  1.0000 -0.4976996593
O   O18       1.0  0.81054  0.18850  0.89104  1.0000 -0.4976996593
O   O19       1.0  0.89104  0.10992  0.81054  1.0000 -0.4976996593
O   O20       1.0  0.10992  0.89104  0.18850  1.0000 -0.4976996593
O   O21       1.0  0.10992  0.18850  0.81054  1.0000 -0.4976996593
O   O22       1.0  0.89104  0.81054  0.18850  1.0000 -0.4976996593
O   O23       1.0  0.81054  0.89104  0.10992  1.0000 -0.4976996593
O   O24       1.0  0.18850  0.10992  0.89104  1.0000 -0.4976996593
O   O25       1.0  0.81149  0.88845  0.18947  1.0000 -0.4976996593
O   O26       1.0  0.88845  0.81149  0.11059  1.0000 -0.4976996593
O   O27       1.0  0.11059  0.18947  0.88845  1.0000 -0.4976996593
O   O28       1.0  0.18947  0.11059  0.81149  1.0000 -0.4976996593
O   O29       1.0  0.18947  0.81149  0.88845  1.0000 -0.4976996593
O   O30       1.0  0.81149  0.18947  0.11059  1.0000 -0.4976996593
O   O31       1.0  0.11059  0.88845  0.81149  1.0000 -0.4976996593
O   O32       1.0  0.88845  0.11059  0.18947  1.0000 -0.4976996593
O   O33       1.0  0.88845  0.18947  0.81149  1.0000 -0.4976996593
O   O34       1.0  0.11059  0.81149  0.18947  1.0000 -0.4976996593
O   O35       1.0  0.81149  0.11059  0.88845  1.0000 -0.4976996593
O   O36       1.0  0.18947  0.88845  0.11059  1.0000 -0.4976996593
O   O37       1.0  0.76426  0.84056  0.23690  1.0000 -0.4821737793
O   O38       1.0  0.84056  0.76426  0.15828  1.0000 -0.4821737793
O   O39       1.0  0.15828  0.23690  0.84056  1.0000 -0.4821737793
O   O40       1.0  0.23690  0.15828  0.76426  1.0000 -0.4821737793
O   O41       1.0  0.23690  0.76426  0.84056  1.0000 -0.4821737793
O   O42       1.0  0.76426  0.23690  0.15828  1.0000 -0.4821737793
O   O43       1.0  0.15828  0.84056  0.76426  1.0000 -0.4821737793
O   O44       1.0  0.84056  0.15828  0.23690  1.0000 -0.4821737793
O   O45       1.0  0.84056  0.23690  0.76426  1.0000 -0.4821737793
O   O46       1.0  0.15828  0.76426  0.23690  1.0000 -0.4821737793
O   O47       1.0  0.76426  0.15828  0.84056  1.0000 -0.4821737793
O   O48       1.0  0.23690  0.84056  0.15828  1.0000 -0.4821737793
