# DDEC6 charges by PACMAN v1.1 (https://github.com/mtap-research/PACMAN-charge/)
data_2016[Co][rho]3[FSR]1
_chemical_formula_sum              "Co24 H96 C144 N144 O96"
_cell_length_a       25.1409
_cell_length_b       25.1409
_cell_length_c       25.1409
_cell_angle_alpha    109.471
_cell_angle_beta     109.471
_cell_angle_gamma    109.471

_symmetry_space_group_name_H-M    "P 1"
_symmetry_Int_Tables_number       1

loop_
  _symmetry_equiv_pos_as_xyz
  'x, y, z'

loop_
  _atom_site_type_symbol
  _atom_site_label
  _atom_site_symmetry_multiplicity
  _atom_site_fract_x
  _atom_site_fract_y
  _atom_site_fract_z
  _atom_site_occupancy
  _atom_site_charge
Co  Co1       1.0  0.14500  0.85500  0.50000  1.0000 0.6941384732
Co  Co2       1.0  0.85500  0.35500  0.71000  1.0000 0.6941384732
Co  Co3       1.0  0.35500  0.64500  0.50000  1.0000 0.6941384732
Co  Co4       1.0  0.64500  0.14500  0.29000  1.0000 0.6941384732
Co  Co5       1.0  0.50000  0.14500  0.85500  1.0000 0.6941384732
Co  Co6       1.0  0.14500  0.29000  0.64500  1.0000 0.6941384732
Co  Co7       1.0  0.29000  0.64500  0.14500  1.0000 0.6941384732
Co  Co8       1.0  0.64500  0.50000  0.35500  1.0000 0.6999918023
Co  Co9       1.0  0.50000  0.35500  0.64500  1.0000 0.6941384732
Co  Co10      1.0  0.35500  0.71000  0.85500  1.0000 0.6999918023
Co  Co11      1.0  0.71000  0.85500  0.35500  1.0000 0.6941384732
Co  Co12      1.0  0.85500  0.50000  0.14500  1.0000 0.6941384732
Co  Co13      1.0  0.85500  0.14500  0.50000  1.0000 0.6941384732
Co  Co14      1.0  0.14500  0.64500  0.29000  1.0000 0.6941384732
Co  Co15      1.0  0.64500  0.35500  0.50000  1.0000 0.6999918023
Co  Co16      1.0  0.35500  0.85500  0.71000  1.0000 0.6999918023
Co  Co17      1.0  0.50000  0.85500  0.14500  1.0000 0.6941384732
Co  Co18      1.0  0.85500  0.71000  0.35500  1.0000 0.6941384732
Co  Co19      1.0  0.71000  0.35500  0.85500  1.0000 0.6941384732
Co  Co20      1.0  0.35500  0.50000  0.64500  1.0000 0.6941384732
Co  Co21      1.0  0.50000  0.64500  0.35500  1.0000 0.6941384732
Co  Co22      1.0  0.64500  0.29000  0.14500  1.0000 0.6999918023
Co  Co23      1.0  0.29000  0.14500  0.64500  1.0000 0.6941384732
Co  Co24      1.0  0.14500  0.50000  0.85500  1.0000 0.6941384732
H   H1        1.0  0.10910  0.75980  0.55990  1.0000 0.1156573425
H   H2        1.0  0.75980  0.19990  0.65070  1.0000 0.1156573425
H   H3        1.0  0.19990  0.54920  0.44010  1.0000 0.1156573425
H   H4        1.0  0.54920  0.10910  0.34930  1.0000 0.1156573425
H   H5        1.0  0.89090  0.45080  0.65070  1.0000 0.1156573425
H   H6        1.0  0.45080  0.80010  0.55990  1.0000 0.1156573425
H   H7        1.0  0.80010  0.24020  0.34930  1.0000 0.1156573425
H   H8        1.0  0.24020  0.89090  0.44010  1.0000 0.1156573425
H   H9        1.0  0.55990  0.10910  0.75980  1.0000 0.1156573425
H   H10       1.0  0.10910  0.34930  0.54920  1.0000 0.1156573425
H   H11       1.0  0.34930  0.80010  0.24020  1.0000 0.1156573425
H   H12       1.0  0.80010  0.55990  0.45080  1.0000 0.1156573425
H   H13       1.0  0.44010  0.19990  0.54920  1.0000 0.1156573425
H   H14       1.0  0.19990  0.65070  0.75980  1.0000 0.1156573425
H   H15       1.0  0.65070  0.89090  0.45080  1.0000 0.1156573425
H   H16       1.0  0.89090  0.44010  0.24020  1.0000 0.1156573425
H   H17       1.0  0.75980  0.55990  0.10910  1.0000 0.1156573425
H   H18       1.0  0.44010  0.24020  0.89090  1.0000 0.1156573425
H   H19       1.0  0.55990  0.45080  0.80010  1.0000 0.1156573425
H   H20       1.0  0.34930  0.54920  0.10910  1.0000 0.1156573425
H   H21       1.0  0.65070  0.75980  0.19990  1.0000 0.1156573425
H   H22       1.0  0.24020  0.34930  0.80010  1.0000 0.1156573425
H   H23       1.0  0.45080  0.65070  0.89090  1.0000 0.1156573425
H   H24       1.0  0.54920  0.44010  0.19990  1.0000 0.1156573425
H   H25       1.0  0.89090  0.24020  0.44010  1.0000 0.1156573425
H   H26       1.0  0.24020  0.80010  0.34930  1.0000 0.1156573425
H   H27       1.0  0.80010  0.45080  0.55990  1.0000 0.1156573425
H   H28       1.0  0.45080  0.89090  0.65070  1.0000 0.1156573425
H   H29       1.0  0.10910  0.54920  0.34930  1.0000 0.1156573425
H   H30       1.0  0.54920  0.19990  0.44010  1.0000 0.1156573425
H   H31       1.0  0.19990  0.75980  0.65070  1.0000 0.1156573425
H   H32       1.0  0.75980  0.10910  0.55990  1.0000 0.1156573425
H   H33       1.0  0.44010  0.89090  0.24020  1.0000 0.1156573425
H   H34       1.0  0.89090  0.65070  0.45080  1.0000 0.1156573425
H   H35       1.0  0.65070  0.19990  0.75980  1.0000 0.1156573425
H   H36       1.0  0.19990  0.44010  0.54920  1.0000 0.1156573425
H   H37       1.0  0.55990  0.80010  0.45080  1.0000 0.1156573425
H   H38       1.0  0.80010  0.34930  0.24020  1.0000 0.1156573425
H   H39       1.0  0.34930  0.10910  0.54920  1.0000 0.1156573425
H   H40       1.0  0.10910  0.55990  0.75980  1.0000 0.1156573425
H   H41       1.0  0.24020  0.44010  0.89090  1.0000 0.1156573425
H   H42       1.0  0.55990  0.75980  0.10910  1.0000 0.1156573425
H   H43       1.0  0.44010  0.54920  0.19990  1.0000 0.1156573425
H   H44       1.0  0.65070  0.45080  0.89090  1.0000 0.1156573425
H   H45       1.0  0.34930  0.24020  0.80010  1.0000 0.1156573425
H   H46       1.0  0.75980  0.65070  0.19990  1.0000 0.1156573425
H   H47       1.0  0.54920  0.34930  0.10910  1.0000 0.1156573425
H   H48       1.0  0.45080  0.55990  0.80010  1.0000 0.1156573425
H   H49       1.0  0.06100  0.83530  0.57770  1.0000 0.1075637917
H   H50       1.0  0.83530  0.25760  0.77430  1.0000 0.1075637917
H   H51       1.0  0.25760  0.48330  0.42230  1.0000 0.1075637917
H   H52       1.0  0.48330  0.06100  0.22570  1.0000 0.1075637917
H   H53       1.0  0.93900  0.51670  0.77430  1.0000 0.1075637917
H   H54       1.0  0.51670  0.74240  0.57770  1.0000 0.1075637917
H   H55       1.0  0.74240  0.16470  0.22570  1.0000 0.1075637917
H   H56       1.0  0.16470  0.93900  0.42230  1.0000 0.1075637917
H   H57       1.0  0.57770  0.06100  0.83530  1.0000 0.1075637917
H   H58       1.0  0.06100  0.22570  0.48330  1.0000 0.1075637917
H   H59       1.0  0.22570  0.74240  0.16470  1.0000 0.1075637917
H   H60       1.0  0.74240  0.57770  0.51670  1.0000 0.1075637917
H   H61       1.0  0.42230  0.25760  0.48330  1.0000 0.1075637917
H   H62       1.0  0.25760  0.77430  0.83530  1.0000 0.1075637917
H   H63       1.0  0.77430  0.93900  0.51670  1.0000 0.1075637917
H   H64       1.0  0.93900  0.42230  0.16470  1.0000 0.1075637917
H   H65       1.0  0.83530  0.57770  0.06100  1.0000 0.1075637917
H   H66       1.0  0.42230  0.16470  0.93900  1.0000 0.1075637917
H   H67       1.0  0.57770  0.51670  0.74240  1.0000 0.1075637917
H   H68       1.0  0.22570  0.48330  0.06100  1.0000 0.1075637917
H   H69       1.0  0.77430  0.83530  0.25760  1.0000 0.1075637917
H   H70       1.0  0.16470  0.22570  0.74240  1.0000 0.1075637917
H   H71       1.0  0.51670  0.77430  0.93900  1.0000 0.1075637917
H   H72       1.0  0.48330  0.42230  0.25760  1.0000 0.1075637917
H   H73       1.0  0.93900  0.16470  0.42230  1.0000 0.1075637917
H   H74       1.0  0.16470  0.74240  0.22570  1.0000 0.1075637917
H   H75       1.0  0.74240  0.51670  0.57770  1.0000 0.1075637917
H   H76       1.0  0.51670  0.93900  0.77430  1.0000 0.1075637917
H   H77       1.0  0.06100  0.48330  0.22570  1.0000 0.1075637917
H   H78       1.0  0.48330  0.25760  0.42230  1.0000 0.1075637917
H   H79       1.0  0.25760  0.83530  0.77430  1.0000 0.1075637917
H   H80       1.0  0.83530  0.06100  0.57770  1.0000 0.1075637917
H   H81       1.0  0.42230  0.93900  0.16470  1.0000 0.1075637917
H   H82       1.0  0.93900  0.77430  0.51670  1.0000 0.1075637917
H   H83       1.0  0.77430  0.25760  0.83530  1.0000 0.1075637917
H   H84       1.0  0.25760  0.42230  0.48330  1.0000 0.1075637917
H   H85       1.0  0.57770  0.74240  0.51670  1.0000 0.1075637917
H   H86       1.0  0.74240  0.22570  0.16470  1.0000 0.1075637917
H   H87       1.0  0.22570  0.06100  0.48330  1.0000 0.1075637917
H   H88       1.0  0.06100  0.57770  0.83530  1.0000 0.1075637917
H   H89       1.0  0.16470  0.42230  0.93900  1.0000 0.1075637917
H   H90       1.0  0.57770  0.83530  0.06100  1.0000 0.1075637917
H   H91       1.0  0.42230  0.48330  0.25760  1.0000 0.1075637917
H   H92       1.0  0.77430  0.51670  0.93900  1.0000 0.1075637917
H   H93       1.0  0.22570  0.16470  0.74240  1.0000 0.1075637917
H   H94       1.0  0.83530  0.77430  0.25760  1.0000 0.1075637917
H   H95       1.0  0.48330  0.22570  0.06100  1.0000 0.1075637917
H   H96       1.0  0.51670  0.57770  0.74240  1.0000 0.1075637917
C   C1        1.0  0.00000  0.79690  0.43430  1.0000 0.2304369433
C   C2        1.0  0.79690  0.36260  0.79690  1.0000 0.2304369433
C   C3        1.0  0.36260  0.56570  0.56570  1.0000 0.2304369433
C   C4        1.0  0.56570  0.00000  0.20310  1.0000 0.2304369433
C   C5        1.0  0.00000  0.43430  0.79690  1.0000 0.2304369433
C   C6        1.0  0.43430  0.63740  0.43430  1.0000 0.2304369433
C   C7        1.0  0.63740  0.20310  0.20310  1.0000 0.2304369433
C   C8        1.0  0.20310  0.00000  0.56570  1.0000 0.2304369433
C   C9        1.0  0.43430  0.00000  0.79690  1.0000 0.2304369433
C   C10       1.0  0.00000  0.20310  0.56570  1.0000 0.2304369433
C   C11       1.0  0.20310  0.63740  0.20310  1.0000 0.2304369433
C   C12       1.0  0.63740  0.43430  0.43430  1.0000 0.2304369433
C   C13       1.0  0.56570  0.36260  0.56570  1.0000 0.2304369433
C   C14       1.0  0.36260  0.79690  0.79690  1.0000 0.2304369433
C   C15       1.0  0.79690  0.00000  0.43430  1.0000 0.2304369433
C   C16       1.0  0.00000  0.56570  0.20310  1.0000 0.2304369433
C   C17       1.0  0.79690  0.43430  0.00000  1.0000 0.2304369433
C   C18       1.0  0.56570  0.20310  0.00000  1.0000 0.2304369433
C   C19       1.0  0.43430  0.43430  0.63740  1.0000 0.2304369433
C   C20       1.0  0.20310  0.56570  0.00000  1.0000 0.2304369433
C   C21       1.0  0.79690  0.79690  0.36260  1.0000 0.2304369433
C   C22       1.0  0.20310  0.20310  0.63740  1.0000 0.2304369433
C   C23       1.0  0.43430  0.79690  0.00000  1.0000 0.2304369433
C   C24       1.0  0.56570  0.56570  0.36260  1.0000 0.2304369433
C   C25       1.0  0.25000  0.85690  0.60690  1.0000 0.2133172513
C   C26       1.0  0.85690  0.25000  0.60690  1.0000 0.2133172513
C   C27       1.0  0.25000  0.64310  0.39310  1.0000 0.2133172513
C   C28       1.0  0.64310  0.25000  0.39310  1.0000 0.2133172513
C   C29       1.0  0.75000  0.35690  0.60690  1.0000 0.2133172513
C   C30       1.0  0.35690  0.75000  0.60690  1.0000 0.2133172513
C   C31       1.0  0.75000  0.14310  0.39310  1.0000 0.2133172513
C   C32       1.0  0.14310  0.75000  0.39310  1.0000 0.2133172513
C   C33       1.0  0.60690  0.25000  0.85690  1.0000 0.2133172513
C   C34       1.0  0.25000  0.39310  0.64310  1.0000 0.2133172513
C   C35       1.0  0.39310  0.75000  0.14310  1.0000 0.2133172513
C   C36       1.0  0.75000  0.60690  0.35690  1.0000 0.2133172513
C   C37       1.0  0.39310  0.25000  0.64310  1.0000 0.2133172513
C   C38       1.0  0.25000  0.60690  0.85690  1.0000 0.2133172513
C   C39       1.0  0.60690  0.75000  0.35690  1.0000 0.2133172513
C   C40       1.0  0.75000  0.39310  0.14310  1.0000 0.2133172513
C   C41       1.0  0.85690  0.60690  0.25000  1.0000 0.2133172513
C   C42       1.0  0.39310  0.14310  0.75000  1.0000 0.2133172513
C   C43       1.0  0.60690  0.35690  0.75000  1.0000 0.2133172513
C   C44       1.0  0.39310  0.64310  0.25000  1.0000 0.2133172513
C   C45       1.0  0.60690  0.85690  0.25000  1.0000 0.2133172513
C   C46       1.0  0.14310  0.39310  0.75000  1.0000 0.2133172513
C   C47       1.0  0.35690  0.60690  0.75000  1.0000 0.2133172513
C   C48       1.0  0.64310  0.39310  0.25000  1.0000 0.2133172513
C   C49       1.0  0.15390  0.78550  0.57960  1.0000 0.0643168897
C   C50       1.0  0.78550  0.20590  0.63160  1.0000 0.0643168897
C   C51       1.0  0.20590  0.57430  0.42040  1.0000 0.0643168897
C   C52       1.0  0.57430  0.15390  0.36840  1.0000 0.0643168897
C   C53       1.0  0.84610  0.42570  0.63160  1.0000 0.0643168897
C   C54       1.0  0.42570  0.79410  0.57960  1.0000 0.0643168897
C   C55       1.0  0.79410  0.21450  0.36840  1.0000 0.0643168897
C   C56       1.0  0.21450  0.84610  0.42040  1.0000 0.0652180965
C   C57       1.0  0.57960  0.15390  0.78550  1.0000 0.0643168897
C   C58       1.0  0.15390  0.36840  0.57430  1.0000 0.0643168897
C   C59       1.0  0.36840  0.79410  0.21450  1.0000 0.0643168897
C   C60       1.0  0.79410  0.57960  0.42570  1.0000 0.0652180965
C   C61       1.0  0.42040  0.20590  0.57430  1.0000 0.0643168897
C   C62       1.0  0.20590  0.63160  0.78550  1.0000 0.0643168897
C   C63       1.0  0.63160  0.84610  0.42570  1.0000 0.0643168897
C   C64       1.0  0.84610  0.42040  0.21450  1.0000 0.0643168897
C   C65       1.0  0.78550  0.57960  0.15390  1.0000 0.0643168897
C   C66       1.0  0.42040  0.21450  0.84610  1.0000 0.0643168897
C   C67       1.0  0.57960  0.42570  0.79410  1.0000 0.0643168897
C   C68       1.0  0.36840  0.57430  0.15390  1.0000 0.0652180965
C   C69       1.0  0.63160  0.78550  0.20590  1.0000 0.0643168897
C   C70       1.0  0.21450  0.36840  0.79410  1.0000 0.0643168897
C   C71       1.0  0.42570  0.63160  0.84610  1.0000 0.0643168897
C   C72       1.0  0.57430  0.42040  0.20590  1.0000 0.0652180965
C   C73       1.0  0.84610  0.21450  0.42040  1.0000 0.0643168897
C   C74       1.0  0.21450  0.79410  0.36840  1.0000 0.0643168897
C   C75       1.0  0.79410  0.42570  0.57960  1.0000 0.0643168897
C   C76       1.0  0.42570  0.84610  0.63160  1.0000 0.0643168897
C   C77       1.0  0.15390  0.57430  0.36840  1.0000 0.0643168897
C   C78       1.0  0.57430  0.20590  0.42040  1.0000 0.0643168897
C   C79       1.0  0.20590  0.78550  0.63160  1.0000 0.0643168897
C   C80       1.0  0.78550  0.15390  0.57960  1.0000 0.0643168897
C   C81       1.0  0.42040  0.84610  0.21450  1.0000 0.0643168897
C   C82       1.0  0.84610  0.63160  0.42570  1.0000 0.0643168897
C   C83       1.0  0.63160  0.20590  0.78550  1.0000 0.0652180965
C   C84       1.0  0.20590  0.42040  0.57430  1.0000 0.0643168897
C   C85       1.0  0.57960  0.79410  0.42570  1.0000 0.0643168897
C   C86       1.0  0.79410  0.36840  0.21450  1.0000 0.0643168897
C   C87       1.0  0.36840  0.15390  0.57430  1.0000 0.0643168897
C   C88       1.0  0.15390  0.57960  0.78550  1.0000 0.0643168897
C   C89       1.0  0.21450  0.42040  0.84610  1.0000 0.0643168897
C   C90       1.0  0.57960  0.78550  0.15390  1.0000 0.0643168897
C   C91       1.0  0.42040  0.57430  0.20590  1.0000 0.0643168897
C   C92       1.0  0.63160  0.42570  0.84610  1.0000 0.0652180965
C   C93       1.0  0.36840  0.21450  0.79410  1.0000 0.0643168897
C   C94       1.0  0.78550  0.63160  0.20590  1.0000 0.0643168897
C   C95       1.0  0.57430  0.36840  0.15390  1.0000 0.0643168897
C   C96       1.0  0.42570  0.57960  0.79410  1.0000 0.0643168897
C   C97       1.0  0.03450  0.81970  0.53380  1.0000 0.0119611911
C   C98       1.0  0.81970  0.28590  0.78520  1.0000 0.0119611911
C   C99       1.0  0.28590  0.50070  0.46620  1.0000 0.0119611911
C   C100      1.0  0.50070  0.03450  0.21480  1.0000 0.0119611911
C   C101      1.0  0.96550  0.49930  0.78520  1.0000 0.0119611911
C   C102      1.0  0.49930  0.71410  0.53380  1.0000 0.0119611911
C   C103      1.0  0.71410  0.18030  0.21480  1.0000 0.0119611911
C   C104      1.0  0.18030  0.96550  0.46620  1.0000 0.0119611911
C   C105      1.0  0.53380  0.03450  0.81970  1.0000 0.0119611911
C   C106      1.0  0.03450  0.21480  0.50070  1.0000 0.0119611911
C   C107      1.0  0.21480  0.71410  0.18030  1.0000 0.0119611911
C   C108      1.0  0.71410  0.53380  0.49930  1.0000 0.0119611911
C   C109      1.0  0.46620  0.28590  0.50070  1.0000 0.0119611911
C   C110      1.0  0.28590  0.78520  0.81970  1.0000 0.0119611911
C   C111      1.0  0.78520  0.96550  0.49930  1.0000 0.0119611911
C   C112      1.0  0.96550  0.46620  0.18030  1.0000 0.0119611911
C   C113      1.0  0.81970  0.53380  0.03450  1.0000 0.0119611911
C   C114      1.0  0.46620  0.18030  0.96550  1.0000 0.0119611911
C   C115      1.0  0.53380  0.49930  0.71410  1.0000 0.0119611911
C   C116      1.0  0.21480  0.50070  0.03450  1.0000 0.0119611911
C   C117      1.0  0.78520  0.81970  0.28590  1.0000 0.0119611911
C   C118      1.0  0.18030  0.21480  0.71410  1.0000 0.0119611911
C   C119      1.0  0.49930  0.78520  0.96550  1.0000 0.0119611911
C   C120      1.0  0.50070  0.46620  0.28590  1.0000 0.0119611911
C   C121      1.0  0.96550  0.18030  0.46620  1.0000 0.0119611911
C   C122      1.0  0.18030  0.71410  0.21480  1.0000 0.0119611911
C   C123      1.0  0.71410  0.49930  0.53380  1.0000 0.0119611911
C   C124      1.0  0.49930  0.96550  0.78520  1.0000 0.0119611911
C   C125      1.0  0.03450  0.50070  0.21480  1.0000 0.0119611911
C   C126      1.0  0.50070  0.28590  0.46620  1.0000 0.0119611911
C   C127      1.0  0.28590  0.81970  0.78520  1.0000 0.0119611911
C   C128      1.0  0.81970  0.03450  0.53380  1.0000 0.0119611911
C   C129      1.0  0.46620  0.96550  0.18030  1.0000 0.0119611911
C   C130      1.0  0.96550  0.78520  0.49930  1.0000 0.0119611911
C   C131      1.0  0.78520  0.28590  0.81970  1.0000 0.0119611911
C   C132      1.0  0.28590  0.46620  0.50070  1.0000 0.0119611911
C   C133      1.0  0.53380  0.71410  0.49930  1.0000 0.0119611911
C   C134      1.0  0.71410  0.21480  0.18030  1.0000 0.0119611911
C   C135      1.0  0.21480  0.03450  0.50070  1.0000 0.0119611911
C   C136      1.0  0.03450  0.53380  0.81970  1.0000 0.0119611911
C   C137      1.0  0.18030  0.46620  0.96550  1.0000 0.0119611911
C   C138      1.0  0.53380  0.81970  0.03450  1.0000 0.0119611911
C   C139      1.0  0.46620  0.50070  0.28590  1.0000 0.0119611911
C   C140      1.0  0.78520  0.49930  0.96550  1.0000 0.0119611911
C   C141      1.0  0.21480  0.18030  0.71410  1.0000 0.0119611911
C   C142      1.0  0.81970  0.78520  0.28590  1.0000 0.0119611911
C   C143      1.0  0.50070  0.21480  0.03450  1.0000 0.0119611911
C   C144      1.0  0.49930  0.53380  0.71410  1.0000 0.0119611911
N   N1        1.0  0.18490  0.82850  0.56840  1.0000 -0.3000431416
N   N2        1.0  0.82850  0.26010  0.64360  1.0000 -0.3000431416
N   N3        1.0  0.26010  0.61650  0.43160  1.0000 -0.3000431416
N   N4        1.0  0.61650  0.18490  0.35640  1.0000 -0.3000431416
N   N5        1.0  0.81510  0.38350  0.64360  1.0000 -0.3000431416
N   N6        1.0  0.38350  0.73990  0.56840  1.0000 -0.3000431416
N   N7        1.0  0.73990  0.17150  0.35640  1.0000 -0.3000431416
N   N8        1.0  0.17150  0.81510  0.43160  1.0000 -0.3000431416
N   N9        1.0  0.56840  0.18490  0.82850  1.0000 -0.3000431416
N   N10       1.0  0.18490  0.35640  0.61650  1.0000 -0.3000431416
N   N11       1.0  0.35640  0.73990  0.17150  1.0000 -0.3000431416
N   N12       1.0  0.73990  0.56840  0.38350  1.0000 -0.3000431416
N   N13       1.0  0.43160  0.26010  0.61650  1.0000 -0.3000431416
N   N14       1.0  0.26010  0.64360  0.82850  1.0000 -0.3000431416
N   N15       1.0  0.64360  0.81510  0.38350  1.0000 -0.3000431416
N   N16       1.0  0.81510  0.43160  0.17150  1.0000 -0.3000431416
N   N17       1.0  0.82850  0.56840  0.18490  1.0000 -0.3000431416
N   N18       1.0  0.43160  0.17150  0.81510  1.0000 -0.3000431416
N   N19       1.0  0.56840  0.38350  0.73990  1.0000 -0.3000431416
N   N20       1.0  0.35640  0.61650  0.18490  1.0000 -0.3000431416
N   N21       1.0  0.64360  0.82850  0.26010  1.0000 -0.3000431416
N   N22       1.0  0.17150  0.35640  0.73990  1.0000 -0.3000431416
N   N23       1.0  0.38350  0.64360  0.81510  1.0000 -0.3000431416
N   N24       1.0  0.61650  0.43160  0.26010  1.0000 -0.3000431416
N   N25       1.0  0.81510  0.17150  0.43160  1.0000 -0.3000431416
N   N26       1.0  0.17150  0.73990  0.35640  1.0000 -0.3000431416
N   N27       1.0  0.73990  0.38350  0.56840  1.0000 -0.3000431416
N   N28       1.0  0.38350  0.81510  0.64360  1.0000 -0.3000431416
N   N29       1.0  0.18490  0.61650  0.35640  1.0000 -0.3000431416
N   N30       1.0  0.61650  0.26010  0.43160  1.0000 -0.3000431416
N   N31       1.0  0.26010  0.82850  0.64360  1.0000 -0.3000431416
N   N32       1.0  0.82850  0.18490  0.56840  1.0000 -0.3000431416
N   N33       1.0  0.43160  0.81510  0.17150  1.0000 -0.3000431416
N   N34       1.0  0.81510  0.64360  0.38350  1.0000 -0.3000431416
N   N35       1.0  0.64360  0.26010  0.82850  1.0000 -0.3000431416
N   N36       1.0  0.26010  0.43160  0.61650  1.0000 -0.3000431416
N   N37       1.0  0.56840  0.73990  0.38350  1.0000 -0.3000431416
N   N38       1.0  0.73990  0.35640  0.17150  1.0000 -0.3000431416
N   N39       1.0  0.35640  0.18490  0.61650  1.0000 -0.3000431416
N   N40       1.0  0.18490  0.56840  0.82850  1.0000 -0.3000431416
N   N41       1.0  0.17150  0.43160  0.81510  1.0000 -0.3000431416
N   N42       1.0  0.56840  0.82850  0.18490  1.0000 -0.3000431416
N   N43       1.0  0.43160  0.61650  0.26010  1.0000 -0.3000431416
N   N44       1.0  0.64360  0.38350  0.81510  1.0000 -0.3000431416
N   N45       1.0  0.35640  0.17150  0.73990  1.0000 -0.3000431416
N   N46       1.0  0.82850  0.64360  0.26010  1.0000 -0.3000431416
N   N47       1.0  0.61650  0.35640  0.18490  1.0000 -0.3000431416
N   N48       1.0  0.38350  0.56840  0.73990  1.0000 -0.3000431416
N   N49       1.0  0.00000  0.79550  0.37750  1.0000 0.461445825
N   N50       1.0  0.79550  0.41800  0.79550  1.0000 0.461445825
N   N51       1.0  0.41800  0.62250  0.62250  1.0000 0.461445825
N   N52       1.0  0.62250  0.00000  0.20450  1.0000 0.461445825
N   N53       1.0  0.00000  0.37750  0.79550  1.0000 0.461445825
N   N54       1.0  0.37750  0.58200  0.37750  1.0000 0.461445825
N   N55       1.0  0.58200  0.20450  0.20450  1.0000 0.461445825
N   N56       1.0  0.20450  0.00000  0.62250  1.0000 0.461445825
N   N57       1.0  0.37750  0.00000  0.79550  1.0000 0.461445825
N   N58       1.0  0.00000  0.20450  0.62250  1.0000 0.461445825
N   N59       1.0  0.20450  0.58200  0.20450  1.0000 0.461445825
N   N60       1.0  0.58200  0.37750  0.37750  1.0000 0.461445825
N   N61       1.0  0.62250  0.41800  0.62250  1.0000 0.461445825
N   N62       1.0  0.41800  0.79550  0.79550  1.0000 0.461445825
N   N63       1.0  0.79550  0.00000  0.37750  1.0000 0.461445825
N   N64       1.0  0.00000  0.62250  0.20450  1.0000 0.461445825
N   N65       1.0  0.79550  0.37750  0.00000  1.0000 0.461445825
N   N66       1.0  0.62250  0.20450  0.00000  1.0000 0.461445825
N   N67       1.0  0.37750  0.37750  0.58200  1.0000 0.461445825
N   N68       1.0  0.20450  0.62250  0.00000  1.0000 0.461445825
N   N69       1.0  0.79550  0.79550  0.41800  1.0000 0.461445825
N   N70       1.0  0.20450  0.20450  0.58200  1.0000 0.461445825
N   N71       1.0  0.37750  0.79550  0.00000  1.0000 0.461445825
N   N72       1.0  0.62250  0.62250  0.41800  1.0000 0.461445825
N   N73       1.0  0.05520  0.82620  0.49220  1.0000 -0.3294174669
N   N74       1.0  0.82620  0.33400  0.77100  1.0000 -0.3294174669
N   N75       1.0  0.33400  0.56300  0.50780  1.0000 -0.3294174669
N   N76       1.0  0.56300  0.05520  0.22900  1.0000 -0.3294174669
N   N77       1.0  0.94480  0.43700  0.77100  1.0000 -0.3294174669
N   N78       1.0  0.43700  0.66600  0.49220  1.0000 -0.3294174669
N   N79       1.0  0.66600  0.17380  0.22900  1.0000 -0.3294174669
N   N80       1.0  0.17380  0.94480  0.50780  1.0000 -0.3294174669
N   N81       1.0  0.49220  0.05520  0.82620  1.0000 -0.3294174669
N   N82       1.0  0.05520  0.22900  0.56300  1.0000 -0.3294174669
N   N83       1.0  0.22900  0.66600  0.17380  1.0000 -0.3294174669
N   N84       1.0  0.66600  0.49220  0.43700  1.0000 -0.3294174669
N   N85       1.0  0.50780  0.33400  0.56300  1.0000 -0.3294174669
N   N86       1.0  0.33400  0.77100  0.82620  1.0000 -0.3294174669
N   N87       1.0  0.77100  0.94480  0.43700  1.0000 -0.3294174669
N   N88       1.0  0.94480  0.50780  0.17380  1.0000 -0.3294174669
N   N89       1.0  0.82620  0.49220  0.05520  1.0000 -0.3294174669
N   N90       1.0  0.50780  0.17380  0.94480  1.0000 -0.3294174669
N   N91       1.0  0.49220  0.43700  0.66600  1.0000 -0.3294174669
N   N92       1.0  0.22900  0.56300  0.05520  1.0000 -0.3294174669
N   N93       1.0  0.77100  0.82620  0.33400  1.0000 -0.3294174669
N   N94       1.0  0.17380  0.22900  0.66600  1.0000 -0.3294174669
N   N95       1.0  0.43700  0.77100  0.94480  1.0000 -0.3294174669
N   N96       1.0  0.56300  0.50780  0.33400  1.0000 -0.3294174669
N   N97       1.0  0.94480  0.17380  0.50780  1.0000 -0.3294174669
N   N98       1.0  0.17380  0.66600  0.22900  1.0000 -0.3294174669
N   N99       1.0  0.66600  0.43700  0.49220  1.0000 -0.3294174669
N   N100      1.0  0.43700  0.94480  0.77100  1.0000 -0.3294174669
N   N101      1.0  0.05520  0.56300  0.22900  1.0000 -0.3294174669
N   N102      1.0  0.56300  0.33400  0.50780  1.0000 -0.3294174669
N   N103      1.0  0.33400  0.82620  0.77100  1.0000 -0.3294174669
N   N104      1.0  0.82620  0.05520  0.49220  1.0000 -0.3294174669
N   N105      1.0  0.50780  0.94480  0.17380  1.0000 -0.3294174669
N   N106      1.0  0.94480  0.77100  0.43700  1.0000 -0.3294174669
N   N107      1.0  0.77100  0.33400  0.82620  1.0000 -0.3294174669
N   N108      1.0  0.33400  0.50780  0.56300  1.0000 -0.3294174669
N   N109      1.0  0.49220  0.66600  0.43700  1.0000 -0.3294174669
N   N110      1.0  0.66600  0.22900  0.17380  1.0000 -0.3294174669
N   N111      1.0  0.22900  0.05520  0.56300  1.0000 -0.3294174669
N   N112      1.0  0.05520  0.49220  0.82620  1.0000 -0.3294174669
N   N113      1.0  0.17380  0.50780  0.94480  1.0000 -0.3294174669
N   N114      1.0  0.49220  0.82620  0.05520  1.0000 -0.3294174669
N   N115      1.0  0.50780  0.56300  0.33400  1.0000 -0.3294174669
N   N116      1.0  0.77100  0.43700  0.94480  1.0000 -0.3294174669
N   N117      1.0  0.22900  0.17380  0.66600  1.0000 -0.3294174669
N   N118      1.0  0.82620  0.77100  0.33400  1.0000 -0.3294174669
N   N119      1.0  0.56300  0.22900  0.05520  1.0000 -0.3294174669
N   N120      1.0  0.43700  0.49220  0.66600  1.0000 -0.3294174669
N   N121      1.0  0.29540  0.90310  0.60770  1.0000 0.4064323107
N   N122      1.0  0.90310  0.29540  0.60770  1.0000 0.4064323107
N   N123      1.0  0.29540  0.68770  0.39230  1.0000 0.4064323107
N   N124      1.0  0.68770  0.29540  0.39230  1.0000 0.4047459642
N   N125      1.0  0.70460  0.31230  0.60770  1.0000 0.4064323107
N   N126      1.0  0.31230  0.70460  0.60770  1.0000 0.4064323107
N   N127      1.0  0.70460  0.09690  0.39230  1.0000 0.4064323107
N   N128      1.0  0.09690  0.70460  0.39230  1.0000 0.4064323107
N   N129      1.0  0.60770  0.29540  0.90310  1.0000 0.4064323107
N   N130      1.0  0.29540  0.39230  0.68770  1.0000 0.4064323107
N   N131      1.0  0.39230  0.70460  0.09690  1.0000 0.4064323107
N   N132      1.0  0.70460  0.60770  0.31230  1.0000 0.4064323107
N   N133      1.0  0.39230  0.29540  0.68770  1.0000 0.4064323107
N   N134      1.0  0.29540  0.60770  0.90310  1.0000 0.4064323107
N   N135      1.0  0.60770  0.70460  0.31230  1.0000 0.4064323107
N   N136      1.0  0.70460  0.39230  0.09690  1.0000 0.4064323107
N   N137      1.0  0.90310  0.60770  0.29540  1.0000 0.4064323107
N   N138      1.0  0.39230  0.09690  0.70460  1.0000 0.4047459642
N   N139      1.0  0.60770  0.31230  0.70460  1.0000 0.4047459642
N   N140      1.0  0.39230  0.68770  0.29540  1.0000 0.4064323107
N   N141      1.0  0.60770  0.90310  0.29540  1.0000 0.4064323107
N   N142      1.0  0.09690  0.39230  0.70460  1.0000 0.4047459642
N   N143      1.0  0.31230  0.60770  0.70460  1.0000 0.4064323107
N   N144      1.0  0.68770  0.39230  0.29540  1.0000 0.4064323107
O   O1        1.0  0.28090  0.92260  0.56870  1.0000 -0.3294174669
O   O2        1.0  0.92260  0.35390  0.64170  1.0000 -0.3294174669
O   O3        1.0  0.35390  0.71220  0.43130  1.0000 -0.3294174669
O   O4        1.0  0.71220  0.28090  0.35830  1.0000 -0.3294174669
O   O5        1.0  0.71910  0.28780  0.64170  1.0000 -0.3294174669
O   O6        1.0  0.28780  0.64610  0.56870  1.0000 -0.3294174669
O   O7        1.0  0.64610  0.07740  0.35830  1.0000 -0.3294174669
O   O8        1.0  0.07740  0.71910  0.43130  1.0000 -0.3294174669
O   O9        1.0  0.56870  0.28090  0.92260  1.0000 -0.3294174669
O   O10       1.0  0.28090  0.35830  0.71220  1.0000 -0.3294174669
O   O11       1.0  0.35830  0.64610  0.07740  1.0000 -0.3294174669
O   O12       1.0  0.64610  0.56870  0.28780  1.0000 -0.3294174669
O   O13       1.0  0.43130  0.35390  0.71220  1.0000 -0.3294174669
O   O14       1.0  0.35390  0.64170  0.92260  1.0000 -0.3294174669
O   O15       1.0  0.64170  0.71910  0.28780  1.0000 -0.3294174669
O   O16       1.0  0.71910  0.43130  0.07740  1.0000 -0.3294174669
O   O17       1.0  0.92260  0.56870  0.28090  1.0000 -0.3294174669
O   O18       1.0  0.43130  0.07740  0.71910  1.0000 -0.3294174669
O   O19       1.0  0.56870  0.28780  0.64610  1.0000 -0.3294174669
O   O20       1.0  0.35830  0.71220  0.28090  1.0000 -0.3294174669
O   O21       1.0  0.64170  0.92260  0.35390  1.0000 -0.3294174669
O   O22       1.0  0.07740  0.35830  0.64610  1.0000 -0.3294174669
O   O23       1.0  0.28780  0.64170  0.71910  1.0000 -0.3294174669
O   O24       1.0  0.71220  0.43130  0.35390  1.0000 -0.3294174669
O   O25       1.0  0.71910  0.07740  0.43130  1.0000 -0.3249126693
O   O26       1.0  0.07740  0.64610  0.35830  1.0000 -0.3294174669
O   O27       1.0  0.64610  0.28780  0.56870  1.0000 -0.3294174669
O   O28       1.0  0.28780  0.71910  0.64170  1.0000 -0.3294174669
O   O29       1.0  0.28090  0.71220  0.35830  1.0000 -0.3294174669
O   O30       1.0  0.71220  0.35390  0.43130  1.0000 -0.3294174669
O   O31       1.0  0.35390  0.92260  0.64170  1.0000 -0.3294174669
O   O32       1.0  0.92260  0.28090  0.56870  1.0000 -0.3294174669
O   O33       1.0  0.43130  0.71910  0.07740  1.0000 -0.3294174669
O   O34       1.0  0.71910  0.64170  0.28780  1.0000 -0.3294174669
O   O35       1.0  0.64170  0.35390  0.92260  1.0000 -0.3294174669
O   O36       1.0  0.35390  0.43130  0.71220  1.0000 -0.3294174669
O   O37       1.0  0.56870  0.64610  0.28780  1.0000 -0.3294174669
O   O38       1.0  0.64610  0.35830  0.07740  1.0000 -0.3294174669
O   O39       1.0  0.35830  0.28090  0.71220  1.0000 -0.3294174669
O   O40       1.0  0.28090  0.56870  0.92260  1.0000 -0.3294174669
O   O41       1.0  0.07740  0.43130  0.71910  1.0000 -0.3294174669
O   O42       1.0  0.56870  0.92260  0.28090  1.0000 -0.3294174669
O   O43       1.0  0.43130  0.71220  0.35390  1.0000 -0.3294174669
O   O44       1.0  0.64170  0.28780  0.71910  1.0000 -0.3294174669
O   O45       1.0  0.35830  0.07740  0.64610  1.0000 -0.3294174669
O   O46       1.0  0.92260  0.64170  0.35390  1.0000 -0.3294174669
O   O47       1.0  0.71220  0.35830  0.28090  1.0000 -0.3294174669
O   O48       1.0  0.28780  0.56870  0.64610  1.0000 -0.3294174669
O   O49       1.0  0.94730  0.76760  0.32790  1.0000 -0.3450606187
O   O50       1.0  0.76760  0.43970  0.82030  1.0000 -0.3441440444
O   O51       1.0  0.43970  0.61940  0.67210  1.0000 -0.3441440444
O   O52       1.0  0.61940  0.94730  0.17970  1.0000 -0.3441440444
O   O53       1.0  0.05270  0.38060  0.82030  1.0000 -0.3441440444
O   O54       1.0  0.38060  0.56030  0.32790  1.0000 -0.3441440444
O   O55       1.0  0.56030  0.23240  0.17970  1.0000 -0.3441440444
O   O56       1.0  0.23240  0.05270  0.67210  1.0000 -0.3441440444
O   O57       1.0  0.32790  0.94730  0.76760  1.0000 -0.3441440444
O   O58       1.0  0.94730  0.17970  0.61940  1.0000 -0.3441440444
O   O59       1.0  0.17970  0.56030  0.23240  1.0000 -0.3441440444
O   O60       1.0  0.56030  0.32790  0.38060  1.0000 -0.3441440444
O   O61       1.0  0.67210  0.43970  0.61940  1.0000 -0.3441440444
O   O62       1.0  0.43970  0.82030  0.76760  1.0000 -0.3441440444
O   O63       1.0  0.82030  0.05270  0.38060  1.0000 -0.3441440444
O   O64       1.0  0.05270  0.67210  0.23240  1.0000 -0.3441440444
O   O65       1.0  0.76760  0.32790  0.94730  1.0000 -0.3441440444
O   O66       1.0  0.67210  0.23240  0.05270  1.0000 -0.3441440444
O   O67       1.0  0.32790  0.38060  0.56030  1.0000 -0.3441440444
O   O68       1.0  0.17970  0.61940  0.94730  1.0000 -0.3441440444
O   O69       1.0  0.82030  0.76760  0.43970  1.0000 -0.3441440444
O   O70       1.0  0.23240  0.17970  0.56030  1.0000 -0.3441440444
O   O71       1.0  0.38060  0.82030  0.05270  1.0000 -0.3441440444
O   O72       1.0  0.61940  0.67210  0.43970  1.0000 -0.3441440444
O   O73       1.0  0.05270  0.23240  0.67210  1.0000 -0.3441440444
O   O74       1.0  0.23240  0.56030  0.17970  1.0000 -0.3441440444
O   O75       1.0  0.56030  0.38060  0.32790  1.0000 -0.3441440444
O   O76       1.0  0.38060  0.05270  0.82030  1.0000 -0.3441440444
O   O77       1.0  0.94730  0.61940  0.17970  1.0000 -0.3450606187
O   O78       1.0  0.61940  0.43970  0.67210  1.0000 -0.3441440444
O   O79       1.0  0.43970  0.76760  0.82030  1.0000 -0.3441440444
O   O80       1.0  0.76760  0.94730  0.32790  1.0000 -0.3441440444
O   O81       1.0  0.67210  0.05270  0.23240  1.0000 -0.3441440444
O   O82       1.0  0.05270  0.82030  0.38060  1.0000 -0.3441440444
O   O83       1.0  0.82030  0.43970  0.76760  1.0000 -0.3441440444
O   O84       1.0  0.43970  0.67210  0.61940  1.0000 -0.3441440444
O   O85       1.0  0.32790  0.56030  0.38060  1.0000 -0.3441440444
O   O86       1.0  0.56030  0.17970  0.23240  1.0000 -0.3441440444
O   O87       1.0  0.17970  0.94730  0.61940  1.0000 -0.3441440444
O   O88       1.0  0.94730  0.32790  0.76760  1.0000 -0.3441440444
O   O89       1.0  0.23240  0.67210  0.05270  1.0000 -0.3441440444
O   O90       1.0  0.32790  0.76760  0.94730  1.0000 -0.3441440444
O   O91       1.0  0.67210  0.61940  0.43970  1.0000 -0.3441440444
O   O92       1.0  0.82030  0.38060  0.05270  1.0000 -0.3441440444
O   O93       1.0  0.17970  0.23240  0.56030  1.0000 -0.3441440444
O   O94       1.0  0.76760  0.82030  0.43970  1.0000 -0.3441440444
O   O95       1.0  0.61940  0.17970  0.94730  1.0000 -0.3441440444
O   O96       1.0  0.38060  0.32790  0.56030  1.0000 -0.3441440444
