# DDEC6 charges by PACMAN v1.1 (https://github.com/mtap-research/PACMAN-charge/)
data_2016[Lu][mog]3[FSR]1
_chemical_formula_sum              "Lu2 H26 C24 N6 O16"
_cell_length_a       10.0669
_cell_length_b       10.3562
_cell_length_c       10.538
_cell_angle_alpha    103.158
_cell_angle_beta     115.524
_cell_angle_gamma    92.546

_symmetry_space_group_name_H-M    "P 1"
_symmetry_Int_Tables_number       1

loop_
  _symmetry_equiv_pos_as_xyz
  'x, y, z'

loop_
  _atom_site_type_symbol
  _atom_site_label
  _atom_site_symmetry_multiplicity
  _atom_site_fract_x
  _atom_site_fract_y
  _atom_site_fract_z
  _atom_site_occupancy
  _atom_site_charge
Lu  Lu1       1.0  0.47493  0.23375  0.00334  1.0000 1.5625166103
Lu  Lu2       1.0  0.52507  0.76625  0.99666  1.0000 1.5625166103
H   H1        1.0  0.42710  0.41750  0.82750  1.0000 0.4114239916
H   H2        1.0  0.57290  0.58250  0.17250  1.0000 0.4114239916
H   H3        1.0  0.47060  0.28690  0.74480  1.0000 0.4163052245
H   H4        1.0  0.52940  0.71310  0.25520  1.0000 0.4163052245
H   H5        1.0  0.31480  0.99320  0.81770  1.0000 0.3964488908
H   H6        1.0  0.68520  0.00680  0.18230  1.0000 0.3964488908
H   H7        1.0  0.47050  0.05080  0.82410  1.0000 0.3690501257
H   H8        1.0  0.52950  0.94920  0.17590  1.0000 0.3690501257
H   H9        1.0  0.19780  0.16960  0.15370  1.0000 0.1304232284
H   H10       1.0  0.80220  0.83040  0.84630  1.0000 0.1304232284
H   H11       1.0  0.24660  0.60080  0.14360  1.0000 0.1304232284
H   H12       1.0  0.75340  0.39920  0.85640  1.0000 0.1304232284
H   H13       1.0  0.91330  0.57080  0.28830  1.0000 0.1219092413
H   H14       1.0  0.08670  0.42920  0.71170  1.0000 0.1219092413
H   H15       1.0  0.96110  0.70530  0.78280  1.0000 0.2911011829
H   H16       1.0  0.03890  0.29470  0.21720  1.0000 0.2911011829
H   H17       1.0  0.12440  0.75330  0.84790  1.0000 0.2816609099
H   H18       1.0  0.87560  0.24670  0.15210  1.0000 0.2816609099
H   H19       1.0  0.83790  0.20040  0.74880  1.0000 0.2816609099
H   H20       1.0  0.16210  0.79960  0.25120  1.0000 0.2816609099
H   H21       1.0  0.99970  0.19610  0.79650  1.0000 0.2911011829
H   H22       1.0  0.00030  0.80390  0.20350  1.0000 0.2911011829
H   H23       1.0  0.73910  0.26080  0.45280  1.0000 0.2954377934
H   H24       1.0  0.26090  0.73920  0.54720  1.0000 0.2954377934
H   H25       1.0  0.85890  0.27450  0.60310  1.0000 0.2637489542
H   H26       1.0  0.14110  0.72550  0.39690  1.0000 0.2637489542
C   C1        1.0  0.11630  0.43260  0.99960  1.0000 -0.1102187754
C   C2        1.0  0.88370  0.56740  0.00040  1.0000 -0.1102187754
C   C3        1.0  0.71740  0.37480  0.24810  1.0000 0.55105872
C   C4        1.0  0.28260  0.62520  0.75190  1.0000 0.55105872
C   C5        1.0  0.29630  0.97760  0.03560  1.0000 0.5851598188
C   C6        1.0  0.70370  0.02240  0.96440  1.0000 0.5851598188
C   C7        1.0  0.11790  0.10110  0.09080  1.0000 -0.1900588505
C   C8        1.0  0.88210  0.89890  0.90920  1.0000 -0.1900588505
C   C9        1.0  0.14340  0.99010  0.01690  1.0000 -0.1265333229
C   C10       1.0  0.85660  0.00990  0.98310  1.0000 -0.1265333229
C   C11       1.0  0.96660  0.37420  0.90350  1.0000 0.2209722801
C   C12       1.0  0.03340  0.62580  0.09650  1.0000 0.2209722801
C   C13       1.0  0.86380  0.44080  0.38100  1.0000 -0.1102187754
C   C14       1.0  0.13620  0.55920  0.61900  1.0000 -0.1102187754
C   C15       1.0  0.14790  0.55850  0.08800  1.0000 -0.1900588505
C   C16       1.0  0.85210  0.44150  0.91200  1.0000 -0.1900588505
C   C17       1.0  0.02260  0.88160  0.92250  1.0000 0.2456289335
C   C18       1.0  0.97740  0.11840  0.07750  1.0000 0.2456289335
C   C19       1.0  0.94750  0.54140  0.37230  1.0000 -0.2144427643
C   C20       1.0  0.05250  0.45860  0.62770  1.0000 -0.2144427643
C   C21       1.0  0.91270  0.39890  0.50750  1.0000 0.2343989267
C   C22       1.0  0.08730  0.60110  0.49250  1.0000 0.2343989267
C   C23       1.0  0.23700  0.36040  0.99300  1.0000 0.55105872
C   C24       1.0  0.76300  0.63960  0.00700  1.0000 0.55105872
N   N1        1.0  0.03790  0.76580  0.84100  1.0000 -0.5598182277
N   N2        1.0  0.96210  0.23420  0.15900  1.0000 -0.5598182277
N   N3        1.0  0.93000  0.23800  0.80200  1.0000 -0.6141356424
N   N4        1.0  0.07000  0.76200  0.19800  1.0000 -0.6141356424
N   N5        1.0  0.82550  0.29820  0.52320  1.0000 -0.6159785584
N   N6        1.0  0.17450  0.70180  0.47680  1.0000 -0.6159785584
O   O1        1.0  0.37240  0.40260  0.09800  1.0000 -0.5764336781
O   O2        1.0  0.62760  0.59740  0.90200  1.0000 -0.5764336781
O   O3        1.0  0.67880  0.41230  0.13780  1.0000 -0.5187408522
O   O4        1.0  0.32120  0.58770  0.86220  1.0000 -0.5187408522
O   O5        1.0  0.39420  0.08850  0.08640  1.0000 -0.6454605953
O   O6        1.0  0.60580  0.91150  0.91360  1.0000 -0.6454605953
O   O7        1.0  0.22320  0.26140  0.89830  1.0000 -0.4898695544
O   O8        1.0  0.77680  0.73860  0.10170  1.0000 -0.4898695544
O   O9        1.0  0.47660  0.33640  0.84110  1.0000 -0.7724497513
O   O10       1.0  0.52340  0.66360  0.15890  1.0000 -0.7724497513
O   O11       1.0  0.33040  0.86320  0.00090  1.0000 -0.6012774006
O   O12       1.0  0.66960  0.13680  0.99910  1.0000 -0.6012774006
O   O13       1.0  0.63790  0.27550  0.25060  1.0000 -0.5509609774
O   O14       1.0  0.36210  0.72450  0.74940  1.0000 -0.5509609774
O   O15       1.0  0.36190  0.05810  0.78560  1.0000 -0.7448322967
O   O16       1.0  0.63810  0.94190  0.21440  1.0000 -0.7448322967
