# DDEC6 charges by PACMAN v1.1 (https://github.com/mtap-research/PACMAN-charge/)
data_2016[Zn][cds]3[FSR]2
_chemical_formula_sum              "Zn2 H44 C28 N8 O4"
_cell_length_a       9.5463
_cell_length_b       9.5463
_cell_length_c       18.562
_cell_angle_alpha    86.1887
_cell_angle_beta     93.8113
_cell_angle_gamma    59.2233

_symmetry_space_group_name_H-M    "P 1"
_symmetry_Int_Tables_number       1

loop_
  _symmetry_equiv_pos_as_xyz
  'x, y, z'

loop_
  _atom_site_type_symbol
  _atom_site_label
  _atom_site_symmetry_multiplicity
  _atom_site_fract_x
  _atom_site_fract_y
  _atom_site_fract_z
  _atom_site_occupancy
  _atom_site_charge
Zn  Zn1       1.0  0.62493  0.30133  0.01679  1.0000 0.6314565121
Zn  Zn2       1.0  0.69867  0.37507  0.51679  1.0000 0.6314565121
H   H1        1.0  0.36500  0.47140  0.87380  1.0000 0.0925402695
H   H2        1.0  0.52860  0.63500  0.37380  1.0000 0.0925402695
H   H3        1.0  0.42740  0.32480  0.82630  1.0000 0.107755115
H   H4        1.0  0.67520  0.57260  0.32630  1.0000 0.107755115
H   H5        1.0  0.44100  0.15180  0.92520  1.0000 0.1012069326
H   H6        1.0  0.84820  0.55900  0.42520  1.0000 0.1012069326
H   H7        1.0  0.26200  0.30480  0.90920  1.0000 0.1012069326
H   H8        1.0  0.69520  0.73800  0.40920  1.0000 0.1012069326
H   H9        1.0  0.43820  0.08940  0.05050  1.0000 0.107755115
H   H10       1.0  0.91060  0.56180  0.55050  1.0000 0.107755115
H   H11       1.0  0.37110  0.22830  0.10180  1.0000 0.1012069326
H   H12       1.0  0.77170  0.62890  0.60180  1.0000 0.1012069326
H   H13       1.0  0.24370  0.02390  0.99420  1.0000 0.1209364354
H   H14       1.0  0.97610  0.75630  0.49420  1.0000 0.1209364354
H   H15       1.0  0.98490  0.06250  0.98150  1.0000 0.0712315842
H   H16       1.0  0.93750  0.01510  0.48150  1.0000 0.0712315842
H   H17       1.0  0.06270  0.44210  0.08160  1.0000 0.1209364354
H   H18       1.0  0.55790  0.93730  0.58160  1.0000 0.1209364354
H   H19       1.0  0.81060  0.47060  0.06490  1.0000 0.0925402695
H   H20       1.0  0.52940  0.18940  0.56490  1.0000 0.0925402695
H   H21       1.0  0.59060  0.51320  0.86910  1.0000 0.0925402695
H   H22       1.0  0.48680  0.40940  0.36910  1.0000 0.0925402695
H   H23       1.0  0.77170  0.36470  0.88260  1.0000 0.107755115
H   H24       1.0  0.63530  0.22830  0.38260  1.0000 0.107755115
H   H25       1.0  0.50980  0.63020  0.74870  1.0000 0.1209364354
H   H26       1.0  0.36980  0.49020  0.24870  1.0000 0.1209364354
H   H27       1.0  0.52170  0.61390  0.62700  1.0000 0.0827454376
H   H28       1.0  0.38610  0.47830  0.12700  1.0000 0.0827454376
H   H29       1.0  0.81670  0.14850  0.78290  1.0000 0.1209364354
H   H30       1.0  0.85150  0.18330  0.28290  1.0000 0.1209364354
H   H31       1.0  0.83180  0.14620  0.66060  1.0000 0.0827454376
H   H32       1.0  0.85380  0.16820  0.16060  1.0000 0.0827454376
H   H33       1.0  0.67120  0.19460  0.89140  1.0000 0.2181498064
H   H34       1.0  0.80540  0.32880  0.39140  1.0000 0.2181498064
H   H35       1.0  0.30300  0.41400  0.00180  1.0000 0.2181498064
H   H36       1.0  0.58600  0.69700  0.50180  1.0000 0.2181498064
H   H37       1.0  0.51160  0.60840  0.96540  1.0000 0.2554713367
H   H38       1.0  0.39160  0.48840  0.46540  1.0000 0.2554713367
H   H39       1.0  0.38620  0.61140  0.00020  1.0000 0.2470584094
H   H40       1.0  0.38860  0.61380  0.50020  1.0000 0.2470584094
H   H41       1.0  0.78750  0.99570  0.00000  1.0000 0.2470584094
H   H42       1.0  0.00430  0.21250  0.50000  1.0000 0.2470584094
H   H43       1.0  0.80750  0.00230  0.07370  1.0000 0.2653248339
H   H44       1.0  0.99770  0.19250  0.57370  1.0000 0.2653248339
C   C1        1.0  0.43400  0.35320  0.87510  1.0000 -0.1339781293
C   C2        1.0  0.64680  0.56600  0.37510  1.0000 -0.1339781293
C   C3        1.0  0.37480  0.26960  0.92590  1.0000 -0.1225488716
C   C4        1.0  0.73040  0.62520  0.42590  1.0000 -0.1225488716
C   C5        1.0  0.35630  0.20350  0.05300  1.0000 -0.1744684995
C   C6        1.0  0.79650  0.64370  0.55300  1.0000 -0.1751457722
C   C7        1.0  0.18570  0.22630  0.03940  1.0000 0.1266207575
C   C8        1.0  0.77370  0.81430  0.53940  1.0000 0.1266207575
C   C9        1.0  0.15730  0.11690  0.00950  1.0000 -0.2184354187
C   C10       1.0  0.88310  0.84270  0.50950  1.0000 -0.2184354187
C   C11       1.0  0.99980  0.14160  0.00140  1.0000 -0.0010470836
C   C12       1.0  0.85840  0.00020  0.50140  1.0000 -0.0010470836
C   C13       1.0  0.05070  0.36250  0.06060  1.0000 -0.2307228418
C   C14       1.0  0.63750  0.94930  0.56060  1.0000 -0.2307228418
C   C15       1.0  0.89920  0.37840  0.05020  1.0000 0.0475911825
C   C16       1.0  0.62160  0.10080  0.55020  1.0000 0.0475911825
C   C17       1.0  0.66170  0.39930  0.86140  1.0000 -0.1897556902
C   C18       1.0  0.60070  0.33830  0.36140  1.0000 -0.1897556902
C   C19       1.0  0.66330  0.38970  0.78050  1.0000 0.1209364354
C   C20       1.0  0.61030  0.33670  0.28050  1.0000 0.1209364354
C   C21       1.0  0.57530  0.52910  0.73210  1.0000 -0.2136175157
C   C22       1.0  0.47090  0.42470  0.23210  1.0000 -0.2136175157
C   C23       1.0  0.58460  0.51820  0.65890  1.0000 0.020338594
C   C24       1.0  0.48180  0.41540  0.15890  1.0000 0.020338594
C   C25       1.0  0.75690  0.24650  0.75210  1.0000 -0.2307228418
C   C26       1.0  0.75350  0.24310  0.25210  1.0000 -0.2307228418
C   C27       1.0  0.76380  0.24540  0.67820  1.0000 0.0366459927
C   C28       1.0  0.75460  0.23620  0.17820  1.0000 0.0366459927
N   N1        1.0  0.60660  0.30020  0.90069  1.0000 -0.3386918874
N   N2        1.0  0.69980  0.39340  0.40069  1.0000 -0.3386918874
N   N3        1.0  0.38486  0.30826  0.00059  1.0000 -0.3386918874
N   N4        1.0  0.69174  0.61514  0.50059  1.0000 -0.3386918874
N   N5        1.0  0.67810  0.37910  0.63120  1.0000 -0.2429062918
N   N6        1.0  0.62090  0.32190  0.13120  1.0000 -0.2429062918
N   N7        1.0  0.87020  0.27240  0.02074  1.0000 -0.2700244309
N   N8        1.0  0.72760  0.12980  0.52074  1.0000 -0.2700244309
O   O1        1.0  0.48935  0.57155  0.00315  1.0000 -0.6828129114
O   O2        1.0  0.42845  0.51065  0.50315  1.0000 -0.6828129114
O   O3        1.0  0.73767  0.03947  0.03601  1.0000 -0.6710142912
O   O4        1.0  0.96053  0.26233  0.53601  1.0000 -0.6710142912
