# DDEC6 charges by PACMAN v1.1 (https://github.com/mtap-research/PACMAN-charge/)
data_2016[Co][nan]3[FSR]25
_chemical_formula_sum              "Co28 H160 C216 N24 O136"
_cell_length_a       21.7468
_cell_length_b       21.7468
_cell_length_c       30.2783
_cell_angle_alpha    90
_cell_angle_beta     90
_cell_angle_gamma    111.059

_symmetry_space_group_name_H-M    "P 1"
_symmetry_Int_Tables_number       1

loop_
  _symmetry_equiv_pos_as_xyz
  'x, y, z'

loop_
  _atom_site_type_symbol
  _atom_site_label
  _atom_site_symmetry_multiplicity
  _atom_site_fract_x
  _atom_site_fract_y
  _atom_site_fract_z
  _atom_site_occupancy
  _atom_site_charge
Co  Co1       1.0  0.12750  0.37250  0.75000  1.0000 1.0827766572
Co  Co2       1.0  0.37250  0.12750  0.25000  1.0000 1.0827766572
Co  Co3       1.0  0.87250  0.62750  0.25000  1.0000 1.0827766572
Co  Co4       1.0  0.62750  0.87250  0.75000  1.0000 1.0827766572
Co  Co5       1.0  0.27367  0.48635  0.77935  1.0000 0.8834694379
Co  Co6       1.0  0.22633  0.01365  0.27935  1.0000 0.8834694379
Co  Co7       1.0  0.01365  0.22633  0.72065  1.0000 0.8856515303
Co  Co8       1.0  0.48635  0.27367  0.22065  1.0000 0.8834694379
Co  Co9       1.0  0.72633  0.51365  0.22065  1.0000 0.8834694379
Co  Co10      1.0  0.77367  0.98635  0.72065  1.0000 0.8834694379
Co  Co11      1.0  0.98635  0.77367  0.27935  1.0000 0.8834694379
Co  Co12      1.0  0.51365  0.72633  0.77935  1.0000 0.8834694379
Co  Co13      1.0  0.24190  0.00274  0.92383  1.0000 0.8834694379
Co  Co14      1.0  0.25810  0.49726  0.42383  1.0000 0.8834694379
Co  Co15      1.0  0.49726  0.25810  0.57617  1.0000 0.8856515303
Co  Co16      1.0  0.00274  0.24190  0.07617  1.0000 0.8834694379
Co  Co17      1.0  0.75810  0.99726  0.07617  1.0000 0.8834694379
Co  Co18      1.0  0.74190  0.50274  0.57617  1.0000 0.8856515303
Co  Co19      1.0  0.50274  0.74190  0.42383  1.0000 0.8834694379
Co  Co20      1.0  0.99726  0.75810  0.92383  1.0000 0.8834694379
Co  Co21      1.0  0.40386  0.12332  0.94696  1.0000 0.9463739534
Co  Co22      1.0  0.09613  0.37668  0.44696  1.0000 0.9463739534
Co  Co23      1.0  0.37668  0.09613  0.55304  1.0000 0.9463739534
Co  Co24      1.0  0.12331  0.40386  0.05304  1.0000 0.9463739534
Co  Co25      1.0  0.59614  0.87669  0.05304  1.0000 0.9463739534
Co  Co26      1.0  0.90387  0.62331  0.55304  1.0000 0.9463739534
Co  Co27      1.0  0.62331  0.90387  0.44696  1.0000 0.9463739534
Co  Co28      1.0  0.87668  0.59613  0.94696  1.0000 0.9463739534
H   H1        1.0  0.17940  0.14100  0.85360  1.0000 0.1218875607
H   H2        1.0  0.32060  0.35900  0.35360  1.0000 0.1218875607
H   H3        1.0  0.35900  0.32060  0.64640  1.0000 0.1218875607
H   H4        1.0  0.14100  0.17940  0.14640  1.0000 0.1218875607
H   H5        1.0  0.82060  0.85900  0.14640  1.0000 0.1218875607
H   H6        1.0  0.67940  0.64100  0.64640  1.0000 0.1218875607
H   H7        1.0  0.64100  0.67940  0.35360  1.0000 0.1218875607
H   H8        1.0  0.85900  0.82060  0.85360  1.0000 0.1218875607
H   H9        1.0  0.16320  0.22560  0.81500  1.0000 0.1270249637
H   H10       1.0  0.33680  0.27440  0.31500  1.0000 0.1270249637
H   H11       1.0  0.27440  0.33680  0.68500  1.0000 0.1270249637
H   H12       1.0  0.22560  0.16320  0.18500  1.0000 0.1270249637
H   H13       1.0  0.83680  0.77440  0.18500  1.0000 0.1270249637
H   H14       1.0  0.66320  0.72560  0.68500  1.0000 0.1270249637
H   H15       1.0  0.72560  0.66320  0.31500  1.0000 0.1270249637
H   H16       1.0  0.77440  0.83680  0.81500  1.0000 0.1270249637
H   H17       1.0  0.33970  0.34970  0.85260  1.0000 0.1218875607
H   H18       1.0  0.16030  0.15030  0.35260  1.0000 0.1218875607
H   H19       1.0  0.15030  0.16030  0.64740  1.0000 0.1218875607
H   H20       1.0  0.34970  0.33970  0.14740  1.0000 0.1218875607
H   H21       1.0  0.66030  0.65030  0.14740  1.0000 0.1218875607
H   H22       1.0  0.83970  0.84970  0.64740  1.0000 0.1218875607
H   H23       1.0  0.84970  0.83970  0.35260  1.0000 0.1218875607
H   H24       1.0  0.65030  0.66030  0.85260  1.0000 0.1218875607
H   H25       1.0  0.35660  0.26360  0.89160  1.0000 0.1094809966
H   H26       1.0  0.14340  0.23640  0.39160  1.0000 0.1094809966
H   H27       1.0  0.23640  0.14340  0.60840  1.0000 0.1094809966
H   H28       1.0  0.26360  0.35660  0.10840  1.0000 0.1094809966
H   H29       1.0  0.64340  0.73640  0.10840  1.0000 0.1094809966
H   H30       1.0  0.85660  0.76360  0.60840  1.0000 0.1094809966
H   H31       1.0  0.76360  0.85660  0.39160  1.0000 0.1094809966
H   H32       1.0  0.73640  0.64340  0.89160  1.0000 0.1094809966
H   H33       1.0  0.13340  0.67280  0.87380  1.0000 0.1270249637
H   H34       1.0  0.36660  0.82720  0.37380  1.0000 0.1270249637
H   H35       1.0  0.82720  0.36660  0.62620  1.0000 0.1270249637
H   H36       1.0  0.67280  0.13340  0.12620  1.0000 0.1270249637
H   H37       1.0  0.86660  0.32720  0.12620  1.0000 0.1270249637
H   H38       1.0  0.63340  0.17280  0.62620  1.0000 0.1270249637
H   H39       1.0  0.17280  0.63340  0.37380  1.0000 0.1270249637
H   H40       1.0  0.32720  0.86660  0.87380  1.0000 0.1270249637
H   H41       1.0  0.37310  0.07090  0.07640  1.0000 0.1094809966
H   H42       1.0  0.12690  0.42910  0.57640  1.0000 0.1094809966
H   H43       1.0  0.42910  0.12690  0.42360  1.0000 0.1094809966
H   H44       1.0  0.07090  0.37310  0.92360  1.0000 0.1094809966
H   H45       1.0  0.62690  0.92910  0.92360  1.0000 0.1094809966
H   H46       1.0  0.87310  0.57090  0.42360  1.0000 0.1094809966
H   H47       1.0  0.57090  0.87310  0.57640  1.0000 0.1094809966
H   H48       1.0  0.92910  0.62690  0.07640  1.0000 0.1094809966
H   H49       1.0  0.35540  0.06620  0.15210  1.0000 0.1218875607
H   H50       1.0  0.14460  0.43380  0.65210  1.0000 0.1218875607
H   H51       1.0  0.43380  0.14460  0.34790  1.0000 0.1218875607
H   H52       1.0  0.06620  0.35540  0.84790  1.0000 0.1218875607
H   H53       1.0  0.64460  0.93380  0.84790  1.0000 0.1218875607
H   H54       1.0  0.85540  0.56620  0.34790  1.0000 0.1218875607
H   H55       1.0  0.56620  0.85540  0.65210  1.0000 0.1218875607
H   H56       1.0  0.93380  0.64460  0.15210  1.0000 0.1218875607
H   H57       1.0  0.16290  0.02190  0.13170  1.0000 0.1218875607
H   H58       1.0  0.33710  0.47810  0.63170  1.0000 0.1218875607
H   H59       1.0  0.47810  0.33710  0.36830  1.0000 0.1218875607
H   H60       1.0  0.02190  0.16290  0.86830  1.0000 0.1218875607
H   H61       1.0  0.83710  0.97810  0.86830  1.0000 0.1218875607
H   H62       1.0  0.66290  0.52190  0.36830  1.0000 0.1218875607
H   H63       1.0  0.52190  0.66290  0.63170  1.0000 0.1218875607
H   H64       1.0  0.97810  0.83710  0.13170  1.0000 0.1218875607
H   H65       1.0  0.18140  0.02160  0.05580  1.0000 0.1270249637
H   H66       1.0  0.31860  0.47840  0.55580  1.0000 0.1270249637
H   H67       1.0  0.47840  0.31860  0.44420  1.0000 0.1270249637
H   H68       1.0  0.02160  0.18140  0.94420  1.0000 0.1270249637
H   H69       1.0  0.81860  0.97840  0.94420  1.0000 0.1270249637
H   H70       1.0  0.68140  0.52160  0.44420  1.0000 0.1270249637
H   H71       1.0  0.52160  0.68140  0.55580  1.0000 0.1270249637
H   H72       1.0  0.97840  0.81860  0.05580  1.0000 0.1270249637
H   H73       1.0  0.19090  0.61290  0.84010  1.0000 0.1270249637
H   H74       1.0  0.30910  0.88710  0.34010  1.0000 0.1270249637
H   H75       1.0  0.88710  0.30910  0.65990  1.0000 0.1270249637
H   H76       1.0  0.61290  0.19090  0.15990  1.0000 0.1270249637
H   H77       1.0  0.80910  0.38710  0.15990  1.0000 0.1270249637
H   H78       1.0  0.69090  0.11290  0.65990  1.0000 0.1270249637
H   H79       1.0  0.11290  0.69090  0.34010  1.0000 0.1270249637
H   H80       1.0  0.38710  0.80910  0.84010  1.0000 0.1270249637
H   H81       1.0  0.02330  0.45770  0.83390  1.0000 0.1218875607
H   H82       1.0  0.47670  0.04230  0.33390  1.0000 0.1218875607
H   H83       1.0  0.04230  0.47670  0.66610  1.0000 0.1218875607
H   H84       1.0  0.45770  0.02330  0.16610  1.0000 0.1218875607
H   H85       1.0  0.97670  0.54230  0.16610  1.0000 0.1218875607
H   H86       1.0  0.52330  0.95770  0.66610  1.0000 0.1270249637
H   H87       1.0  0.95770  0.52330  0.33390  1.0000 0.1270249637
H   H88       1.0  0.54230  0.97670  0.83390  1.0000 0.1218875607
H   H89       1.0  0.96530  0.51950  0.86170  1.0000 0.1094809966
H   H90       1.0  0.53470  0.98050  0.36170  1.0000 0.1094809966
H   H91       1.0  0.98050  0.53470  0.63830  1.0000 0.1094809966
H   H92       1.0  0.51950  0.96530  0.13830  1.0000 0.1094809966
H   H93       1.0  0.03470  0.48050  0.13830  1.0000 0.1094809966
H   H94       1.0  0.46530  0.01950  0.63830  1.0000 0.1094809966
H   H95       1.0  0.01950  0.46530  0.36170  1.0000 0.1094809966
H   H96       1.0  0.48050  0.03470  0.86170  1.0000 0.1094809966
H   H97       1.0  0.40450  0.49590  0.84170  1.0000 0.1218875607
H   H98       1.0  0.09550  0.00410  0.34170  1.0000 0.1218875607
H   H99       1.0  0.00410  0.09550  0.65830  1.0000 0.1270249637
H   H100      1.0  0.49590  0.40450  0.15830  1.0000 0.1218875607
H   H101      1.0  0.59550  0.50410  0.15830  1.0000 0.1218875607
H   H102      1.0  0.90450  0.99590  0.65830  1.0000 0.1218875607
H   H103      1.0  0.99590  0.90450  0.34170  1.0000 0.1218875607
H   H104      1.0  0.50410  0.59550  0.84170  1.0000 0.1218875607
H   H105      1.0  0.10770  0.99230  0.86810  1.0000 0.1270249637
H   H106      1.0  0.39230  0.50770  0.36810  1.0000 0.1270249637
H   H107      1.0  0.50770  0.39230  0.63190  1.0000 0.1270249637
H   H108      1.0  0.99230  0.10770  0.13190  1.0000 0.1270249637
H   H109      1.0  0.89230  0.00770  0.13190  1.0000 0.1270249637
H   H110      1.0  0.60770  0.49230  0.63190  1.0000 0.1270249637
H   H111      1.0  0.49230  0.60770  0.36810  1.0000 0.1270249637
H   H112      1.0  0.00770  0.89230  0.86810  1.0000 0.1270249637
H   H113      1.0  0.47170  0.21810  0.91860  1.0000 0.3807600391
H   H114      1.0  0.02830  0.28190  0.41860  1.0000 0.3807600391
H   H115      1.0  0.28190  0.02830  0.58140  1.0000 0.3807600391
H   H116      1.0  0.21810  0.47170  0.08140  1.0000 0.3807600391
H   H117      1.0  0.52830  0.78190  0.08140  1.0000 0.3807600391
H   H118      1.0  0.97170  0.71810  0.58140  1.0000 0.3807600391
H   H119      1.0  0.71810  0.97170  0.41860  1.0000 0.3807600391
H   H120      1.0  0.78190  0.52830  0.91860  1.0000 0.3807600391
H   H121      1.0  0.44600  0.15340  0.88540  1.0000 0.3807600391
H   H122      1.0  0.05400  0.34660  0.38540  1.0000 0.3807600391
H   H123      1.0  0.34660  0.05400  0.61460  1.0000 0.3807600391
H   H124      1.0  0.15340  0.44600  0.11460  1.0000 0.3807600391
H   H125      1.0  0.55400  0.84660  0.11460  1.0000 0.3807600391
H   H126      1.0  0.94600  0.65340  0.61460  1.0000 0.3807600391
H   H127      1.0  0.65340  0.94600  0.38540  1.0000 0.3807600391
H   H128      1.0  0.84660  0.55400  0.88540  1.0000 0.3807600391
H   H129      1.0  0.40410  0.22590  0.98400  1.0000 0.4092202773
H   H130      1.0  0.09590  0.27410  0.48400  1.0000 0.4092202773
H   H131      1.0  0.27410  0.09590  0.51600  1.0000 0.4092202773
H   H132      1.0  0.22590  0.40410  0.01600  1.0000 0.4092202773
H   H133      1.0  0.59590  0.77410  0.01600  1.0000 0.4092202773
H   H134      1.0  0.90410  0.72590  0.51600  1.0000 0.4092202773
H   H135      1.0  0.72590  0.90410  0.48400  1.0000 0.4092202773
H   H136      1.0  0.77410  0.59590  0.98400  1.0000 0.4092202773
H   H137      1.0  0.40200  0.17620  0.02000  1.0000 0.4092202773
H   H138      1.0  0.09800  0.32380  0.52000  1.0000 0.4092202773
H   H139      1.0  0.32380  0.09800  0.48000  1.0000 0.4092202773
H   H140      1.0  0.17620  0.40200  0.98000  1.0000 0.4092202773
H   H141      1.0  0.59800  0.82380  0.98000  1.0000 0.4092202773
H   H142      1.0  0.90200  0.67620  0.48000  1.0000 0.4092202773
H   H143      1.0  0.67620  0.90200  0.52000  1.0000 0.4092202773
H   H144      1.0  0.82380  0.59800  0.02000  1.0000 0.4092202773
H   H145      1.0  0.48030  0.07990  0.94900  1.0000 0.2620906366
H   H146      1.0  0.01970  0.42010  0.44900  1.0000 0.2620906366
H   H147      1.0  0.42010  0.01970  0.55100  1.0000 0.2620906366
H   H148      1.0  0.07990  0.48030  0.05100  1.0000 0.2620906366
H   H149      1.0  0.51970  0.92010  0.05100  1.0000 0.2620906366
H   H150      1.0  0.98030  0.57990  0.55100  1.0000 0.2620906366
H   H151      1.0  0.57990  0.98030  0.44900  1.0000 0.2620906366
H   H152      1.0  0.92010  0.51970  0.94900  1.0000 0.2620906366
H   H153      1.0  0.46880  0.09000  0.99000  1.0000 0.2819911306
H   H154      1.0  0.03120  0.41000  0.49000  1.0000 0.2819911306
H   H155      1.0  0.41000  0.03120  0.51000  1.0000 0.2819911306
H   H156      1.0  0.09000  0.46880  0.01000  1.0000 0.2819911306
H   H157      1.0  0.53120  0.91000  0.01000  1.0000 0.2819911306
H   H158      1.0  0.96880  0.59000  0.51000  1.0000 0.2819911306
H   H159      1.0  0.59000  0.96880  0.49000  1.0000 0.2819911306
H   H160      1.0  0.91000  0.53120  0.99000  1.0000 0.2819911306
C   C1        1.0  0.28291  0.13875  0.89910  1.0000 0.5893113607
C   C2        1.0  0.21709  0.36125  0.39910  1.0000 0.5893113607
C   C3        1.0  0.36125  0.21709  0.60090  1.0000 0.5893113607
C   C4        1.0  0.13875  0.28291  0.10090  1.0000 0.5893113607
C   C5        1.0  0.71709  0.86125  0.10090  1.0000 0.5955279683
C   C6        1.0  0.78291  0.63875  0.60090  1.0000 0.5893113607
C   C7        1.0  0.63875  0.78291  0.39910  1.0000 0.5955279683
C   C8        1.0  0.86125  0.71709  0.89910  1.0000 0.5893113607
C   C9        1.0  0.27061  0.19445  0.87570  1.0000 -0.0212241726
C   C10       1.0  0.22939  0.30555  0.37570  1.0000 -0.0212241726
C   C11       1.0  0.30555  0.22939  0.62430  1.0000 -0.0212241726
C   C12       1.0  0.19445  0.27061  0.12430  1.0000 -0.0212241726
C   C13       1.0  0.72939  0.80555  0.12430  1.0000 -0.0212241726
C   C14       1.0  0.77061  0.69445  0.62430  1.0000 -0.0212241726
C   C15       1.0  0.69445  0.77061  0.37570  1.0000 -0.0212241726
C   C16       1.0  0.80555  0.72939  0.87570  1.0000 -0.0212241726
C   C17       1.0  0.21196  0.18286  0.85339  1.0000 -0.1004537827
C   C18       1.0  0.28804  0.31714  0.35339  1.0000 -0.1004537827
C   C19       1.0  0.31714  0.28804  0.64661  1.0000 -0.1004537827
C   C20       1.0  0.18286  0.21196  0.14661  1.0000 -0.1004537827
C   C21       1.0  0.78804  0.81714  0.14661  1.0000 -0.1004537827
C   C22       1.0  0.71196  0.68286  0.64661  1.0000 -0.1004537827
C   C23       1.0  0.68286  0.71196  0.35339  1.0000 -0.1004537827
C   C24       1.0  0.81714  0.78804  0.85339  1.0000 -0.1004537827
C   C25       1.0  0.20200  0.23370  0.83082  1.0000 -0.1004537827
C   C26       1.0  0.29800  0.26630  0.33082  1.0000 -0.1004537827
C   C27       1.0  0.26630  0.29800  0.66918  1.0000 -0.1004537827
C   C28       1.0  0.23370  0.20200  0.16918  1.0000 -0.1004537827
C   C29       1.0  0.79800  0.76630  0.16918  1.0000 -0.1004537827
C   C30       1.0  0.70200  0.73370  0.66918  1.0000 -0.1004537827
C   C31       1.0  0.73370  0.70200  0.33082  1.0000 -0.1004537827
C   C32       1.0  0.76630  0.79800  0.83082  1.0000 -0.1004537827
C   C33       1.0  0.24875  0.29593  0.83150  1.0000 -0.0127066232
C   C34       1.0  0.25125  0.20407  0.33150  1.0000 -0.0127066232
C   C35       1.0  0.20407  0.25125  0.66850  1.0000 -0.0127066232
C   C36       1.0  0.29593  0.24875  0.16850  1.0000 -0.0127066232
C   C37       1.0  0.75125  0.70407  0.16850  1.0000 -0.0127066232
C   C38       1.0  0.74875  0.79593  0.66850  1.0000 -0.0127066232
C   C39       1.0  0.79593  0.74875  0.33150  1.0000 -0.0127066232
C   C40       1.0  0.70407  0.75125  0.83150  1.0000 -0.0127066232
C   C41       1.0  0.30720  0.30788  0.85309  1.0000 -0.1114812077
C   C42       1.0  0.19280  0.19212  0.35309  1.0000 -0.1114812077
C   C43       1.0  0.19212  0.19280  0.64691  1.0000 -0.1114812077
C   C44       1.0  0.30788  0.30720  0.14691  1.0000 -0.1114812077
C   C45       1.0  0.69280  0.69212  0.14691  1.0000 -0.1114812077
C   C46       1.0  0.80720  0.80788  0.64691  1.0000 -0.1114812077
C   C47       1.0  0.80788  0.80720  0.35309  1.0000 -0.1114812077
C   C48       1.0  0.69212  0.69280  0.85309  1.0000 -0.1114812077
C   C49       1.0  0.31758  0.25584  0.87615  1.0000 -0.1114812077
C   C50       1.0  0.18242  0.24416  0.37615  1.0000 -0.1114812077
C   C51       1.0  0.24416  0.18242  0.62385  1.0000 -0.1114812077
C   C52       1.0  0.25584  0.31758  0.12385  1.0000 -0.1114812077
C   C53       1.0  0.68242  0.74416  0.12385  1.0000 -0.1114812077
C   C54       1.0  0.81758  0.75584  0.62385  1.0000 -0.1114812077
C   C55       1.0  0.75584  0.81758  0.37615  1.0000 -0.1114812077
C   C56       1.0  0.74416  0.68242  0.87615  1.0000 -0.1114812077
C   C57       1.0  0.23556  0.35102  0.80827  1.0000 0.5893113607
C   C58       1.0  0.26444  0.14898  0.30827  1.0000 0.5893113607
C   C59       1.0  0.14898  0.26444  0.69173  1.0000 0.5893113607
C   C60       1.0  0.35102  0.23556  0.19173  1.0000 0.5893113607
C   C61       1.0  0.76444  0.64898  0.19173  1.0000 0.5893113607
C   C62       1.0  0.73556  0.85102  0.69173  1.0000 0.5893113607
C   C63       1.0  0.85102  0.73556  0.30827  1.0000 0.5893113607
C   C64       1.0  0.64898  0.76444  0.80827  1.0000 0.5893113607
C   C65       1.0  0.00573  0.63927  0.89235  1.0000 0.5893113607
C   C66       1.0  0.49427  0.86073  0.39235  1.0000 0.5893113607
C   C67       1.0  0.86073  0.49427  0.60765  1.0000 0.5893113607
C   C68       1.0  0.63927  0.00573  0.10765  1.0000 0.5893113607
C   C69       1.0  0.99427  0.36073  0.10765  1.0000 0.5893113607
C   C70       1.0  0.50573  0.13927  0.60765  1.0000 0.5893113607
C   C71       1.0  0.13927  0.50573  0.39235  1.0000 0.5893113607
C   C72       1.0  0.36073  0.99427  0.89235  1.0000 0.5893113607
C   C73       1.0  0.04383  0.60163  0.87027  1.0000 -0.0286856022
C   C74       1.0  0.45617  0.89837  0.37027  1.0000 -0.0286856022
C   C75       1.0  0.89837  0.45617  0.62973  1.0000 -0.0286856022
C   C76       1.0  0.60163  0.04383  0.12973  1.0000 -0.0286856022
C   C77       1.0  0.95617  0.39837  0.12973  1.0000 -0.0286856022
C   C78       1.0  0.54383  0.10163  0.62973  1.0000 -0.0286856022
C   C79       1.0  0.10163  0.54383  0.37027  1.0000 -0.0286856022
C   C80       1.0  0.39837  0.95617  0.87027  1.0000 -0.0286856022
C   C81       1.0  0.11096  0.62974  0.86462  1.0000 -0.0897380571
C   C82       1.0  0.38904  0.87026  0.36462  1.0000 -0.0897380571
C   C83       1.0  0.87026  0.38904  0.63538  1.0000 -0.0897380571
C   C84       1.0  0.62974  0.11096  0.13538  1.0000 -0.0897380571
C   C85       1.0  0.88904  0.37026  0.13538  1.0000 -0.0897380571
C   C86       1.0  0.61096  0.12974  0.63538  1.0000 -0.0897380571
C   C87       1.0  0.12974  0.61096  0.36462  1.0000 -0.0897380571
C   C88       1.0  0.37026  0.88904  0.86462  1.0000 -0.0897380571
C   C89       1.0  0.27780  0.04538  0.05903  1.0000 -0.0212241726
C   C90       1.0  0.22220  0.45462  0.55903  1.0000 -0.0212241726
C   C91       1.0  0.45462  0.22220  0.44097  1.0000 -0.0212241726
C   C92       1.0  0.04538  0.27780  0.94097  1.0000 -0.0212241726
C   C93       1.0  0.72220  0.95462  0.94097  1.0000 -0.0212241726
C   C94       1.0  0.77780  0.54538  0.44097  1.0000 -0.0212241726
C   C95       1.0  0.54538  0.77780  0.55903  1.0000 -0.0212241726
C   C96       1.0  0.95462  0.72220  0.05903  1.0000 -0.0212241726
C   C97       1.0  0.33060  0.05968  0.08750  1.0000 -0.1208721279
C   C98       1.0  0.16940  0.44032  0.58750  1.0000 -0.1208721279
C   C99       1.0  0.44032  0.16940  0.41250  1.0000 -0.1208721279
C   C100      1.0  0.05968  0.33060  0.91250  1.0000 -0.1208721279
C   C101      1.0  0.66940  0.94032  0.91250  1.0000 -0.1208721279
C   C102      1.0  0.83060  0.55968  0.41250  1.0000 -0.1208721279
C   C103      1.0  0.55968  0.83060  0.58750  1.0000 -0.1208721279
C   C104      1.0  0.94032  0.66940  0.08750  1.0000 -0.1208721279
C   C105      1.0  0.31998  0.05728  0.13282  1.0000 -0.0844303975
C   C106      1.0  0.18002  0.44272  0.63282  1.0000 -0.0844303975
C   C107      1.0  0.44272  0.18002  0.36718  1.0000 -0.0844303975
C   C108      1.0  0.05728  0.31998  0.86718  1.0000 -0.0844303975
C   C109      1.0  0.68002  0.94272  0.86718  1.0000 -0.0844303975
C   C110      1.0  0.81998  0.55728  0.36718  1.0000 -0.0844303975
C   C111      1.0  0.55728  0.81998  0.63282  1.0000 -0.0844303975
C   C112      1.0  0.94272  0.68002  0.13282  1.0000 -0.0844303975
C   C113      1.0  0.25685  0.04169  0.14936  1.0000 -0.0212241726
C   C114      1.0  0.24315  0.45831  0.64936  1.0000 -0.0212241726
C   C115      1.0  0.45831  0.24315  0.35064  1.0000 -0.0212241726
C   C116      1.0  0.04169  0.25685  0.85064  1.0000 -0.0212241726
C   C117      1.0  0.74315  0.95831  0.85064  1.0000 -0.0212241726
C   C118      1.0  0.75685  0.54169  0.35064  1.0000 -0.0212241726
C   C119      1.0  0.54169  0.75685  0.64936  1.0000 -0.0212241726
C   C120      1.0  0.95831  0.74315  0.14936  1.0000 -0.0212241726
C   C121      1.0  0.20515  0.03017  0.12094  1.0000 -0.0897380571
C   C122      1.0  0.29485  0.46983  0.62094  1.0000 -0.0897380571
C   C123      1.0  0.46983  0.29485  0.37906  1.0000 -0.0897380571
C   C124      1.0  0.03017  0.20515  0.87906  1.0000 -0.0897380571
C   C125      1.0  0.79485  0.96983  0.87906  1.0000 -0.0897380571
C   C126      1.0  0.70515  0.53017  0.37906  1.0000 -0.0897380571
C   C127      1.0  0.53017  0.70515  0.62094  1.0000 -0.0897380571
C   C128      1.0  0.96983  0.79485  0.12094  1.0000 -0.0897380571
C   C129      1.0  0.21668  0.03108  0.07524  1.0000 -0.1004537827
C   C130      1.0  0.28332  0.46892  0.57524  1.0000 -0.1004537827
C   C131      1.0  0.46892  0.28332  0.42476  1.0000 -0.1004537827
C   C132      1.0  0.03108  0.21668  0.92476  1.0000 -0.1004537827
C   C133      1.0  0.78332  0.96892  0.92476  1.0000 -0.1004537827
C   C134      1.0  0.71668  0.53108  0.42476  1.0000 -0.1004537827
C   C135      1.0  0.53108  0.71668  0.57524  1.0000 -0.1004537827
C   C136      1.0  0.96892  0.78332  0.07524  1.0000 -0.1004537827
C   C137      1.0  0.28978  0.04456  0.00973  1.0000 0.5893113607
C   C138      1.0  0.21022  0.45544  0.50973  1.0000 0.5893113607
C   C139      1.0  0.45544  0.21022  0.49027  1.0000 0.5893113607
C   C140      1.0  0.04456  0.28978  0.99027  1.0000 0.5893113607
C   C141      1.0  0.71022  0.95544  0.99027  1.0000 0.5893113607
C   C142      1.0  0.78978  0.54456  0.49027  1.0000 0.5893113607
C   C143      1.0  0.54456  0.78978  0.50973  1.0000 0.5893113607
C   C144      1.0  0.95544  0.71022  0.00973  1.0000 0.5893113607
C   C145      1.0  0.14754  0.48940  0.81172  1.0000 0.5893113607
C   C146      1.0  0.35246  0.01060  0.31172  1.0000 0.5893113607
C   C147      1.0  0.01060  0.35246  0.68828  1.0000 0.5893113607
C   C148      1.0  0.48940  0.14754  0.18828  1.0000 0.5893113607
C   C149      1.0  0.85246  0.51060  0.18828  1.0000 0.5893113607
C   C150      1.0  0.64754  0.98940  0.68828  1.0000 0.5893113607
C   C151      1.0  0.98940  0.64754  0.31172  1.0000 0.5893113607
C   C152      1.0  0.51060  0.85246  0.81172  1.0000 0.5893113607
C   C153      1.0  0.11228  0.52986  0.83348  1.0000 -0.0127066232
C   C154      1.0  0.38772  0.97014  0.33348  1.0000 -0.0127066232
C   C155      1.0  0.97014  0.38772  0.66652  1.0000 -0.0127066232
C   C156      1.0  0.52986  0.11228  0.16652  1.0000 -0.0127066232
C   C157      1.0  0.88772  0.47014  0.16652  1.0000 -0.0127066232
C   C158      1.0  0.61228  0.02986  0.66652  1.0000 -0.0127066232
C   C159      1.0  0.02986  0.61228  0.33348  1.0000 -0.0127066232
C   C160      1.0  0.47014  0.88772  0.83348  1.0000 -0.0127066232
C   C161      1.0  0.14580  0.59360  0.84504  1.0000 -0.1004537827
C   C162      1.0  0.35420  0.90640  0.34504  1.0000 -0.1004537827
C   C163      1.0  0.90640  0.35420  0.65496  1.0000 -0.1004537827
C   C164      1.0  0.59360  0.14580  0.15496  1.0000 -0.1004537827
C   C165      1.0  0.85420  0.40640  0.15496  1.0000 -0.1004537827
C   C166      1.0  0.64580  0.09360  0.65496  1.0000 -0.1004537827
C   C167      1.0  0.09360  0.64580  0.34504  1.0000 -0.1004537827
C   C168      1.0  0.40640  0.85420  0.84504  1.0000 -0.1004537827
C   C169      1.0  0.04539  0.50181  0.84079  1.0000 -0.1114812077
C   C170      1.0  0.45461  0.99819  0.34079  1.0000 -0.1114812077
C   C171      1.0  0.99819  0.45461  0.65921  1.0000 -0.1114812077
C   C172      1.0  0.50181  0.04539  0.15921  1.0000 -0.1114812077
C   C173      1.0  0.95461  0.49819  0.15921  1.0000 -0.1114812077
C   C174      1.0  0.54539  0.00181  0.65921  1.0000 -0.1114812077
C   C175      1.0  0.00181  0.54539  0.34079  1.0000 -0.1114812077
C   C176      1.0  0.49819  0.95461  0.84079  1.0000 -0.1114812077
C   C177      1.0  0.01078  0.53826  0.85824  1.0000 -0.1114812077
C   C178      1.0  0.48922  0.96174  0.35824  1.0000 -0.1114812077
C   C179      1.0  0.96174  0.48922  0.64176  1.0000 -0.1114812077
C   C180      1.0  0.53826  0.01078  0.14176  1.0000 -0.1114812077
C   C181      1.0  0.98922  0.46174  0.14176  1.0000 -0.1114812077
C   C182      1.0  0.51078  0.03826  0.64176  1.0000 -0.1114812077
C   C183      1.0  0.03826  0.51078  0.35824  1.0000 -0.1114812077
C   C184      1.0  0.46174  0.98922  0.85824  1.0000 -0.1114812077
C   C185      1.0  0.24544  0.03622  0.19739  1.0000 0.5623457049
C   C186      1.0  0.25456  0.46378  0.69739  1.0000 0.5623457049
C   C187      1.0  0.46378  0.25456  0.30261  1.0000 0.5623457049
C   C188      1.0  0.03622  0.24544  0.80261  1.0000 0.5623457049
C   C189      1.0  0.75456  0.96378  0.80261  1.0000 0.5623457049
C   C190      1.0  0.74544  0.53622  0.30261  1.0000 0.5623457049
C   C191      1.0  0.53622  0.74544  0.69739  1.0000 0.5623457049
C   C192      1.0  0.96378  0.75456  0.19739  1.0000 0.5623457049
C   C193      1.0  0.40940  0.53506  0.82721  1.0000 -0.0042287684
C   C194      1.0  0.09060  0.96494  0.32721  1.0000 -0.0042287684
C   C195      1.0  0.96494  0.09060  0.67279  1.0000 -0.0042287684
C   C196      1.0  0.53506  0.40940  0.17279  1.0000 -0.0042287684
C   C197      1.0  0.59060  0.46494  0.17279  1.0000 -0.0042287684
C   C198      1.0  0.90940  0.03506  0.67279  1.0000 -0.0042287684
C   C199      1.0  0.03506  0.90940  0.32721  1.0000 -0.0042287684
C   C200      1.0  0.46494  0.59060  0.82721  1.0000 -0.0042287684
C   C201      1.0  0.39268  0.60732  0.78864  1.0000 0.2620906366
C   C202      1.0  0.10732  0.89268  0.28864  1.0000 0.2620906366
C   C203      1.0  0.89268  0.10732  0.71136  1.0000 0.2650203024
C   C204      1.0  0.60732  0.39268  0.21136  1.0000 0.2620906366
C   C205      1.0  0.10266  0.95344  0.88312  1.0000 -0.0127066232
C   C206      1.0  0.39734  0.54656  0.38312  1.0000 -0.0127066232
C   C207      1.0  0.54656  0.39734  0.61688  1.0000 -0.0127066232
C   C208      1.0  0.95344  0.10266  0.11688  1.0000 -0.0127066232
C   C209      1.0  0.89734  0.04656  0.11688  1.0000 -0.0127066232
C   C210      1.0  0.60266  0.45344  0.61688  1.0000 -0.0127066232
C   C211      1.0  0.45344  0.60266  0.38312  1.0000 -0.0127066232
C   C212      1.0  0.04656  0.89734  0.88312  1.0000 -0.0127066232
C   C213      1.0  0.11933  0.88067  0.92311  1.0000 0.247639737
C   C214      1.0  0.38067  0.61933  0.42311  1.0000 0.247639737
C   C215      1.0  0.61933  0.38067  0.57689  1.0000 0.247639737
C   C216      1.0  0.88067  0.11933  0.07689  1.0000 0.247639737
N   N1        1.0  0.14913  0.94263  0.90857  1.0000 -0.3478502641
N   N2        1.0  0.35087  0.55737  0.40857  1.0000 -0.3478502641
N   N3        1.0  0.55737  0.35087  0.59143  1.0000 -0.3478502641
N   N4        1.0  0.94263  0.14913  0.09143  1.0000 -0.3478502641
N   N5        1.0  0.85087  0.05737  0.09143  1.0000 -0.3478502641
N   N6        1.0  0.64913  0.44263  0.59143  1.0000 -0.3478502641
N   N7        1.0  0.44263  0.64913  0.40857  1.0000 -0.3478502641
N   N8        1.0  0.05737  0.85087  0.90857  1.0000 -0.3478502641
N   N9        1.0  0.36254  0.54640  0.80265  1.0000 -0.3390529753
N   N10       1.0  0.13746  0.95360  0.30265  1.0000 -0.3390529753
N   N11       1.0  0.95360  0.13746  0.69735  1.0000 -0.3390529753
N   N12       1.0  0.54640  0.36254  0.19735  1.0000 -0.3390529753
N   N13       1.0  0.63746  0.45360  0.19735  1.0000 -0.3390529753
N   N14       1.0  0.86254  0.04640  0.69735  1.0000 -0.3390529753
N   N15       1.0  0.04640  0.86254  0.30265  1.0000 -0.3390529753
N   N16       1.0  0.45360  0.63746  0.80265  1.0000 -0.3390529753
N   N17       1.0  0.36179  0.63821  0.76133  1.0000 0.419804207
N   N18       1.0  0.13821  0.86179  0.26133  1.0000 0.419804207
N   N19       1.0  0.86179  0.13821  0.73867  1.0000 0.419804207
N   N20       1.0  0.63821  0.36179  0.23867  1.0000 0.419804207
N   N21       1.0  0.15015  0.84985  0.95049  1.0000 0.4284346317
N   N22       1.0  0.34985  0.65015  0.45049  1.0000 0.4284346317
N   N23       1.0  0.65015  0.34985  0.54951  1.0000 0.4284346317
N   N24       1.0  0.84985  0.15015  0.04951  1.0000 0.4284346317
O   O1        1.0  0.33130  0.15344  0.92435  1.0000 -0.595710137
O   O2        1.0  0.16870  0.34656  0.42435  1.0000 -0.594979086
O   O3        1.0  0.34656  0.16870  0.57565  1.0000 -0.595710137
O   O4        1.0  0.15344  0.33130  0.07565  1.0000 -0.595710137
O   O5        1.0  0.66870  0.84656  0.07565  1.0000 -0.594979086
O   O6        1.0  0.83130  0.65344  0.57565  1.0000 -0.594979086
O   O7        1.0  0.65344  0.83130  0.42435  1.0000 -0.594979086
O   O8        1.0  0.84656  0.66870  0.92435  1.0000 -0.595710137
O   O9        1.0  0.24294  0.08164  0.89201  1.0000 -0.5316813933
O   O10       1.0  0.25706  0.41836  0.39201  1.0000 -0.5316813933
O   O11       1.0  0.41836  0.25706  0.60799  1.0000 -0.5316813933
O   O12       1.0  0.08164  0.24294  0.10799  1.0000 -0.5316813933
O   O13       1.0  0.75706  0.91836  0.10799  1.0000 -0.5316813933
O   O14       1.0  0.74294  0.58164  0.60799  1.0000 -0.5316813933
O   O15       1.0  0.58164  0.74294  0.39201  1.0000 -0.5316813933
O   O16       1.0  0.91836  0.75706  0.89201  1.0000 -0.5316813933
O   O17       1.0  0.17874  0.33988  0.79489  1.0000 -0.5610875795
O   O18       1.0  0.32126  0.16012  0.29489  1.0000 -0.5610875795
O   O19       1.0  0.16012  0.32126  0.70511  1.0000 -0.5610875795
O   O20       1.0  0.33988  0.17874  0.20511  1.0000 -0.5610875795
O   O21       1.0  0.82126  0.66012  0.20511  1.0000 -0.5610875795
O   O22       1.0  0.67874  0.83988  0.70511  1.0000 -0.5610875795
O   O23       1.0  0.83988  0.67874  0.29489  1.0000 -0.5610875795
O   O24       1.0  0.66012  0.82126  0.79489  1.0000 -0.5610875795
O   O25       1.0  0.28240  0.40528  0.80565  1.0000 -0.5316813933
O   O26       1.0  0.21760  0.09472  0.30565  1.0000 -0.5316813933
O   O27       1.0  0.09472  0.21760  0.69435  1.0000 -0.5316813933
O   O28       1.0  0.40528  0.28240  0.19435  1.0000 -0.5316813933
O   O29       1.0  0.71760  0.59472  0.19435  1.0000 -0.5316813933
O   O30       1.0  0.78240  0.90528  0.69435  1.0000 -0.5316813933
O   O31       1.0  0.90528  0.78240  0.30565  1.0000 -0.5316813933
O   O32       1.0  0.59472  0.71760  0.80565  1.0000 -0.5316813933
O   O33       1.0  0.03781  0.70205  0.89735  1.0000 -0.5368463184
O   O34       1.0  0.46219  0.79795  0.39735  1.0000 -0.5368463184
O   O35       1.0  0.79795  0.46219  0.60265  1.0000 -0.5368463184
O   O36       1.0  0.70205  0.03781  0.10265  1.0000 -0.5368463184
O   O37       1.0  0.96219  0.29795  0.10265  1.0000 -0.5368463184
O   O38       1.0  0.53781  0.20205  0.60265  1.0000 -0.5368463184
O   O39       1.0  0.20205  0.53781  0.39735  1.0000 -0.5368463184
O   O40       1.0  0.29795  0.96219  0.89735  1.0000 -0.5368463184
O   O41       1.0  0.94765  0.61029  0.90129  1.0000 -0.5687637414
O   O42       1.0  0.55235  0.88971  0.40129  1.0000 -0.5687637414
O   O43       1.0  0.88971  0.55235  0.59871  1.0000 -0.5687637414
O   O44       1.0  0.61029  0.94765  0.09871  1.0000 -0.5687637414
O   O45       1.0  0.05235  0.38971  0.09871  1.0000 -0.5687637414
O   O46       1.0  0.44765  0.11029  0.59871  1.0000 -0.5687637414
O   O47       1.0  0.11029  0.44765  0.40129  1.0000 -0.5687637414
O   O48       1.0  0.38971  0.05235  0.90129  1.0000 -0.5687637414
O   O49       1.0  0.46870  0.18706  0.90025  1.0000 -0.6897270168
O   O50       1.0  0.03130  0.31294  0.40025  1.0000 -0.6897270168
O   O51       1.0  0.31294  0.03130  0.59975  1.0000 -0.6897270168
O   O52       1.0  0.18706  0.46870  0.09975  1.0000 -0.6897270168
O   O53       1.0  0.53130  0.81294  0.09975  1.0000 -0.6897270168
O   O54       1.0  0.96870  0.68706  0.59975  1.0000 -0.6897270168
O   O55       1.0  0.68706  0.96870  0.40025  1.0000 -0.6897270168
O   O56       1.0  0.81294  0.53130  0.90025  1.0000 -0.6897270168
O   O57       1.0  0.42978  0.20172  0.99642  1.0000 -0.7038388486
O   O58       1.0  0.07022  0.29828  0.49642  1.0000 -0.7038388486
O   O59       1.0  0.29828  0.07022  0.50358  1.0000 -0.7038388486
O   O60       1.0  0.20172  0.42978  0.00358  1.0000 -0.7038388486
O   O61       1.0  0.57022  0.79828  0.00358  1.0000 -0.7038388486
O   O62       1.0  0.92978  0.70172  0.50358  1.0000 -0.7038388486
O   O63       1.0  0.70172  0.92978  0.49642  1.0000 -0.7038388486
O   O64       1.0  0.79828  0.57022  0.99642  1.0000 -0.7038388486
O   O65       1.0  0.48752  0.10160  0.97160  1.0000 -0.5048892881
O   O66       1.0  0.01248  0.39840  0.47160  1.0000 -0.5048892881
O   O67       1.0  0.39840  0.01248  0.52840  1.0000 -0.5048892881
O   O68       1.0  0.10160  0.48752  0.02840  1.0000 -0.5048892881
O   O69       1.0  0.51248  0.89840  0.02840  1.0000 -0.5048892881
O   O70       1.0  0.98752  0.60160  0.52840  1.0000 -0.5048892881
O   O71       1.0  0.60160  0.98752  0.47160  1.0000 -0.5048892881
O   O72       1.0  0.89840  0.51248  0.97160  1.0000 -0.5048892881
O   O73       1.0  0.34790  0.06430  0.99622  1.0000 -0.6098890538
O   O74       1.0  0.15210  0.43570  0.49622  1.0000 -0.6098890538
O   O75       1.0  0.43570  0.15210  0.50378  1.0000 -0.6098890538
O   O76       1.0  0.06430  0.34790  0.00378  1.0000 -0.6098890538
O   O77       1.0  0.65210  0.93570  0.00378  1.0000 -0.6098890538
O   O78       1.0  0.84790  0.56430  0.50378  1.0000 -0.6098890538
O   O79       1.0  0.56430  0.84790  0.49622  1.0000 -0.6098890538
O   O80       1.0  0.93570  0.65210  0.99622  1.0000 -0.6098890538
O   O81       1.0  0.23888  0.02258  0.98606  1.0000 -0.5221788193
O   O82       1.0  0.26112  0.47742  0.48606  1.0000 -0.5221788193
O   O83       1.0  0.47742  0.26112  0.51394  1.0000 -0.5221788193
O   O84       1.0  0.02258  0.23888  0.01394  1.0000 -0.5221788193
O   O85       1.0  0.76112  0.97742  0.01394  1.0000 -0.5221788193
O   O86       1.0  0.73888  0.52258  0.51394  1.0000 -0.5221788193
O   O87       1.0  0.52258  0.73888  0.48606  1.0000 -0.5221788193
O   O88       1.0  0.97742  0.76112  0.98606  1.0000 -0.5221788193
O   O89       1.0  0.11309  0.43781  0.79276  1.0000 -0.548275997
O   O90       1.0  0.38691  0.06219  0.29276  1.0000 -0.548275997
O   O91       1.0  0.06219  0.38691  0.70724  1.0000 -0.548275997
O   O92       1.0  0.43781  0.11309  0.20724  1.0000 -0.548275997
O   O93       1.0  0.88691  0.56219  0.20724  1.0000 -0.548275997
O   O94       1.0  0.61309  0.93781  0.70724  1.0000 -0.548275997
O   O95       1.0  0.93781  0.61309  0.29276  1.0000 -0.548275997
O   O96       1.0  0.56219  0.88691  0.79276  1.0000 -0.548275997
O   O97       1.0  0.21023  0.51265  0.81385  1.0000 -0.548275997
O   O98       1.0  0.28977  0.98735  0.31385  1.0000 -0.548275997
O   O99       1.0  0.98735  0.28977  0.68615  1.0000 -0.548275997
O   O100      1.0  0.51265  0.21023  0.18615  1.0000 -0.548275997
O   O101      1.0  0.78977  0.48735  0.18615  1.0000 -0.548275997
O   O102      1.0  0.71023  0.01265  0.68615  1.0000 -0.548275997
O   O103      1.0  0.01265  0.71023  0.31385  1.0000 -0.548275997
O   O104      1.0  0.48735  0.78977  0.81385  1.0000 -0.548275997
O   O105      1.0  0.29189  0.04329  0.22457  1.0000 -0.5687637414
O   O106      1.0  0.20811  0.45671  0.72457  1.0000 -0.5687637414
O   O107      1.0  0.45671  0.20811  0.27543  1.0000 -0.5687637414
O   O108      1.0  0.04329  0.29189  0.77543  1.0000 -0.5687637414
O   O109      1.0  0.70811  0.95671  0.77543  1.0000 -0.5687637414
O   O110      1.0  0.79189  0.54329  0.27543  1.0000 -0.5687637414
O   O111      1.0  0.54329  0.79189  0.72457  1.0000 -0.5687637414
O   O112      1.0  0.95671  0.70811  0.22457  1.0000 -0.5687637414
O   O113      1.0  0.18809  0.02133  0.21196  1.0000 -0.5148728276
O   O114      1.0  0.31191  0.47867  0.71196  1.0000 -0.5221788193
O   O115      1.0  0.47867  0.31191  0.28804  1.0000 -0.5148728276
O   O116      1.0  0.02133  0.18809  0.78804  1.0000 -0.5148728276
O   O117      1.0  0.81191  0.97867  0.78804  1.0000 -0.5148728276
O   O118      1.0  0.68809  0.52133  0.28804  1.0000 -0.5148728276
O   O119      1.0  0.52133  0.68809  0.71196  1.0000 -0.5221788193
O   O120      1.0  0.97867  0.81191  0.21196  1.0000 -0.5148728276
O   O121      1.0  0.39319  0.69651  0.75012  1.0000 -0.3390529753
O   O122      1.0  0.10681  0.80349  0.25012  1.0000 -0.3390529753
O   O123      1.0  0.80349  0.10681  0.74988  1.0000 -0.3390529753
O   O124      1.0  0.69651  0.39319  0.24988  1.0000 -0.3390529753
O   O125      1.0  0.60681  0.30349  0.24988  1.0000 -0.3390529753
O   O126      1.0  0.89319  0.19651  0.74988  1.0000 -0.3390529753
O   O127      1.0  0.19651  0.89319  0.25012  1.0000 -0.3390529753
O   O128      1.0  0.30349  0.60681  0.75012  1.0000 -0.3390529753
O   O129      1.0  0.20742  0.88176  0.96200  1.0000 -0.3337347642
O   O130      1.0  0.29258  0.61824  0.46200  1.0000 -0.3337347642
O   O131      1.0  0.61824  0.29258  0.53800  1.0000 -0.3390529753
O   O132      1.0  0.88176  0.20742  0.03800  1.0000 -0.3337347642
O   O133      1.0  0.79258  0.11824  0.03800  1.0000 -0.3337347642
O   O134      1.0  0.70742  0.38176  0.53800  1.0000 -0.3390529753
O   O135      1.0  0.38176  0.70742  0.46200  1.0000 -0.3337347642
O   O136      1.0  0.11824  0.79258  0.96200  1.0000 -0.3337347642
