# DDEC6 charges by PACMAN v1.1 (https://github.com/mtap-research/PACMAN-charge/)
data_2016[Zn][cdl]3[FSR]1
_chemical_formula_sum              "Zn4 H36 C72 N12 O32"
_cell_length_a       8.0098
_cell_length_b       13.813
_cell_length_c       22.126
_cell_angle_alpha    90
_cell_angle_beta     98.25
_cell_angle_gamma    90

_symmetry_space_group_name_H-M    "P 1"
_symmetry_Int_Tables_number       1

loop_
  _symmetry_equiv_pos_as_xyz
  'x, y, z'

loop_
  _atom_site_type_symbol
  _atom_site_label
  _atom_site_symmetry_multiplicity
  _atom_site_fract_x
  _atom_site_fract_y
  _atom_site_fract_z
  _atom_site_occupancy
  _atom_site_charge
Zn  Zn1       1.0  0.80949  0.97901  0.84982  1.0000 0.9389787363
Zn  Zn2       1.0  0.19051  0.47901  0.65018  1.0000 0.9389787363
Zn  Zn3       1.0  0.19051  0.02099  0.15018  1.0000 0.9389787363
Zn  Zn4       1.0  0.80949  0.52099  0.34982  1.0000 0.9389787363
H   H1        1.0  0.92960  0.18690  0.84910  1.0000 0.3810759829
H   H2        1.0  0.07040  0.68690  0.65090  1.0000 0.3810759829
H   H3        1.0  0.07040  0.81310  0.15090  1.0000 0.3810759829
H   H4        1.0  0.92960  0.31310  0.34910  1.0000 0.3810759829
H   H5        1.0  0.52300  0.88790  0.95510  1.0000 0.3726857351
H   H6        1.0  0.47700  0.38790  0.54490  1.0000 0.3726857351
H   H7        1.0  0.47700  0.11210  0.04490  1.0000 0.3726857351
H   H8        1.0  0.52300  0.61210  0.45510  1.0000 0.3726857351
H   H9        1.0  0.35750  0.62360  0.04370  1.0000 0.2910065101
H   H10       1.0  0.64250  0.12360  0.45630  1.0000 0.2910065101
H   H11       1.0  0.64250  0.37640  0.95630  1.0000 0.2910065101
H   H12       1.0  0.35750  0.87640  0.54370  1.0000 0.2910065101
H   H13       1.0  0.90130  0.10320  0.03460  1.0000 0.1301979096
H   H14       1.0  0.09870  0.60320  0.46540  1.0000 0.1301979096
H   H15       1.0  0.09870  0.89680  0.96540  1.0000 0.1301979096
H   H16       1.0  0.90130  0.39680  0.53460  1.0000 0.1301979096
H   H17       1.0  0.08750  0.35120  0.11060  1.0000 0.1411358214
H   H18       1.0  0.91250  0.85120  0.38940  1.0000 0.1411358214
H   H19       1.0  0.91250  0.64880  0.88940  1.0000 0.1411358214
H   H20       1.0  0.08750  0.14880  0.61060  1.0000 0.1411358214
H   H21       1.0  0.07560  0.30710  0.93050  1.0000 0.1301979096
H   H22       1.0  0.92440  0.80710  0.56950  1.0000 0.1301979096
H   H23       1.0  0.92440  0.69290  0.06950  1.0000 0.1301979096
H   H24       1.0  0.07560  0.19290  0.43050  1.0000 0.1301979096
H   H25       1.0  0.45730  0.71690  0.96910  1.0000 0.1069900216
H   H26       1.0  0.54270  0.21690  0.53090  1.0000 0.1069900216
H   H27       1.0  0.54270  0.28310  0.03090  1.0000 0.1069900216
H   H28       1.0  0.45730  0.78310  0.46910  1.0000 0.1069900216
H   H29       1.0  0.52770  0.72960  0.79370  1.0000 0.1411358214
H   H30       1.0  0.47230  0.22960  0.70630  1.0000 0.1411358214
H   H31       1.0  0.47230  0.27040  0.20630  1.0000 0.1411358214
H   H32       1.0  0.52770  0.77040  0.29370  1.0000 0.1411358214
H   H33       1.0  0.26960  0.50730  0.85170  1.0000 0.1411358214
H   H34       1.0  0.73040  0.00730  0.64830  1.0000 0.1411358214
H   H35       1.0  0.73040  0.49270  0.14830  1.0000 0.1411358214
H   H36       1.0  0.26960  0.99270  0.35170  1.0000 0.1411358214
C   C1        1.0  0.93130  0.13270  0.91730  1.0000 0.5719180526
C   C2        1.0  0.06870  0.63270  0.58270  1.0000 0.5719180526
C   C3        1.0  0.06870  0.86730  0.08270  1.0000 0.5719180526
C   C4        1.0  0.93130  0.36730  0.41730  1.0000 0.5719180526
C   C5        1.0  0.97810  0.19550  0.97380  1.0000 -0.044097743
C   C6        1.0  0.02190  0.69550  0.52620  1.0000 -0.044097743
C   C7        1.0  0.02190  0.80450  0.02620  1.0000 -0.044097743
C   C8        1.0  0.97810  0.30450  0.47380  1.0000 -0.044097743
C   C9        1.0  0.94980  0.16360  0.03060  1.0000 -0.1287615663
C   C10       1.0  0.05020  0.66360  0.46940  1.0000 -0.1287615663
C   C11       1.0  0.05020  0.83640  0.96940  1.0000 -0.1287615663
C   C12       1.0  0.94980  0.33640  0.53060  1.0000 -0.1287615663
C   C13       1.0  0.99350  0.22140  0.08200  1.0000 -0.0177756651
C   C14       1.0  0.00650  0.72140  0.41800  1.0000 -0.0177756651
C   C15       1.0  0.00650  0.77860  0.91800  1.0000 -0.0177756651
C   C16       1.0  0.99350  0.27860  0.58200  1.0000 -0.0177756651
C   C17       1.0  0.06300  0.31160  0.07650  1.0000 -0.1224240838
C   C18       1.0  0.93700  0.81160  0.42350  1.0000 -0.1224240838
C   C19       1.0  0.93700  0.68840  0.92350  1.0000 -0.1224240838
C   C20       1.0  0.06300  0.18840  0.57650  1.0000 -0.1224240838
C   C21       1.0  0.09670  0.34350  0.01950  1.0000 0.0347126964
C   C22       1.0  0.90330  0.84350  0.48050  1.0000 0.0347126964
C   C23       1.0  0.90330  0.65650  0.98050  1.0000 0.0347126964
C   C24       1.0  0.09670  0.15650  0.51950  1.0000 0.0347126964
C   C25       1.0  0.05390  0.28570  0.96850  1.0000 -0.1595261473
C   C26       1.0  0.94610  0.78570  0.53150  1.0000 -0.1595261473
C   C27       1.0  0.94610  0.71430  0.03150  1.0000 -0.1595261473
C   C28       1.0  0.05390  0.21430  0.46850  1.0000 -0.1595261473
C   C29       1.0  0.96770  0.18390  0.14460  1.0000 0.5614983262
C   C30       1.0  0.03230  0.68390  0.35540  1.0000 0.5614983262
C   C31       1.0  0.03230  0.81610  0.85540  1.0000 0.5614983262
C   C32       1.0  0.96770  0.31610  0.64460  1.0000 0.5614983262
C   C33       1.0  0.18260  0.43700  0.01430  1.0000 0.2824627431
C   C34       1.0  0.81740  0.93700  0.48570  1.0000 0.2824627431
C   C35       1.0  0.81740  0.56300  0.98570  1.0000 0.2824627431
C   C36       1.0  0.18260  0.06300  0.51430  1.0000 0.2824627431
C   C37       1.0  0.29930  0.54890  0.96920  1.0000 0.2615929889
C   C38       1.0  0.70070  0.04890  0.53080  1.0000 0.2615929889
C   C39       1.0  0.70070  0.45110  0.03080  1.0000 0.2615929889
C   C40       1.0  0.29930  0.95110  0.46920  1.0000 0.2615929889
C   C41       1.0  0.35870  0.60020  0.91930  1.0000 0.0161413951
C   C42       1.0  0.64130  0.10020  0.58070  1.0000 0.0161413951
C   C43       1.0  0.64130  0.39980  0.08070  1.0000 0.0161413951
C   C44       1.0  0.35870  0.89980  0.41930  1.0000 0.0161413951
C   C45       1.0  0.44370  0.69030  0.93010  1.0000 -0.1595261473
C   C46       1.0  0.55630  0.19030  0.56990  1.0000 -0.1595261473
C   C47       1.0  0.55630  0.30970  0.06990  1.0000 -0.1595261473
C   C48       1.0  0.44370  0.80970  0.43010  1.0000 -0.1595261473
C   C49       1.0  0.50630  0.73890  0.88350  1.0000 -0.0480178064
C   C50       1.0  0.49370  0.23890  0.61650  1.0000 -0.0480178064
C   C51       1.0  0.49370  0.26110  0.11650  1.0000 -0.0480178064
C   C52       1.0  0.50630  0.76110  0.38350  1.0000 -0.0480178064
C   C53       1.0  0.48200  0.69870  0.82490  1.0000 -0.0671995105
C   C54       1.0  0.51800  0.19870  0.67510  1.0000 -0.0671995105
C   C55       1.0  0.51800  0.30130  0.17510  1.0000 -0.0671995105
C   C56       1.0  0.48200  0.80130  0.32490  1.0000 -0.0671995105
C   C57       1.0  0.39100  0.61350  0.81210  1.0000 -0.0032019038
C   C58       1.0  0.60900  0.11350  0.68790  1.0000 -0.0032019038
C   C59       1.0  0.60900  0.38650  0.18790  1.0000 -0.0032019038
C   C60       1.0  0.39100  0.88650  0.31210  1.0000 -0.0032019038
C   C61       1.0  0.33010  0.56450  0.85980  1.0000 -0.0846903501
C   C62       1.0  0.66990  0.06450  0.64020  1.0000 -0.0846903501
C   C63       1.0  0.66990  0.43550  0.14020  1.0000 -0.0846903501
C   C64       1.0  0.33010  0.93550  0.35980  1.0000 -0.0846903501
C   C65       1.0  0.35140  0.57790  0.74800  1.0000 0.5614983262
C   C66       1.0  0.64860  0.07790  0.75200  1.0000 0.5614983262
C   C67       1.0  0.64860  0.42210  0.25200  1.0000 0.5614983262
C   C68       1.0  0.35140  0.92210  0.24800  1.0000 0.5614983262
C   C69       1.0  0.59540  0.83280  0.89490  1.0000 0.5719180526
C   C70       1.0  0.40460  0.33280  0.60510  1.0000 0.5719180526
C   C71       1.0  0.40460  0.16720  0.10510  1.0000 0.5719180526
C   C72       1.0  0.59540  0.66720  0.39490  1.0000 0.5719180526
N   N1        1.0  0.21900  0.46290  0.95842  1.0000 -0.4217371
N   N2        1.0  0.78100  0.96290  0.54158  1.0000 -0.4217371
N   N3        1.0  0.78100  0.53710  0.04158  1.0000 -0.4217371
N   N4        1.0  0.21900  0.03710  0.45842  1.0000 -0.4217371
N   N5        1.0  0.31060  0.57240  0.02690  1.0000 -0.1595261473
N   N6        1.0  0.68940  0.07240  0.47310  1.0000 -0.1595261473
N   N7        1.0  0.68940  0.42760  0.97310  1.0000 -0.1595261473
N   N8        1.0  0.31060  0.92760  0.52690  1.0000 -0.1595261473
N   N9        1.0  0.23340  0.49990  0.05590  1.0000 -0.2565570949
N   N10       1.0  0.76660  0.99990  0.44410  1.0000 -0.2565570949
N   N11       1.0  0.76660  0.50010  0.94410  1.0000 -0.2565570949
N   N12       1.0  0.23340  0.00010  0.55590  1.0000 -0.2565570949
O   O1        1.0  0.83650  0.06140  0.92231  1.0000 -0.5319328262
O   O2        1.0  0.16350  0.56140  0.57769  1.0000 -0.5319328262
O   O3        1.0  0.16350  0.93860  0.07769  1.0000 -0.5319328262
O   O4        1.0  0.83650  0.43860  0.42231  1.0000 -0.5319328262
O   O5        1.0  0.99340  0.15140  0.87130  1.0000 -0.3618828682
O   O6        1.0  0.00660  0.65140  0.62870  1.0000 -0.3618828682
O   O7        1.0  0.00660  0.84860  0.12870  1.0000 -0.3618828682
O   O8        1.0  0.99340  0.34860  0.37130  1.0000 -0.3618828682
O   O9        1.0  0.97100  0.09230  0.15241  1.0000 -0.5788754923
O   O10       1.0  0.02900  0.59230  0.34759  1.0000 -0.5788754923
O   O11       1.0  0.02900  0.90770  0.84759  1.0000 -0.5788754923
O   O12       1.0  0.97100  0.40770  0.65241  1.0000 -0.5788754923
O   O13       1.0  0.94010  0.24290  0.18360  1.0000 -0.5196886463
O   O14       1.0  0.05990  0.74290  0.31640  1.0000 -0.5196886463
O   O15       1.0  0.05990  0.75710  0.81640  1.0000 -0.5196886463
O   O16       1.0  0.94010  0.25710  0.68360  1.0000 -0.5196886463
O   O17       1.0  0.23240  0.51610  0.73710  1.0000 -0.5411986066
O   O18       1.0  0.76760  0.01610  0.76290  1.0000 -0.5411986066
O   O19       1.0  0.76760  0.48390  0.26290  1.0000 -0.5411986066
O   O20       1.0  0.23240  0.98390  0.23710  1.0000 -0.5411986066
O   O21       1.0  0.43090  0.60890  0.70860  1.0000 -0.5466122581
O   O22       1.0  0.56910  0.10890  0.79140  1.0000 -0.5466122581
O   O23       1.0  0.56910  0.39110  0.29140  1.0000 -0.5466122581
O   O24       1.0  0.43090  0.89110  0.20860  1.0000 -0.5466122581
O   O25       1.0  0.65030  0.87150  0.84938  1.0000 -0.5031960411
O   O26       1.0  0.34970  0.37150  0.65062  1.0000 -0.5031960411
O   O27       1.0  0.34970  0.12850  0.15062  1.0000 -0.5031960411
O   O28       1.0  0.65030  0.62850  0.34938  1.0000 -0.5031960411
O   O29       1.0  0.61430  0.86880  0.94720  1.0000 -0.3798548458
O   O30       1.0  0.38570  0.36880  0.55280  1.0000 -0.3798548458
O   O31       1.0  0.38570  0.13120  0.05280  1.0000 -0.3798548458
O   O32       1.0  0.61430  0.63120  0.44720  1.0000 -0.3798548458
