# DDEC6 charges by PACMAN v1.1 (https://github.com/mtap-research/PACMAN-charge/)
data_2016[In][nan]3[FSR]2
_chemical_formula_sum              "In4 H12 C32 O24 F16"
_cell_length_a       11.0999
_cell_length_b       11.0999
_cell_length_c       14.376
_cell_angle_alpha    71.8604
_cell_angle_beta     108.14
_cell_angle_gamma    94.213

_symmetry_space_group_name_H-M    "P 1"
_symmetry_Int_Tables_number       1

loop_
  _symmetry_equiv_pos_as_xyz
  'x, y, z'

loop_
  _atom_site_type_symbol
  _atom_site_label
  _atom_site_symmetry_multiplicity
  _atom_site_fract_x
  _atom_site_fract_y
  _atom_site_fract_z
  _atom_site_occupancy
  _atom_site_charge
In  In1       1.0  1.00000  0.00000  0.50000  1.0000 1.516228081
In  In2       1.0  0.00000  0.00000  0.00000  1.0000 1.516228081
In  In3       1.0  0.06449  0.06449  0.25000  1.0000 1.485707761
In  In4       1.0  0.93551  0.93551  0.75000  1.0000 1.485707761
H   H1        1.0  0.14100  0.92100  0.42400  1.0000 0.3763240588
H   H2        1.0  0.92100  0.14100  0.07600  1.0000 0.3763240588
H   H3        1.0  0.85900  0.07900  0.57600  1.0000 0.3763240588
H   H4        1.0  0.07900  0.85900  0.92400  1.0000 0.3763240588
H   H5        1.0  0.05800  0.25000  0.31700  1.0000 0.3579282959
H   H6        1.0  0.25000  0.05800  0.18300  1.0000 0.3579282959
H   H7        1.0  0.94200  0.75000  0.68300  1.0000 0.3579282959
H   H8        1.0  0.75000  0.94200  0.81700  1.0000 0.3579282959
H   H9        1.0  0.02100  0.30900  0.21400  1.0000 0.3579282959
H   H10       1.0  0.30900  0.02100  0.28600  1.0000 0.3579282959
H   H11       1.0  0.97900  0.69100  0.78600  1.0000 0.3579282959
H   H12       1.0  0.69100  0.97900  0.71400  1.0000 0.3579282959
C   C1        1.0  0.90960  0.28180  0.43280  1.0000 0.6209458721
C   C2        1.0  0.28180  0.90960  0.06720  1.0000 0.6209458721
C   C3        1.0  0.09040  0.71820  0.56720  1.0000 0.6209458721
C   C4        1.0  0.71820  0.09040  0.93280  1.0000 0.6209458721
C   C5        1.0  0.93100  0.41760  0.37630  1.0000 -0.2322443376
C   C6        1.0  0.41760  0.93100  0.12370  1.0000 -0.2322443376
C   C7        1.0  0.06900  0.58240  0.62370  1.0000 -0.2322443376
C   C8        1.0  0.58240  0.06900  0.87630  1.0000 -0.2322443376
C   C9        1.0  0.05130  0.46590  0.39540  1.0000 0.1536640537
C   C10       1.0  0.46590  0.05130  0.10460  1.0000 0.1536640537
C   C11       1.0  0.94870  0.53410  0.60460  1.0000 0.1536640537
C   C12       1.0  0.53410  0.94870  0.89540  1.0000 0.1536640537
C   C13       1.0  0.07400  0.58780  0.33960  1.0000 0.1715832066
C   C14       1.0  0.58780  0.07400  0.16040  1.0000 0.1715832066
C   C15       1.0  0.92600  0.41220  0.66040  1.0000 0.1715832066
C   C16       1.0  0.41220  0.92600  0.83960  1.0000 0.1715832066
C   C17       1.0  0.97590  0.66490  0.26350  1.0000 -0.2042574573
C   C18       1.0  0.66490  0.97590  0.23650  1.0000 -0.2050466377
C   C19       1.0  0.02410  0.33510  0.73650  1.0000 -0.2050466377
C   C20       1.0  0.33510  0.02410  0.76350  1.0000 -0.2050466377
C   C21       1.0  0.85590  0.61590  0.24430  1.0000 0.1614624423
C   C22       1.0  0.61590  0.85590  0.25570  1.0000 0.1614624423
C   C23       1.0  0.14410  0.38410  0.75570  1.0000 0.1614624423
C   C24       1.0  0.38410  0.14410  0.74430  1.0000 0.1614624423
C   C25       1.0  0.83340  0.49460  0.30090  1.0000 0.1614624423
C   C26       1.0  0.49460  0.83340  0.19910  1.0000 0.1614624423
C   C27       1.0  0.16660  0.50540  0.69910  1.0000 0.1614624423
C   C28       1.0  0.50540  0.16660  0.80090  1.0000 0.1614624423
C   C29       1.0  0.00170  0.79770  0.20630  1.0000 0.662527324
C   C30       1.0  0.79770  0.00170  0.29370  1.0000 0.662527324
C   C31       1.0  0.99830  0.20230  0.79370  1.0000 0.662527324
C   C32       1.0  0.20230  0.99830  0.70630  1.0000 0.662527324
O   O1        1.0  0.97860  0.20180  0.42260  1.0000 -0.5909729886
O   O2        1.0  0.20180  0.97860  0.07740  1.0000 -0.5909729886
O   O3        1.0  0.02140  0.79820  0.57740  1.0000 -0.5909729886
O   O4        1.0  0.79820  0.02140  0.92260  1.0000 -0.5909729886
O   O5        1.0  0.83380  0.25900  0.48190  1.0000 -0.4698221746
O   O6        1.0  0.25900  0.83380  0.01810  1.0000 -0.4698221746
O   O7        1.0  0.16620  0.74100  0.51810  1.0000 -0.4698221746
O   O8        1.0  0.74100  0.16620  0.98190  1.0000 -0.4698221746
O   O9        1.0  0.96160  0.82900  0.11080  1.0000 -0.5251047599
O   O10       1.0  0.82900  0.96160  0.38920  1.0000 -0.5251047599
O   O11       1.0  0.03840  0.17100  0.88920  1.0000 -0.5245532978
O   O12       1.0  0.17100  0.03840  0.61080  1.0000 -0.5245532978
O   O13       1.0  0.06160  0.86440  0.26170  1.0000 -0.5909729886
O   O14       1.0  0.86440  0.06160  0.23830  1.0000 -0.5909729886
O   O15       1.0  0.93840  0.13560  0.73830  1.0000 -0.5909729886
O   O16       1.0  0.13560  0.93840  0.76170  1.0000 -0.5909729886
O   O17       1.0  0.11580  0.99580  0.41040  1.0000 -0.8816421169
O   O18       1.0  0.99580  0.11580  0.08960  1.0000 -0.8816421169
O   O19       1.0  0.88420  0.00420  0.58960  1.0000 -0.8816421169
O   O20       1.0  0.00420  0.88420  0.91040  1.0000 -0.8816421169
O   O21       1.0  0.07310  0.25290  0.26180  1.0000 -0.6276567566
O   O22       1.0  0.25290  0.07310  0.23820  1.0000 -0.6276567566
O   O23       1.0  0.92690  0.74710  0.73820  1.0000 -0.6276567566
O   O24       1.0  0.74710  0.92690  0.76180  1.0000 -0.6276567566
F   F1        1.0  0.14930  0.39670  0.46860  1.0000 -0.1018042793
F   F2        1.0  0.39670  0.14930  0.03140  1.0000 -0.1018042793
F   F3        1.0  0.85070  0.60330  0.53140  1.0000 -0.1018042793
F   F4        1.0  0.60330  0.85070  0.96860  1.0000 -0.1018042793
F   F5        1.0  0.19320  0.62740  0.35900  1.0000 -0.1018042793
F   F6        1.0  0.62740  0.19320  0.14100  1.0000 -0.1018042793
F   F7        1.0  0.80680  0.37260  0.64100  1.0000 -0.1018042793
F   F8        1.0  0.37260  0.80680  0.85900  1.0000 -0.1018042793
F   F9        1.0  0.75790  0.68650  0.17170  1.0000 -0.1018042793
F   F10       1.0  0.68650  0.75790  0.32830  1.0000 -0.1018042793
F   F11       1.0  0.24210  0.31350  0.82830  1.0000 -0.1018042793
F   F12       1.0  0.31350  0.24210  0.67170  1.0000 -0.1018042793
F   F13       1.0  0.71560  0.45160  0.27700  1.0000 -0.1018042793
F   F14       1.0  0.45160  0.71560  0.22300  1.0000 -0.0945870268
F   F15       1.0  0.28440  0.54840  0.72300  1.0000 -0.0945870268
F   F16       1.0  0.54840  0.28440  0.77700  1.0000 -0.0945870268
