# DDEC6 charges by PACMAN v1.1 (https://github.com/mtap-research/PACMAN-charge/)
data_2016[Zn][rtl]3[FSR]3
_chemical_formula_sum              "Zn4 H12 C36 O24"
_cell_length_a       9.1657
_cell_length_b       15.5849
_cell_length_c       13.5302
_cell_angle_alpha    90
_cell_angle_beta     107.469
_cell_angle_gamma    90

_symmetry_space_group_name_H-M    "P 1"
_symmetry_Int_Tables_number       1

loop_
  _symmetry_equiv_pos_as_xyz
  'x, y, z'

loop_
  _atom_site_type_symbol
  _atom_site_label
  _atom_site_symmetry_multiplicity
  _atom_site_fract_x
  _atom_site_fract_y
  _atom_site_fract_z
  _atom_site_occupancy
  _atom_site_charge
Zn  Zn1       1.0  0.62092  0.44815  0.75186  1.0000 0.9753936761
Zn  Zn2       1.0  0.37908  0.94815  0.24814  1.0000 0.9741110438
Zn  Zn3       1.0  0.87332  0.25484  0.74785  1.0000 0.9741110438
Zn  Zn4       1.0  0.12668  0.75484  0.25215  1.0000 0.9753936761
H   H1        1.0  0.97410  0.55160  0.00160  1.0000 0.1413767868
H   H2        1.0  0.02590  0.05160  0.99840  1.0000 0.1413767868
H   H3        1.0  0.39840  0.63300  0.01770  1.0000 0.1267930949
H   H4        1.0  0.60160  0.13300  0.98230  1.0000 0.1267930949
H   H5        1.0  0.20710  0.43640  0.82880  1.0000 0.1413767868
H   H6        1.0  0.79290  0.93640  0.17120  1.0000 0.1413767868
H   H7        1.0  0.51690  0.15360  0.49370  1.0000 0.1413767868
H   H8        1.0  0.48310  0.65360  0.50630  1.0000 0.1413767868
H   H9        1.0  0.09390  0.07010  0.47950  1.0000 0.1267930949
H   H10       1.0  0.90610  0.57010  0.52050  1.0000 0.1267930949
H   H11       1.0  0.28090  0.26870  0.66530  1.0000 0.1413767868
H   H12       1.0  0.71910  0.76870  0.33470  1.0000 0.1413767868
C   C1        1.0  0.07070  0.48610  0.90760  1.0000 -0.0119137127
C   C2        1.0  0.92930  0.98610  0.09240  1.0000 -0.0206182873
C   C3        1.0  0.06290  0.54700  0.98090  1.0000 -0.0897879204
C   C4        1.0  0.93710  0.04700  0.01910  1.0000 -0.0897879204
C   C5        1.0  0.18660  0.60130  0.02360  1.0000 -0.0119137127
C   C6        1.0  0.81340  0.10130  0.97640  1.0000 -0.003966433
C   C7        1.0  0.31610  0.59520  0.99040  1.0000 -0.0897879204
C   C8        1.0  0.68390  0.09520  0.00960  1.0000 -0.0897879204
C   C9        1.0  0.32580  0.53410  0.91740  1.0000 -0.0206182873
C   C10       1.0  0.67420  0.03410  0.08260  1.0000 -0.0206182873
C   C11       1.0  0.20160  0.47880  0.87700  1.0000 -0.0897879204
C   C12       1.0  0.79840  0.97880  0.12300  1.0000 -0.0897879204
C   C13       1.0  0.93960  0.42610  0.85890  1.0000 0.5941556776
C   C14       1.0  0.06040  0.92610  0.14110  1.0000 0.5941556776
C   C15       1.0  0.18340  0.66560  0.10510  1.0000 0.5243104333
C   C16       1.0  0.81660  0.16560  0.89490  1.0000 0.5243104333
C   C17       1.0  0.46520  0.52640  0.88160  1.0000 0.5414082044
C   C18       1.0  0.53480  0.02640  0.11840  1.0000 0.5414082044
C   C19       1.0  0.41910  0.21970  0.58760  1.0000 -0.0206182873
C   C20       1.0  0.58090  0.71970  0.41240  1.0000 -0.0206182873
C   C21       1.0  0.42840  0.15790  0.51490  1.0000 -0.0897879204
C   C22       1.0  0.57160  0.65790  0.48510  1.0000 -0.0897879204
C   C23       1.0  0.30540  0.10270  0.47390  1.0000 0.0052875401
C   C24       1.0  0.69460  0.60270  0.52610  1.0000 0.0052875401
C   C25       1.0  0.17540  0.10850  0.50610  1.0000 -0.0968268989
C   C26       1.0  0.82460  0.60850  0.49390  1.0000 -0.0968268989
C   C27       1.0  0.16490  0.17050  0.57730  1.0000 -0.0119137127
C   C28       1.0  0.83510  0.67050  0.42270  1.0000 -0.0119137127
C   C29       1.0  0.28760  0.22630  0.61750  1.0000 -0.0897879204
C   C30       1.0  0.71240  0.72630  0.38250  1.0000 -0.0897879204
C   C31       1.0  0.55220  0.27580  0.63780  1.0000 0.5941556776
C   C32       1.0  0.44780  0.77580  0.36220  1.0000 0.5941556776
C   C33       1.0  0.31150  0.03640  0.39350  1.0000 0.5293097728
C   C34       1.0  0.68850  0.53640  0.60650  1.0000 0.5293097728
C   C35       1.0  0.02630  0.17680  0.61500  1.0000 0.5293097728
C   C36       1.0  0.97370  0.67680  0.38500  1.0000 0.5293097728
O   O1        1.0  0.97060  0.35980  0.81790  1.0000 -0.4862328089
O   O2        1.0  0.02940  0.85980  0.18210  1.0000 -0.4862328089
O   O3        1.0  0.81000  0.44820  0.86490  1.0000 -0.4862328089
O   O4        1.0  0.19000  0.94820  0.13510  1.0000 -0.4862328089
O   O5        1.0  0.06250  0.66790  0.13580  1.0000 -0.4535536772
O   O6        1.0  0.93750  0.16790  0.86420  1.0000 -0.4535536772
O   O7        1.0  0.29380  0.71310  0.14370  1.0000 -0.4535536772
O   O8        1.0  0.70620  0.21310  0.85630  1.0000 -0.4580848964
O   O9        1.0  0.57010  0.58060  0.90910  1.0000 -0.398938871
O   O10       1.0  0.42990  0.08060  0.09090  1.0000 -0.3946667081
O   O11       1.0  0.46310  0.46340  0.82120  1.0000 -0.4580848964
O   O12       1.0  0.53690  0.96340  0.17880  1.0000 -0.4580848964
O   O13       1.0  0.52260  0.34310  0.68100  1.0000 -0.4986266858
O   O14       1.0  0.47740  0.84310  0.31900  1.0000 -0.4986266858
O   O15       1.0  0.68220  0.25390  0.63450  1.0000 -0.4751874274
O   O16       1.0  0.31780  0.75390  0.36550  1.0000 -0.4751874274
O   O17       1.0  0.43060  0.03530  0.36190  1.0000 -0.4535536772
O   O18       1.0  0.56940  0.53530  0.63810  1.0000 -0.4535536772
O   O19       1.0  0.20330  0.98650  0.35780  1.0000 -0.4580848964
O   O20       1.0  0.79670  0.48650  0.64220  1.0000 -0.4580848964
O   O21       1.0  0.92340  0.12430  0.58950  1.0000 -0.3831484234
O   O22       1.0  0.07660  0.62430  0.41050  1.0000 -0.3831484234
O   O23       1.0  0.02780  0.24140  0.67560  1.0000 -0.4580848964
O   O24       1.0  0.97220  0.74140  0.32440  1.0000 -0.4580848964
