# DDEC6 charges by PACMAN v1.1 (https://github.com/mtap-research/PACMAN-charge/)
data_2016[Tb][nan]3[FSR]4
_chemical_formula_sum              "Tb8 H184 C192 N28 O76"
_cell_length_a       21.228
_cell_length_b       21.228
_cell_length_c       19.238
_cell_angle_alpha    90
_cell_angle_beta     90
_cell_angle_gamma    120

_symmetry_space_group_name_H-M    "P 1"
_symmetry_Int_Tables_number       1

loop_
  _symmetry_equiv_pos_as_xyz
  'x, y, z'

loop_
  _atom_site_type_symbol
  _atom_site_label
  _atom_site_symmetry_multiplicity
  _atom_site_fract_x
  _atom_site_fract_y
  _atom_site_fract_z
  _atom_site_occupancy
  _atom_site_charge
Tb  Tb1       1.0  0.05284  0.59578  0.56114  1.0000 2.0355374351
Tb  Tb2       1.0  0.59578  0.05284  0.93886  1.0000 2.0355374351
Tb  Tb3       1.0  0.94716  0.40422  0.43886  1.0000 2.0355374351
Tb  Tb4       1.0  0.40422  0.94716  0.06114  1.0000 2.0355374351
Tb  Tb5       1.0  0.52288  0.13648  0.53035  1.0000 2.0020938649
Tb  Tb6       1.0  0.13648  0.52288  0.96965  1.0000 2.0020938649
Tb  Tb7       1.0  0.47712  0.86352  0.46965  1.0000 2.0020938649
Tb  Tb8       1.0  0.86352  0.47712  0.03035  1.0000 2.0020938649
H   H1        1.0  0.22760  0.22940  0.65020  1.0000 0.1214713298
H   H2        1.0  0.22940  0.22760  0.84980  1.0000 0.1214713298
H   H3        1.0  0.77240  0.77060  0.34980  1.0000 0.1214713298
H   H4        1.0  0.77060  0.77240  0.15020  1.0000 0.1214713298
H   H5        1.0  0.23790  0.12970  0.62090  1.0000 0.1099700487
H   H6        1.0  0.12970  0.23790  0.87910  1.0000 0.1099700487
H   H7        1.0  0.76210  0.87030  0.37910  1.0000 0.1099700487
H   H8        1.0  0.87030  0.76210  0.12090  1.0000 0.1099700487
H   H9        1.0  0.02840  0.99980  0.65960  1.0000 0.1306871078
H   H10       1.0  0.99980  0.02840  0.84040  1.0000 0.1306871078
H   H11       1.0  0.97160  0.00020  0.34040  1.0000 0.1306871078
H   H12       1.0  0.00020  0.97160  0.15960  1.0000 0.1306871078
H   H13       1.0  0.01620  0.10000  0.68490  1.0000 0.1214713298
H   H14       1.0  0.10000  0.01620  0.81510  1.0000 0.1214713298
H   H15       1.0  0.98380  0.90000  0.31510  1.0000 0.1214713298
H   H16       1.0  0.90000  0.98380  0.18490  1.0000 0.1214713298
H   H17       1.0  0.31790  0.02390  0.53660  1.0000 0.1214713298
H   H18       1.0  0.02390  0.31790  0.96340  1.0000 0.1214713298
H   H19       1.0  0.68210  0.97610  0.46340  1.0000 0.1214713298
H   H20       1.0  0.97610  0.68210  0.03660  1.0000 0.1214713298
H   H21       1.0  0.27990  0.82110  0.50610  1.0000 0.1306871078
H   H22       1.0  0.82110  0.27990  0.99390  1.0000 0.1306871078
H   H23       1.0  0.72010  0.17890  0.49390  1.0000 0.1306871078
H   H24       1.0  0.17890  0.72010  0.00610  1.0000 0.1306871078
H   H25       1.0  0.12210  0.85310  0.58410  1.0000 0.1406678781
H   H26       1.0  0.85310  0.12210  0.91590  1.0000 0.1406678781
H   H27       1.0  0.87790  0.14690  0.41590  1.0000 0.1406678781
H   H28       1.0  0.14690  0.87790  0.08410  1.0000 0.1406678781
H   H29       1.0  0.01240  0.30380  0.61150  1.0000 0.1406678781
H   H30       1.0  0.30380  0.01240  0.88850  1.0000 0.1406678781
H   H31       1.0  0.98760  0.69620  0.38850  1.0000 0.1406678781
H   H32       1.0  0.69620  0.98760  0.11150  1.0000 0.1483222314
H   H33       1.0  0.05030  0.47490  0.72970  1.0000 0.1306871078
H   H34       1.0  0.47490  0.05030  0.77030  1.0000 0.1306871078
H   H35       1.0  0.94970  0.52510  0.27030  1.0000 0.1306871078
H   H36       1.0  0.52510  0.94970  0.22970  1.0000 0.1306871078
H   H37       1.0  0.08960  0.32260  0.80490  1.0000 0.1214713298
H   H38       1.0  0.32260  0.08960  0.69510  1.0000 0.1214713298
H   H39       1.0  0.91040  0.67740  0.19510  1.0000 0.1214713298
H   H40       1.0  0.67740  0.91040  0.30490  1.0000 0.1214713298
H   H41       1.0  0.23240  0.29000  0.27310  1.0000 0.1306871078
H   H42       1.0  0.29000  0.23240  0.22690  1.0000 0.1306871078
H   H43       1.0  0.76760  0.71000  0.72690  1.0000 0.1306871078
H   H44       1.0  0.71000  0.76760  0.77310  1.0000 0.1306871078
H   H45       1.0  0.41350  0.47310  0.27110  1.0000 0.1099700487
H   H46       1.0  0.47310  0.41350  0.22890  1.0000 0.1099700487
H   H47       1.0  0.58650  0.52690  0.72890  1.0000 0.1099700487
H   H48       1.0  0.52690  0.58650  0.77110  1.0000 0.1099700487
H   H49       1.0  0.18260  0.44980  0.38220  1.0000 0.1306871078
H   H50       1.0  0.44980  0.18260  0.11780  1.0000 0.1306871078
H   H51       1.0  0.81740  0.55020  0.61780  1.0000 0.1306871078
H   H52       1.0  0.55020  0.81740  0.88220  1.0000 0.1306871078
H   H53       1.0  0.22870  0.64090  0.46740  1.0000 0.1306871078
H   H54       1.0  0.64090  0.22870  0.03260  1.0000 0.1306871078
H   H55       1.0  0.77130  0.35910  0.53260  1.0000 0.1306871078
H   H56       1.0  0.35910  0.77130  0.96740  1.0000 0.1306871078
H   H57       1.0  0.38460  0.62100  0.36770  1.0000 0.1306871078
H   H58       1.0  0.62100  0.38460  0.13230  1.0000 0.1306871078
H   H59       1.0  0.61540  0.37900  0.63230  1.0000 0.1306871078
H   H60       1.0  0.37900  0.61540  0.86770  1.0000 0.1306871078
H   H61       1.0  0.36110  0.27530  0.52050  1.0000 0.1099700487
H   H62       1.0  0.27530  0.36110  0.97950  1.0000 0.1099700487
H   H63       1.0  0.63890  0.72470  0.47950  1.0000 0.1099700487
H   H64       1.0  0.72470  0.63890  0.02050  1.0000 0.1099700487
H   H65       1.0  0.38550  0.33150  0.45190  1.0000 0.1306871078
H   H66       1.0  0.33150  0.38550  0.04810  1.0000 0.1306871078
H   H67       1.0  0.61450  0.66850  0.54810  1.0000 0.1306871078
H   H68       1.0  0.66850  0.61450  0.95190  1.0000 0.1306871078
H   H69       1.0  0.32910  0.25570  0.45860  1.0000 0.1099700487
H   H70       1.0  0.25570  0.32910  0.04140  1.0000 0.1099700487
H   H71       1.0  0.67090  0.74430  0.54140  1.0000 0.1099700487
H   H72       1.0  0.74430  0.67090  0.95860  1.0000 0.1099700487
H   H73       1.0  0.52850  0.34290  0.43510  1.0000 0.1406678781
H   H74       1.0  0.34290  0.52850  0.06490  1.0000 0.1406678781
H   H75       1.0  0.47150  0.65710  0.56490  1.0000 0.1406678781
H   H76       1.0  0.65710  0.47150  0.93510  1.0000 0.1406678781
H   H77       1.0  0.49600  0.28480  0.37560  1.0000 0.1306871078
H   H78       1.0  0.28480  0.49600  0.12440  1.0000 0.1306871078
H   H79       1.0  0.50400  0.71520  0.62440  1.0000 0.1306871078
H   H80       1.0  0.71520  0.50400  0.87560  1.0000 0.1306871078
H   H81       1.0  0.47340  0.34460  0.38190  1.0000 0.1214713298
H   H82       1.0  0.34460  0.47340  0.11810  1.0000 0.1214713298
H   H83       1.0  0.52660  0.65540  0.61810  1.0000 0.1214713298
H   H84       1.0  0.65540  0.52660  0.88190  1.0000 0.1214713298
H   H85       1.0  0.39060  0.18520  0.51280  1.0000 0.1099700487
H   H86       1.0  0.18520  0.39060  0.98720  1.0000 0.1099700487
H   H87       1.0  0.60940  0.81480  0.48720  1.0000 0.1099700487
H   H88       1.0  0.81480  0.60940  0.01280  1.0000 0.1099700487
H   H89       1.0  0.51910  0.14410  0.22650  1.0000 0.1214713298
H   H90       1.0  0.14410  0.51910  0.27350  1.0000 0.1214713298
H   H91       1.0  0.48090  0.85590  0.77350  1.0000 0.1214713298
H   H92       1.0  0.85590  0.48090  0.72650  1.0000 0.1214713298
H   H93       1.0  0.59560  0.15760  0.20300  1.0000 0.1406678781
H   H94       1.0  0.15760  0.59560  0.29700  1.0000 0.1406678781
H   H95       1.0  0.40440  0.84240  0.79700  1.0000 0.1406678781
H   H96       1.0  0.84240  0.40440  0.70300  1.0000 0.1406678781
H   H97       1.0  0.53170  0.07790  0.21540  1.0000 0.1406678781
H   H98       1.0  0.07790  0.53170  0.28460  1.0000 0.1406678781
H   H99       1.0  0.46830  0.92210  0.78460  1.0000 0.1406678781
H   H100      1.0  0.92210  0.46830  0.71540  1.0000 0.1406678781
H   H101      1.0  0.63390  0.08830  0.34210  1.0000 0.1406678781
H   H102      1.0  0.08830  0.63390  0.15790  1.0000 0.1406678781
H   H103      1.0  0.36610  0.91170  0.65790  1.0000 0.1406678781
H   H104      1.0  0.91170  0.36610  0.84210  1.0000 0.1406678781
H   H105      1.0  0.64950  0.10550  0.26270  1.0000 0.1306871078
H   H106      1.0  0.10550  0.64950  0.23730  1.0000 0.1306871078
H   H107      1.0  0.35050  0.89450  0.73730  1.0000 0.1306871078
H   H108      1.0  0.89450  0.35050  0.76270  1.0000 0.1306871078
H   H109      1.0  0.68340  0.16880  0.31720  1.0000 0.1306871078
H   H110      1.0  0.16880  0.68340  0.18280  1.0000 0.1306871078
H   H111      1.0  0.31660  0.83120  0.68280  1.0000 0.1306871078
H   H112      1.0  0.83120  0.31660  0.81720  1.0000 0.1306871078
H   H113      1.0  0.50130  0.12970  0.34750  1.0000 0.1306871078
H   H114      1.0  0.12970  0.50130  0.15250  1.0000 0.1306871078
H   H115      1.0  0.49870  0.87030  0.65250  1.0000 0.1306871078
H   H116      1.0  0.87030  0.49870  0.84750  1.0000 0.1306871078
H   H117      1.0  0.34260  0.68360  0.60960  1.0000 0.1406678781
H   H118      1.0  0.68360  0.34260  0.89040  1.0000 0.1406678781
H   H119      1.0  0.65740  0.31640  0.39040  1.0000 0.1406678781
H   H120      1.0  0.31640  0.65740  0.10960  1.0000 0.1406678781
H   H121      1.0  0.36670  0.71930  0.68330  1.0000 0.1214713298
H   H122      1.0  0.71930  0.36670  0.81670  1.0000 0.1214713298
H   H123      1.0  0.63330  0.28070  0.31670  1.0000 0.1214713298
H   H124      1.0  0.28070  0.63330  0.18330  1.0000 0.1214713298
H   H125      1.0  0.35260  0.64040  0.67040  1.0000 0.1306871078
H   H126      1.0  0.64040  0.35260  0.82960  1.0000 0.1306871078
H   H127      1.0  0.64740  0.35960  0.32960  1.0000 0.1306871078
H   H128      1.0  0.35960  0.64740  0.17040  1.0000 0.1306871078
H   H129      1.0  0.18920  0.59820  0.75370  1.0000 0.1483222314
H   H130      1.0  0.59820  0.18920  0.74630  1.0000 0.1483222314
H   H131      1.0  0.81080  0.40180  0.24630  1.0000 0.1483222314
H   H132      1.0  0.40180  0.81080  0.25370  1.0000 0.1483222314
H   H133      1.0  0.24760  0.57380  0.74980  1.0000 0.1406678781
H   H134      1.0  0.57380  0.24760  0.75020  1.0000 0.1406678781
H   H135      1.0  0.75240  0.42620  0.25020  1.0000 0.1406678781
H   H136      1.0  0.42620  0.75240  0.24980  1.0000 0.1406678781
H   H137      1.0  0.26860  0.65060  0.77950  1.0000 0.1306871078
H   H138      1.0  0.65060  0.26860  0.72050  1.0000 0.1306871078
H   H139      1.0  0.73140  0.34940  0.22050  1.0000 0.1306871078
H   H140      1.0  0.34940  0.73140  0.27950  1.0000 0.1306871078
H   H141      1.0  0.23530  0.66030  0.59160  1.0000 0.1214713298
H   H142      1.0  0.66030  0.23530  0.90840  1.0000 0.1214713298
H   H143      1.0  0.76470  0.33970  0.40840  1.0000 0.1214713298
H   H144      1.0  0.33970  0.76470  0.09160  1.0000 0.1214713298
H   H145      1.0  0.05420  0.60000  0.79690  1.0000 0.1483222314
H   H146      1.0  0.60000  0.05420  0.70310  1.0000 0.1483222314
H   H147      1.0  0.94580  0.40000  0.20310  1.0000 0.1483222314
H   H148      1.0  0.40000  0.94580  0.29690  1.0000 0.1483222314
H   H149      1.0  0.07670  0.66970  0.84170  1.0000 0.1406678781
H   H150      1.0  0.66970  0.07670  0.65830  1.0000 0.1406678781
H   H151      1.0  0.92330  0.33030  0.15830  1.0000 0.1406678781
H   H152      1.0  0.33030  0.92330  0.34170  1.0000 0.1406678781
H   H153      1.0  0.00500  0.59700  0.85910  1.0000 0.1306871078
H   H154      1.0  0.59700  0.00500  0.64090  1.0000 0.1306871078
H   H155      1.0  0.99500  0.40300  0.14090  1.0000 0.1306871078
H   H156      1.0  0.40300  0.99500  0.35910  1.0000 0.1306871078
H   H157      1.0  0.93090  0.68750  0.77080  1.0000 0.1406678781
H   H158      1.0  0.68750  0.93090  0.72920  1.0000 0.1406678781
H   H159      1.0  0.06910  0.31250  0.22920  1.0000 0.1406678781
H   H160      1.0  0.31250  0.06910  0.27080  1.0000 0.1406678781
H   H161      1.0  0.92310  0.64550  0.84020  1.0000 0.1214713298
H   H162      1.0  0.64550  0.92310  0.65980  1.0000 0.1214713298
H   H163      1.0  0.07690  0.35450  0.15980  1.0000 0.1214713298
H   H164      1.0  0.35450  0.07690  0.34020  1.0000 0.1214713298
H   H165      1.0  0.99020  0.72340  0.82900  1.0000 0.1406678781
H   H166      1.0  0.72340  0.99020  0.67100  1.0000 0.1406678781
H   H167      1.0  0.00980  0.27660  0.17100  1.0000 0.1406678781
H   H168      1.0  0.27660  0.00980  0.32900  1.0000 0.1406678781
H   H169      1.0  0.97280  0.65240  0.68110  1.0000 0.1099700487
H   H170      1.0  0.65240  0.97280  0.81890  1.0000 0.1099700487
H   H171      1.0  0.02720  0.34760  0.31890  1.0000 0.1099700487
H   H172      1.0  0.34760  0.02720  0.18110  1.0000 0.1099700487
H   H173      1.0  0.01450  0.19590  0.69070  1.0000 0.284813626
H   H174      1.0  0.19590  0.01450  0.80930  1.0000 0.284813626
H   H175      1.0  0.98550  0.80410  0.30930  1.0000 0.284813626
H   H176      1.0  0.80410  0.98550  0.19070  1.0000 0.284813626
H   H177      1.0  0.22130  0.04270  0.56410  1.0000 0.2728444955
H   H178      1.0  0.04270  0.22130  0.93590  1.0000 0.2728444955
H   H179      1.0  0.77870  0.95730  0.43590  1.0000 0.2728444955
H   H180      1.0  0.95730  0.77870  0.06410  1.0000 0.2728444955
H   H181      1.0  0.36220  0.50840  0.32940  1.0000 0.2728444955
H   H182      1.0  0.50840  0.36220  0.17060  1.0000 0.2728444955
H   H183      1.0  0.63780  0.49160  0.67060  1.0000 0.2728444955
H   H184      1.0  0.49160  0.63780  0.82940  1.0000 0.2728444955
C   C1        1.0  0.12053  0.17487  0.67000  1.0000 -0.0209547822
C   C2        1.0  0.17487  0.12053  0.83000  1.0000 -0.0209547822
C   C3        1.0  0.87947  0.82513  0.33000  1.0000 -0.0209547822
C   C4        1.0  0.82513  0.87947  0.17000  1.0000 -0.0209547822
C   C5        1.0  0.18666  0.18314  0.65130  1.0000 -0.0982818656
C   C6        1.0  0.18314  0.18666  0.84870  1.0000 -0.0982818656
C   C7        1.0  0.81334  0.81686  0.34870  1.0000 -0.0982818656
C   C8        1.0  0.81686  0.81334  0.15130  1.0000 -0.0982818656
C   C9        1.0  0.19300  0.12320  0.63430  1.0000 -0.148353148
C   C10       1.0  0.12320  0.19300  0.86570  1.0000 -0.148353148
C   C11       1.0  0.80700  0.87680  0.36570  1.0000 -0.148353148
C   C12       1.0  0.87680  0.80700  0.13430  1.0000 -0.148353148
C   C13       1.0  0.13460  0.05528  0.63690  1.0000 -0.0275432977
C   C14       1.0  0.05528  0.13460  0.86310  1.0000 -0.0275432977
C   C15       1.0  0.86540  0.94472  0.36310  1.0000 -0.0275432977
C   C16       1.0  0.94472  0.86540  0.13690  1.0000 -0.0275432977
C   C17       1.0  0.06865  0.04635  0.65670  1.0000 -0.0982818656
C   C18       1.0  0.04635  0.06865  0.84330  1.0000 -0.0982818656
C   C19       1.0  0.93135  0.95365  0.34330  1.0000 -0.0982818656
C   C20       1.0  0.95365  0.93135  0.15670  1.0000 -0.0982818656
C   C21       1.0  0.06139  0.10641  0.67260  1.0000 -0.1324552468
C   C22       1.0  0.10641  0.06139  0.82740  1.0000 -0.1324552468
C   C23       1.0  0.93861  0.89359  0.32740  1.0000 -0.1324552468
C   C24       1.0  0.89359  0.93861  0.17260  1.0000 -0.1324552468
C   C25       1.0  0.14059  0.98829  0.62510  1.0000 0.4588608838
C   C26       1.0  0.98829  0.14059  0.87490  1.0000 0.4588608838
C   C27       1.0  0.85941  0.01171  0.37490  1.0000 0.4588608838
C   C28       1.0  0.01171  0.85941  0.12510  1.0000 0.4588608838
C   C29       1.0  0.11930  0.24290  0.69100  1.0000 0.4588608838
C   C30       1.0  0.24290  0.11930  0.80900  1.0000 0.4588608838
C   C31       1.0  0.88070  0.75710  0.30900  1.0000 0.4588608838
C   C32       1.0  0.75710  0.88070  0.19100  1.0000 0.4588608838
C   C33       1.0  0.21578  0.94666  0.56353  1.0000 0.2278286985
C   C34       1.0  0.94666  0.21578  0.93647  1.0000 0.2278286985
C   C35       1.0  0.78422  0.05334  0.43647  1.0000 0.2278286985
C   C36       1.0  0.05334  0.78422  0.06353  1.0000 0.2278286985
C   C37       1.0  0.28664  0.97394  0.53895  1.0000 -0.2097057759
C   C38       1.0  0.97394  0.28664  0.96105  1.0000 -0.2097057759
C   C39       1.0  0.71336  0.02606  0.46105  1.0000 -0.2097057759
C   C40       1.0  0.02606  0.71336  0.03895  1.0000 -0.2097057759
C   C41       1.0  0.31072  0.92756  0.51817  1.0000 -0.0275432977
C   C42       1.0  0.92756  0.31072  0.98183  1.0000 -0.0275432977
C   C43       1.0  0.68928  0.07244  0.48183  1.0000 -0.0275432977
C   C44       1.0  0.07244  0.68928  0.01817  1.0000 -0.0275432977
C   C45       1.0  0.26410  0.85268  0.52066  1.0000 -0.1324552468
C   C46       1.0  0.85268  0.26410  0.97934  1.0000 -0.1324552468
C   C47       1.0  0.73590  0.14732  0.47934  1.0000 -0.1324552468
C   C48       1.0  0.14732  0.73590  0.02066  1.0000 -0.1324552468
C   C49       1.0  0.19389  0.82563  0.54497  1.0000 0.0012159732
C   C50       1.0  0.82563  0.19389  0.95503  1.0000 0.0012159732
C   C51       1.0  0.80611  0.17437  0.45503  1.0000 0.0012159732
C   C52       1.0  0.17437  0.80611  0.04497  1.0000 0.0012159732
C   C53       1.0  0.16917  0.87197  0.56711  1.0000 -0.189650824
C   C54       1.0  0.87197  0.16917  0.93289  1.0000 -0.189650824
C   C55       1.0  0.83083  0.12803  0.43289  1.0000 -0.189650824
C   C56       1.0  0.12803  0.83083  0.06711  1.0000 -0.189650824
C   C57       1.0  0.38792  0.95860  0.49290  1.0000 0.6365433767
C   C58       1.0  0.95860  0.38792  0.00710  1.0000 0.6365433767
C   C59       1.0  0.61208  0.04140  0.50710  1.0000 0.6365433767
C   C60       1.0  0.04140  0.61208  0.99290  1.0000 0.6365433767
C   C61       1.0  0.14208  0.74516  0.54682  1.0000 0.550738348
C   C62       1.0  0.74516  0.14208  0.95318  1.0000 0.550738348
C   C63       1.0  0.85792  0.25484  0.45318  1.0000 0.550738348
C   C64       1.0  0.25484  0.85792  0.04682  1.0000 0.550738348
C   C65       1.0  0.05166  0.30358  0.70700  1.0000 0.2128377578
C   C66       1.0  0.30358  0.05166  0.79300  1.0000 0.2128377578
C   C67       1.0  0.94834  0.69642  0.29300  1.0000 0.2128377578
C   C68       1.0  0.69642  0.94834  0.20700  1.0000 0.2128377578
C   C69       1.0  0.02759  0.32923  0.65315  1.0000 -0.189650824
C   C70       1.0  0.32923  0.02759  0.84685  1.0000 -0.189650824
C   C71       1.0  0.97241  0.67077  0.34685  1.0000 -0.189650824
C   C72       1.0  0.67077  0.97241  0.15315  1.0000 -0.189650824
C   C73       1.0  0.02643  0.39325  0.66201  1.0000 -0.0209547822
C   C74       1.0  0.39325  0.02643  0.83799  1.0000 -0.0209547822
C   C75       1.0  0.97357  0.60675  0.33799  1.0000 -0.0209547822
C   C76       1.0  0.60675  0.97357  0.16201  1.0000 -0.0209547822
C   C77       1.0  0.04986  0.43114  0.72435  1.0000 -0.1324552468
C   C78       1.0  0.43114  0.04986  0.77565  1.0000 -0.1324552468
C   C79       1.0  0.95014  0.56886  0.27565  1.0000 -0.1324552468
C   C80       1.0  0.56886  0.95014  0.22435  1.0000 -0.1324552468
C   C81       1.0  0.07228  0.40490  0.77774  1.0000 -0.0042590799
C   C82       1.0  0.40490  0.07228  0.72226  1.0000 -0.0042590799
C   C83       1.0  0.92772  0.59510  0.22226  1.0000 -0.0042590799
C   C84       1.0  0.59510  0.92772  0.27774  1.0000 -0.0042590799
C   C85       1.0  0.07381  0.34059  0.76899  1.0000 -0.189650824
C   C86       1.0  0.34059  0.07381  0.73101  1.0000 -0.189650824
C   C87       1.0  0.92619  0.65941  0.23101  1.0000 -0.189650824
C   C88       1.0  0.65941  0.92619  0.26899  1.0000 -0.189650824
C   C89       1.0  0.09710  0.44590  0.84540  1.0000 0.550738348
C   C90       1.0  0.44590  0.09710  0.65460  1.0000 0.550738348
C   C91       1.0  0.90290  0.55410  0.15460  1.0000 0.550738348
C   C92       1.0  0.55410  0.90290  0.34540  1.0000 0.550738348
C   C93       1.0  0.00429  0.42315  0.60300  1.0000 0.6255368128
C   C94       1.0  0.42315  0.00429  0.89700  1.0000 0.6247664824
C   C95       1.0  0.99571  0.57685  0.39700  1.0000 0.6255368128
C   C96       1.0  0.57685  0.99571  0.10300  1.0000 0.6255368128
C   C97       1.0  0.31785  0.38695  0.27870  1.0000 -0.0055911994
C   C98       1.0  0.38695  0.31785  0.22130  1.0000 -0.0042590799
C   C99       1.0  0.68215  0.61305  0.72130  1.0000 -0.0055911994
C   C100      1.0  0.61305  0.68215  0.77870  1.0000 -0.0055911994
C   C101      1.0  0.28201  0.31679  0.26420  1.0000 -0.1367987447
C   C102      1.0  0.31679  0.28201  0.23580  1.0000 -0.1367987447
C   C103      1.0  0.71799  0.68321  0.73580  1.0000 -0.1367987447
C   C104      1.0  0.68321  0.71799  0.76420  1.0000 -0.1367987447
C   C105      1.0  0.38724  0.42316  0.26370  1.0000 -0.1651846832
C   C106      1.0  0.42316  0.38724  0.23630  1.0000 -0.1651846832
C   C107      1.0  0.61276  0.57684  0.73630  1.0000 -0.1643339411
C   C108      1.0  0.57684  0.61276  0.76370  1.0000 -0.1651846832
C   C109      1.0  0.27539  0.42061  0.30850  1.0000 0.4463488742
C   C110      1.0  0.42061  0.27539  0.19150  1.0000 0.4463488742
C   C111      1.0  0.72461  0.57939  0.69150  1.0000 0.4463488742
C   C112      1.0  0.57939  0.72461  0.80850  1.0000 0.4463488742
C   C113      1.0  0.28734  0.52796  0.36960  1.0000 0.2128377578
C   C114      1.0  0.52796  0.28734  0.13040  1.0000 0.2128377578
C   C115      1.0  0.71266  0.47204  0.63040  1.0000 0.2128377578
C   C116      1.0  0.47204  0.71266  0.86960  1.0000 0.2128377578
C   C117      1.0  0.21610  0.49818  0.39170  1.0000 -0.2097057759
C   C118      1.0  0.49818  0.21610  0.10830  1.0000 -0.2041062877
C   C119      1.0  0.78390  0.50182  0.60830  1.0000 -0.2097057759
C   C120      1.0  0.50182  0.78390  0.89170  1.0000 -0.2097057759
C   C121      1.0  0.19471  0.54099  0.42808  1.0000 -0.0055911994
C   C122      1.0  0.54099  0.19471  0.07192  1.0000 -0.0055911994
C   C123      1.0  0.80529  0.45901  0.57192  1.0000 -0.0055911994
C   C124      1.0  0.45901  0.80529  0.92808  1.0000 -0.0055911994
C   C125      1.0  0.24360  0.61298  0.44278  1.0000 -0.148353148
C   C126      1.0  0.61298  0.24360  0.05722  1.0000 -0.148353148
C   C127      1.0  0.75640  0.38702  0.55722  1.0000 -0.148353148
C   C128      1.0  0.38702  0.75640  0.94278  1.0000 -0.148353148
C   C129      1.0  0.31538  0.64342  0.42046  1.0000 0.0012159732
C   C130      1.0  0.64342  0.31538  0.07954  1.0000 0.0012159732
C   C131      1.0  0.68462  0.35658  0.57954  1.0000 0.0012159732
C   C132      1.0  0.35658  0.68462  0.92046  1.0000 0.0012159732
C   C133      1.0  0.33692  0.60070  0.38330  1.0000 -0.2350012229
C   C134      1.0  0.60070  0.33692  0.11670  1.0000 -0.2339703307
C   C135      1.0  0.66308  0.39930  0.61670  1.0000 -0.2350012229
C   C136      1.0  0.39930  0.66308  0.88330  1.0000 -0.2339703307
C   C137      1.0  0.11616  0.50636  0.45056  1.0000 0.6247664824
C   C138      1.0  0.50636  0.11616  0.04944  1.0000 0.6247664824
C   C139      1.0  0.88384  0.49364  0.54944  1.0000 0.6247664824
C   C140      1.0  0.49364  0.88384  0.95056  1.0000 0.6247664824
C   C141      1.0  0.37075  0.72075  0.43637  1.0000 0.5287966861
C   C142      1.0  0.72075  0.37075  0.06363  1.0000 0.5287966861
C   C143      1.0  0.62925  0.27925  0.56363  1.0000 0.5287966861
C   C144      1.0  0.27925  0.62925  0.93637  1.0000 0.5287966861
C   C145      1.0  0.37450  0.28890  0.47160  1.0000 -0.3002890066
C   C146      1.0  0.28890  0.37450  0.02840  1.0000 -0.3002890066
C   C147      1.0  0.62550  0.71110  0.52840  1.0000 -0.3002890066
C   C148      1.0  0.71110  0.62550  0.97160  1.0000 -0.3002890066
C   C149      1.0  0.48600  0.31360  0.40750  1.0000 -0.3209603296
C   C150      1.0  0.31360  0.48600  0.09250  1.0000 -0.3147307501
C   C151      1.0  0.51400  0.68640  0.59250  1.0000 -0.3209603296
C   C152      1.0  0.68640  0.51400  0.90750  1.0000 -0.3147307501
C   C153      1.0  0.42670  0.21150  0.48020  1.0000 0.1827509648
C   C154      1.0  0.21150  0.42670  0.01980  1.0000 0.1827509648
C   C155      1.0  0.57330  0.78850  0.51980  1.0000 0.1827509648
C   C156      1.0  0.78850  0.57330  0.98020  1.0000 0.1827509648
C   C157      1.0  0.55350  0.12750  0.23090  1.0000 -0.3261660167
C   C158      1.0  0.12750  0.55350  0.26910  1.0000 -0.3261660167
C   C159      1.0  0.44650  0.87250  0.76910  1.0000 -0.3261660167
C   C160      1.0  0.87250  0.44650  0.73090  1.0000 -0.3261660167
C   C161      1.0  0.64160  0.12280  0.30610  1.0000 -0.3383078516
C   C162      1.0  0.12280  0.64160  0.19390  1.0000 -0.3383078516
C   C163      1.0  0.35840  0.87720  0.69390  1.0000 -0.3383078516
C   C164      1.0  0.87720  0.35840  0.80610  1.0000 -0.3383078516
C   C165      1.0  0.54570  0.13270  0.35680  1.0000 0.292510195
C   C166      1.0  0.13270  0.54570  0.14320  1.0000 0.292510195
C   C167      1.0  0.45430  0.86730  0.64320  1.0000 0.292510195
C   C168      1.0  0.86730  0.45430  0.85680  1.0000 0.292510195
C   C169      1.0  0.33720  0.67460  0.65870  1.0000 -0.3587361106
C   C170      1.0  0.67460  0.33720  0.84130  1.0000 -0.3587361106
C   C171      1.0  0.66280  0.32540  0.34130  1.0000 -0.3587361106
C   C172      1.0  0.32540  0.66280  0.15870  1.0000 -0.3587361106
C   C173      1.0  0.23960  0.61440  0.74570  1.0000 -0.3002890066
C   C174      1.0  0.61440  0.23960  0.75430  1.0000 -0.3002890066
C   C175      1.0  0.76040  0.38560  0.25430  1.0000 -0.3002890066
C   C176      1.0  0.38560  0.76040  0.24570  1.0000 -0.3002890066
C   C177      1.0  0.21310  0.63830  0.63340  1.0000 0.3019525654
C   C178      1.0  0.63830  0.21310  0.86660  1.0000 0.3019525654
C   C179      1.0  0.78690  0.36170  0.36660  1.0000 0.3019525654
C   C180      1.0  0.36170  0.78690  0.13340  1.0000 0.3019525654
C   C181      1.0  0.03640  0.62680  0.82230  1.0000 -0.3209603296
C   C182      1.0  0.62680  0.03640  0.67770  1.0000 -0.3209603296
C   C183      1.0  0.96360  0.37320  0.17770  1.0000 -0.3209603296
C   C184      1.0  0.37320  0.96360  0.32230  1.0000 -0.3209603296
C   C185      1.0  0.95700  0.67840  0.80660  1.0000 -0.3261660167
C   C186      1.0  0.67840  0.95700  0.69340  1.0000 -0.3261660167
C   C187      1.0  0.04300  0.32160  0.19340  1.0000 -0.3261660167
C   C188      1.0  0.32160  0.04300  0.30660  1.0000 -0.3261660167
C   C189      1.0  0.99928  0.63852  0.70940  1.0000 0.3019525654
C   C190      1.0  0.63852  0.99928  0.79060  1.0000 0.3019525654
C   C191      1.0  0.00072  0.36148  0.29060  1.0000 0.3019525654
C   C192      1.0  0.36148  0.00072  0.20940  1.0000 0.3019525654
N   N1        1.0  0.05563  0.23919  0.69514  1.0000 -0.3769970627
N   N2        1.0  0.23919  0.05563  0.80486  1.0000 -0.3769970627
N   N3        1.0  0.94437  0.76081  0.30486  1.0000 -0.3769970627
N   N4        1.0  0.76081  0.94437  0.19514  1.0000 -0.3769970627
N   N5        1.0  0.19497  0.99807  0.58272  1.0000 -0.3690303952
N   N6        1.0  0.99807  0.19497  0.91728  1.0000 -0.3690303952
N   N7        1.0  0.80503  0.00193  0.41728  1.0000 -0.3690303952
N   N8        1.0  0.00193  0.80503  0.08272  1.0000 -0.3690303952
N   N9        1.0  0.31360  0.48678  0.33450  1.0000 -0.3587361106
N   N10       1.0  0.48678  0.31360  0.16550  1.0000 -0.3587361106
N   N11       1.0  0.68640  0.51322  0.66550  1.0000 -0.3587361106
N   N12       1.0  0.51322  0.68640  0.83450  1.0000 -0.3587361106
N   N13       1.0  0.57420  0.13180  0.30000  1.0000 0.0218824401
N   N14       1.0  0.13180  0.57420  0.20000  1.0000 0.0218824401
N   N15       1.0  0.42580  0.86820  0.70000  1.0000 0.0218824401
N   N16       1.0  0.86820  0.42580  0.80000  1.0000 0.0218824401
N   N17       1.0  0.25923  0.64417  0.67880  1.0000 0.0218824401
N   N18       1.0  0.64417  0.25923  0.82120  1.0000 0.0218824401
N   N19       1.0  0.74077  0.35583  0.32120  1.0000 0.0218824401
N   N20       1.0  0.35583  0.74077  0.17880  1.0000 0.0218824401
N   N21       1.0  0.99655  0.64725  0.77650  1.0000 0.0218824401
N   N22       1.0  0.64725  0.99655  0.72350  1.0000 0.0218824401
N   N23       1.0  0.00345  0.35275  0.22350  1.0000 0.0218824401
N   N24       1.0  0.35275  0.00345  0.27650  1.0000 0.0218824401
N   N25       1.0  0.42647  0.26633  0.45210  1.0000 0.0132983395
N   N26       1.0  0.26633  0.42647  0.04790  1.0000 0.0132983395
N   N27       1.0  0.57353  0.73367  0.54790  1.0000 0.0132983395
N   N28       1.0  0.73367  0.57353  0.95210  1.0000 0.0132983395
O   O1        1.0  0.42905  0.02535  0.49700  1.0000 -0.6728350387
O   O2        1.0  0.02535  0.42905  0.00300  1.0000 -0.6728350387
O   O3        1.0  0.57095  0.97465  0.50300  1.0000 -0.6728350387
O   O4        1.0  0.97465  0.57095  0.99700  1.0000 -0.6728350387
O   O5        1.0  0.40575  0.91559  0.46883  1.0000 -0.6524488495
O   O6        1.0  0.91559  0.40575  0.03117  1.0000 -0.6524488495
O   O7        1.0  0.59425  0.08441  0.53117  1.0000 -0.6524488495
O   O8        1.0  0.08441  0.59425  0.96883  1.0000 -0.6524488495
O   O9        1.0  0.16169  0.70417  0.52045  1.0000 -0.6288759376
O   O10       1.0  0.70417  0.16169  0.97955  1.0000 -0.6288759376
O   O11       1.0  0.83831  0.29583  0.47955  1.0000 -0.6288759376
O   O12       1.0  0.29583  0.83831  0.02045  1.0000 -0.6288759376
O   O13       1.0  0.08058  0.72096  0.57454  1.0000 -0.6239281312
O   O14       1.0  0.72096  0.08058  0.92546  1.0000 -0.6239281312
O   O15       1.0  0.91942  0.27904  0.42546  1.0000 -0.6239281312
O   O16       1.0  0.27904  0.91942  0.07454  1.0000 -0.6239281312
O   O17       1.0  0.12228  0.42448  0.89156  1.0000 -0.6147108838
O   O18       1.0  0.42448  0.12228  0.60844  1.0000 -0.6147108838
O   O19       1.0  0.87772  0.57552  0.10844  1.0000 -0.6147108838
O   O20       1.0  0.57552  0.87772  0.39156  1.0000 -0.6147108838
O   O21       1.0  0.09046  0.50100  0.85371  1.0000 -0.6288759376
O   O22       1.0  0.50100  0.09046  0.64629  1.0000 -0.6288759376
O   O23       1.0  0.90954  0.49900  0.14629  1.0000 -0.6288759376
O   O24       1.0  0.49900  0.90954  0.35371  1.0000 -0.6288759376
O   O25       1.0  0.00969  0.48403  0.61347  1.0000 -0.6805270181
O   O26       1.0  0.48403  0.00969  0.88653  1.0000 -0.6805270181
O   O27       1.0  0.99031  0.51597  0.38653  1.0000 -0.6805270181
O   O28       1.0  0.51597  0.99031  0.11347  1.0000 -0.6805270181
O   O29       1.0  0.98222  0.38602  0.54886  1.0000 -0.6355701254
O   O30       1.0  0.38602  0.98222  0.95114  1.0000 -0.6355701254
O   O31       1.0  0.01778  0.61398  0.45114  1.0000 -0.6355701254
O   O32       1.0  0.61398  0.01778  0.04886  1.0000 -0.6355701254
O   O33       1.0  0.17664  0.29836  0.70330  1.0000 -0.4473679529
O   O34       1.0  0.29836  0.17664  0.79670  1.0000 -0.4473679529
O   O35       1.0  0.82336  0.70164  0.29670  1.0000 -0.4473679529
O   O36       1.0  0.70164  0.82336  0.20330  1.0000 -0.4473679529
O   O37       1.0  0.09879  0.93159  0.65340  1.0000 -0.4606605635
O   O38       1.0  0.93159  0.09879  0.84660  1.0000 -0.4606605635
O   O39       1.0  0.90121  0.06841  0.34660  1.0000 -0.4606605635
O   O40       1.0  0.06841  0.90121  0.15340  1.0000 -0.4606605635
O   O41       1.0  0.35633  0.75513  0.47951  1.0000 -0.5977565215
O   O42       1.0  0.75513  0.35633  0.02049  1.0000 -0.5977565215
O   O43       1.0  0.64367  0.24487  0.52049  1.0000 -0.5977565215
O   O44       1.0  0.24487  0.64367  0.97951  1.0000 -0.5977565215
O   O45       1.0  0.43060  0.74908  0.40733  1.0000 -0.5977565215
O   O46       1.0  0.74908  0.43060  0.09267  1.0000 -0.5977565215
O   O47       1.0  0.56940  0.25092  0.59267  1.0000 -0.5977565215
O   O48       1.0  0.25092  0.56940  0.90733  1.0000 -0.5977565215
O   O49       1.0  0.09970  0.54116  0.49212  1.0000 -0.6937566266
O   O50       1.0  0.54116  0.09970  0.00788  1.0000 -0.6937566266
O   O51       1.0  0.90030  0.45884  0.50788  1.0000 -0.6937566266
O   O52       1.0  0.45884  0.90030  0.99212  1.0000 -0.6937566266
O   O53       1.0  0.07269  0.44531  0.42639  1.0000 -0.6288759376
O   O54       1.0  0.44531  0.07269  0.07361  1.0000 -0.6288759376
O   O55       1.0  0.92731  0.55469  0.57361  1.0000 -0.6288759376
O   O56       1.0  0.55469  0.92731  0.92639  1.0000 -0.6288759376
O   O57       1.0  0.20996  0.38646  0.30750  1.0000 -0.4473679529
O   O58       1.0  0.38646  0.20996  0.19250  1.0000 -0.4473679529
O   O59       1.0  0.79004  0.61354  0.69250  1.0000 -0.4473679529
O   O60       1.0  0.61354  0.79004  0.80750  1.0000 -0.4473679529
O   O61       1.0  0.46893  0.19109  0.46840  1.0000 -0.5339103655
O   O62       1.0  0.19109  0.46893  0.03160  1.0000 -0.5339103655
O   O63       1.0  0.53107  0.80891  0.53160  1.0000 -0.5339103655
O   O64       1.0  0.80891  0.53107  0.96840  1.0000 -0.5339103655
O   O65       1.0  0.55359  0.13579  0.41328  1.0000 -0.4383190327
O   O66       1.0  0.13579  0.55359  0.08672  1.0000 -0.4383190327
O   O67       1.0  0.44641  0.86421  0.58672  1.0000 -0.4383190327
O   O68       1.0  0.86421  0.44641  0.91328  1.0000 -0.4383190327
O   O69       1.0  0.15341  0.61367  0.63100  1.0000 -0.4383190327
O   O70       1.0  0.61367  0.15341  0.86900  1.0000 -0.4383190327
O   O71       1.0  0.84659  0.38633  0.36900  1.0000 -0.4383190327
O   O72       1.0  0.38633  0.84659  0.13100  1.0000 -0.4383190327
O   O73       1.0  0.03281  0.61445  0.68134  1.0000 -0.4811068044
O   O74       1.0  0.61445  0.03281  0.81866  1.0000 -0.4811068044
O   O75       1.0  0.96719  0.38555  0.31866  1.0000 -0.4811068044
O   O76       1.0  0.38555  0.96719  0.18134  1.0000 -0.4811068044
