# DDEC6 charges by PACMAN v1.1 (https://github.com/mtap-research/PACMAN-charge/)
data_2016[CeMg][nan]3[FSR]1
_chemical_formula_sum              "Ce4 Mg6 H60 C84 N12 O60"
_cell_length_a       15.6115
_cell_length_b       15.6115
_cell_length_c       15.1842
_cell_angle_alpha    90
_cell_angle_beta     90
_cell_angle_gamma    120

_symmetry_space_group_name_H-M    "P 1"
_symmetry_Int_Tables_number       1

loop_
  _symmetry_equiv_pos_as_xyz
  'x, y, z'

loop_
  _atom_site_type_symbol
  _atom_site_label
  _atom_site_symmetry_multiplicity
  _atom_site_fract_x
  _atom_site_fract_y
  _atom_site_fract_z
  _atom_site_occupancy
  _atom_site_charge
Ce  Ce1       1.0  0.66667  0.33333  0.75000  1.0000 1.856719468
Ce  Ce2       1.0  0.33333  0.66667  0.75000  1.0000 1.8537422161
Ce  Ce3       1.0  0.33333  0.66667  0.25000  1.0000 1.8537422161
Ce  Ce4       1.0  0.66667  0.33333  0.25000  1.0000 1.8537422161
Mg  Mg1       1.0  1.00000  0.50000  0.00000  1.0000 1.3467938642
Mg  Mg2       1.0  0.50000  0.50000  0.00000  1.0000 1.3467938642
Mg  Mg3       1.0  0.50000  0.00000  0.00000  1.0000 1.3467938642
Mg  Mg4       1.0  0.50000  0.00000  0.50000  1.0000 1.3467938642
Mg  Mg5       1.0  0.50000  0.50000  0.50000  1.0000 1.3467938642
Mg  Mg6       1.0  1.00000  0.50000  0.50000  1.0000 1.3467938642
H   H1        1.0  0.83360  0.47640  0.96010  1.0000 0.2974762658
H   H2        1.0  0.52360  0.35720  0.96010  1.0000 0.2974762658
H   H3        1.0  0.64280  0.16640  0.96010  1.0000 0.2974762658
H   H4        1.0  0.16640  0.52360  0.96010  1.0000 0.2974762658
H   H5        1.0  0.47640  0.64280  0.96010  1.0000 0.2974762658
H   H6        1.0  0.35720  0.83360  0.96010  1.0000 0.2974762658
H   H7        1.0  0.47640  0.83360  0.53990  1.0000 0.2974762658
H   H8        1.0  0.35720  0.52360  0.53990  1.0000 0.2974762658
H   H9        1.0  0.16640  0.64280  0.53990  1.0000 0.2974762658
H   H10       1.0  0.52360  0.16640  0.53990  1.0000 0.2974762658
H   H11       1.0  0.64280  0.47640  0.53990  1.0000 0.2974762658
H   H12       1.0  0.83360  0.35720  0.53990  1.0000 0.2974762658
H   H13       1.0  0.16640  0.52360  0.03990  1.0000 0.2974762658
H   H14       1.0  0.47640  0.64280  0.03990  1.0000 0.2974762658
H   H15       1.0  0.35720  0.83360  0.03990  1.0000 0.2974762658
H   H16       1.0  0.83360  0.47640  0.03990  1.0000 0.2974762658
H   H17       1.0  0.52360  0.35720  0.03990  1.0000 0.2974762658
H   H18       1.0  0.64280  0.16640  0.03990  1.0000 0.2974762658
H   H19       1.0  0.52360  0.16640  0.46010  1.0000 0.2974762658
H   H20       1.0  0.64280  0.47640  0.46010  1.0000 0.2974762658
H   H21       1.0  0.83360  0.35720  0.46010  1.0000 0.2974762658
H   H22       1.0  0.47640  0.83360  0.46010  1.0000 0.2974762658
H   H23       1.0  0.35720  0.52360  0.46010  1.0000 0.2974762658
H   H24       1.0  0.16640  0.64280  0.46010  1.0000 0.2974762658
H   H25       1.0  0.94610  0.23520  0.84410  1.0000 0.1422901541
H   H26       1.0  0.76480  0.71090  0.84410  1.0000 0.1422901541
H   H27       1.0  0.28910  0.05390  0.84410  1.0000 0.1422901541
H   H28       1.0  0.05390  0.76480  0.84410  1.0000 0.1422901541
H   H29       1.0  0.23520  0.28910  0.84410  1.0000 0.1422901541
H   H30       1.0  0.71090  0.94610  0.84410  1.0000 0.1422901541
H   H31       1.0  0.23520  0.94610  0.65590  1.0000 0.1422901541
H   H32       1.0  0.71090  0.76480  0.65590  1.0000 0.1422901541
H   H33       1.0  0.05390  0.28910  0.65590  1.0000 0.1422901541
H   H34       1.0  0.76480  0.05390  0.65590  1.0000 0.1422901541
H   H35       1.0  0.28910  0.23520  0.65590  1.0000 0.1422901541
H   H36       1.0  0.94610  0.71090  0.65590  1.0000 0.1422901541
H   H37       1.0  0.05390  0.76480  0.15590  1.0000 0.1422901541
H   H38       1.0  0.23520  0.28910  0.15590  1.0000 0.1422901541
H   H39       1.0  0.71090  0.94610  0.15590  1.0000 0.1422901541
H   H40       1.0  0.94610  0.23520  0.15590  1.0000 0.1422901541
H   H41       1.0  0.76480  0.71090  0.15590  1.0000 0.1422901541
H   H42       1.0  0.28910  0.05390  0.15590  1.0000 0.1422901541
H   H43       1.0  0.76480  0.05390  0.34410  1.0000 0.1422901541
H   H44       1.0  0.28910  0.23520  0.34410  1.0000 0.1422901541
H   H45       1.0  0.94610  0.71090  0.34410  1.0000 0.1422901541
H   H46       1.0  0.23520  0.94610  0.34410  1.0000 0.1422901541
H   H47       1.0  0.71090  0.76480  0.34410  1.0000 0.1422901541
H   H48       1.0  0.05390  0.28910  0.34410  1.0000 0.1422901541
H   H49       1.0  0.89930  0.10070  0.75000  1.0000 0.1125073696
H   H50       1.0  0.89930  0.79860  0.75000  1.0000 0.1125073696
H   H51       1.0  0.20140  0.10070  0.75000  1.0000 0.1125073696
H   H52       1.0  0.10070  0.89930  0.75000  1.0000 0.1125073696
H   H53       1.0  0.10070  0.20140  0.75000  1.0000 0.1125073696
H   H54       1.0  0.79860  0.89930  0.75000  1.0000 0.1125073696
H   H55       1.0  0.10070  0.89930  0.25000  1.0000 0.1125073696
H   H56       1.0  0.10070  0.20140  0.25000  1.0000 0.1125073696
H   H57       1.0  0.79860  0.89930  0.25000  1.0000 0.1125073696
H   H58       1.0  0.89930  0.10070  0.25000  1.0000 0.1125073696
H   H59       1.0  0.89930  0.79860  0.25000  1.0000 0.1125073696
H   H60       1.0  0.20140  0.10070  0.25000  1.0000 0.1125073696
C   C1        1.0  0.86535  0.35303  0.86078  1.0000 0.5708822648
C   C2        1.0  0.64697  0.51232  0.86078  1.0000 0.5708822648
C   C3        1.0  0.48768  0.13465  0.86078  1.0000 0.5708822648
C   C4        1.0  0.13465  0.64697  0.86078  1.0000 0.5708822648
C   C5        1.0  0.35303  0.48768  0.86078  1.0000 0.5708822648
C   C6        1.0  0.51232  0.86535  0.86078  1.0000 0.5708822648
C   C7        1.0  0.35303  0.86535  0.63922  1.0000 0.5708822648
C   C8        1.0  0.51232  0.64697  0.63922  1.0000 0.5708822648
C   C9        1.0  0.13465  0.48768  0.63922  1.0000 0.5708822648
C   C10       1.0  0.64697  0.13465  0.63922  1.0000 0.5708822648
C   C11       1.0  0.48768  0.35303  0.63922  1.0000 0.5708822648
C   C12       1.0  0.86535  0.51232  0.63922  1.0000 0.5708822648
C   C13       1.0  0.13465  0.64697  0.13922  1.0000 0.5708822648
C   C14       1.0  0.35303  0.48768  0.13922  1.0000 0.5708822648
C   C15       1.0  0.51232  0.86535  0.13922  1.0000 0.5708822648
C   C16       1.0  0.86535  0.35303  0.13922  1.0000 0.5708822648
C   C17       1.0  0.64697  0.51232  0.13922  1.0000 0.5708822648
C   C18       1.0  0.48768  0.13465  0.13922  1.0000 0.5708822648
C   C19       1.0  0.64697  0.13465  0.36078  1.0000 0.5708822648
C   C20       1.0  0.48768  0.35303  0.36078  1.0000 0.5708822648
C   C21       1.0  0.86535  0.51232  0.36078  1.0000 0.5708822648
C   C22       1.0  0.35303  0.86535  0.36078  1.0000 0.5708822648
C   C23       1.0  0.51232  0.64697  0.36078  1.0000 0.5708822648
C   C24       1.0  0.13465  0.48768  0.36078  1.0000 0.5708822648
C   C25       1.0  0.84068  0.26490  0.80310  1.0000 0.125404306
C   C26       1.0  0.73510  0.57578  0.80310  1.0000 0.125404306
C   C27       1.0  0.42422  0.15932  0.80310  1.0000 0.125404306
C   C28       1.0  0.15932  0.73510  0.80310  1.0000 0.125404306
C   C29       1.0  0.26490  0.42422  0.80310  1.0000 0.125404306
C   C30       1.0  0.57578  0.84068  0.80310  1.0000 0.125404306
C   C31       1.0  0.26490  0.84068  0.69690  1.0000 0.125404306
C   C32       1.0  0.57578  0.73510  0.69690  1.0000 0.125404306
C   C33       1.0  0.15932  0.42422  0.69690  1.0000 0.125404306
C   C34       1.0  0.73510  0.15932  0.69690  1.0000 0.125404306
C   C35       1.0  0.42422  0.26490  0.69690  1.0000 0.125404306
C   C36       1.0  0.84068  0.57578  0.69690  1.0000 0.125404306
C   C37       1.0  0.15932  0.73510  0.19690  1.0000 0.125404306
C   C38       1.0  0.26490  0.42422  0.19690  1.0000 0.125404306
C   C39       1.0  0.57578  0.84068  0.19690  1.0000 0.125404306
C   C40       1.0  0.84068  0.26490  0.19690  1.0000 0.125404306
C   C41       1.0  0.73510  0.57578  0.19690  1.0000 0.125404306
C   C42       1.0  0.42422  0.15932  0.19690  1.0000 0.125404306
C   C43       1.0  0.73510  0.15932  0.30310  1.0000 0.125404306
C   C44       1.0  0.42422  0.26490  0.30310  1.0000 0.125404306
C   C45       1.0  0.84068  0.57578  0.30310  1.0000 0.125404306
C   C46       1.0  0.26490  0.84068  0.30310  1.0000 0.125404306
C   C47       1.0  0.57578  0.73510  0.30310  1.0000 0.125404306
C   C48       1.0  0.15932  0.42422  0.30310  1.0000 0.125404306
C   C49       1.0  0.89300  0.21530  0.80570  1.0000 -0.1275060485
C   C50       1.0  0.78470  0.67770  0.80570  1.0000 -0.1275060485
C   C51       1.0  0.32230  0.10700  0.80570  1.0000 -0.1275060485
C   C52       1.0  0.10700  0.78470  0.80570  1.0000 -0.1275060485
C   C53       1.0  0.21530  0.32230  0.80570  1.0000 -0.1275060485
C   C54       1.0  0.67770  0.89300  0.80570  1.0000 -0.1275060485
C   C55       1.0  0.21530  0.89300  0.69430  1.0000 -0.1275060485
C   C56       1.0  0.67770  0.78470  0.69430  1.0000 -0.1275060485
C   C57       1.0  0.10700  0.32230  0.69430  1.0000 -0.1275060485
C   C58       1.0  0.78470  0.10700  0.69430  1.0000 -0.1275060485
C   C59       1.0  0.32230  0.21530  0.69430  1.0000 -0.1275060485
C   C60       1.0  0.89300  0.67770  0.69430  1.0000 -0.1275060485
C   C61       1.0  0.10700  0.78470  0.19430  1.0000 -0.1275060485
C   C62       1.0  0.21530  0.32230  0.19430  1.0000 -0.1275060485
C   C63       1.0  0.67770  0.89300  0.19430  1.0000 -0.1275060485
C   C64       1.0  0.89300  0.21530  0.19430  1.0000 -0.1275060485
C   C65       1.0  0.78470  0.67770  0.19430  1.0000 -0.1275060485
C   C66       1.0  0.32230  0.10700  0.19430  1.0000 -0.1275060485
C   C67       1.0  0.78470  0.10700  0.30570  1.0000 -0.1275060485
C   C68       1.0  0.32230  0.21530  0.30570  1.0000 -0.1275060485
C   C69       1.0  0.89300  0.67770  0.30570  1.0000 -0.1275060485
C   C70       1.0  0.21530  0.89300  0.30570  1.0000 -0.1275060485
C   C71       1.0  0.67770  0.78470  0.30570  1.0000 -0.1275060485
C   C72       1.0  0.10700  0.32230  0.30570  1.0000 -0.1275060485
C   C73       1.0  0.86493  0.13507  0.75000  1.0000 -0.0505809052
C   C74       1.0  0.86493  0.72986  0.75000  1.0000 -0.0505809052
C   C75       1.0  0.27014  0.13507  0.75000  1.0000 -0.0505809052
C   C76       1.0  0.13507  0.86493  0.75000  1.0000 -0.0505809052
C   C77       1.0  0.13507  0.27014  0.75000  1.0000 -0.0505809052
C   C78       1.0  0.72986  0.86493  0.75000  1.0000 -0.0505809052
C   C79       1.0  0.13507  0.86493  0.25000  1.0000 -0.0505809052
C   C80       1.0  0.13507  0.27014  0.25000  1.0000 -0.0505809052
C   C81       1.0  0.72986  0.86493  0.25000  1.0000 -0.0505809052
C   C82       1.0  0.86493  0.13507  0.25000  1.0000 -0.0505809052
C   C83       1.0  0.86493  0.72986  0.25000  1.0000 -0.0505809052
C   C84       1.0  0.27014  0.13507  0.25000  1.0000 -0.0505809052
N   N1        1.0  0.76299  0.23701  0.75000  1.0000 -0.3271928092
N   N2        1.0  0.76299  0.52598  0.75000  1.0000 -0.3271928092
N   N3        1.0  0.47402  0.23701  0.75000  1.0000 -0.3271928092
N   N4        1.0  0.23701  0.76299  0.75000  1.0000 -0.3271928092
N   N5        1.0  0.23701  0.47402  0.75000  1.0000 -0.3271928092
N   N6        1.0  0.52598  0.76299  0.75000  1.0000 -0.3271928092
N   N7        1.0  0.23701  0.76299  0.25000  1.0000 -0.3271928092
N   N8        1.0  0.23701  0.47402  0.25000  1.0000 -0.3271928092
N   N9        1.0  0.52598  0.76299  0.25000  1.0000 -0.3271928092
N   N10       1.0  0.76299  0.23701  0.25000  1.0000 -0.3271928092
N   N11       1.0  0.76299  0.52598  0.25000  1.0000 -0.3271928092
N   N12       1.0  0.47402  0.23701  0.25000  1.0000 -0.3271928092
O   O1        1.0  0.87021  0.51046  0.00000  1.0000 -0.695184197
O   O2        1.0  0.48954  0.35975  0.00000  1.0000 -0.695184197
O   O3        1.0  0.64025  0.12979  0.00000  1.0000 -0.695184197
O   O4        1.0  0.12979  0.48954  0.00000  1.0000 -0.695184197
O   O5        1.0  0.51046  0.64025  0.00000  1.0000 -0.695184197
O   O6        1.0  0.35975  0.87021  0.00000  1.0000 -0.695184197
O   O7        1.0  0.51046  0.87021  0.50000  1.0000 -0.695184197
O   O8        1.0  0.35975  0.48954  0.50000  1.0000 -0.695184197
O   O9        1.0  0.12979  0.64025  0.50000  1.0000 -0.695184197
O   O10       1.0  0.48954  0.12979  0.50000  1.0000 -0.6948284765
O   O11       1.0  0.64025  0.51046  0.50000  1.0000 -0.695184197
O   O12       1.0  0.87021  0.35975  0.50000  1.0000 -0.695184197
O   O13       1.0  0.80442  0.38449  0.85858  1.0000 -0.5945554138
O   O14       1.0  0.61551  0.41993  0.85858  1.0000 -0.5945554138
O   O15       1.0  0.58007  0.19558  0.85858  1.0000 -0.5945554138
O   O16       1.0  0.19558  0.61551  0.85858  1.0000 -0.5945554138
O   O17       1.0  0.38449  0.58007  0.85858  1.0000 -0.5945554138
O   O18       1.0  0.41993  0.80442  0.85858  1.0000 -0.5945554138
O   O19       1.0  0.38449  0.80442  0.64142  1.0000 -0.5945554138
O   O20       1.0  0.41993  0.61551  0.64142  1.0000 -0.5945554138
O   O21       1.0  0.19558  0.58007  0.64142  1.0000 -0.5945554138
O   O22       1.0  0.61551  0.19558  0.64142  1.0000 -0.5945554138
O   O23       1.0  0.58007  0.38449  0.64142  1.0000 -0.5945554138
O   O24       1.0  0.80442  0.41993  0.64142  1.0000 -0.5945554138
O   O25       1.0  0.19558  0.61551  0.14142  1.0000 -0.5945554138
O   O26       1.0  0.38449  0.58007  0.14142  1.0000 -0.5945554138
O   O27       1.0  0.41993  0.80442  0.14142  1.0000 -0.5945554138
O   O28       1.0  0.80442  0.38449  0.14142  1.0000 -0.5945554138
O   O29       1.0  0.61551  0.41993  0.14142  1.0000 -0.5945554138
O   O30       1.0  0.58007  0.19558  0.14142  1.0000 -0.5945554138
O   O31       1.0  0.61551  0.19558  0.35858  1.0000 -0.5945554138
O   O32       1.0  0.58007  0.38449  0.35858  1.0000 -0.5945554138
O   O33       1.0  0.80442  0.41993  0.35858  1.0000 -0.5945554138
O   O34       1.0  0.38449  0.80442  0.35858  1.0000 -0.5945554138
O   O35       1.0  0.41993  0.61551  0.35858  1.0000 -0.5945554138
O   O36       1.0  0.19558  0.58007  0.35858  1.0000 -0.5945554138
O   O37       1.0  0.94169  0.38839  0.90578  1.0000 -0.5795606335
O   O38       1.0  0.61161  0.55330  0.90578  1.0000 -0.5795606335
O   O39       1.0  0.44670  0.05831  0.90578  1.0000 -0.5795606335
O   O40       1.0  0.05831  0.61161  0.90578  1.0000 -0.5795606335
O   O41       1.0  0.38839  0.44670  0.90578  1.0000 -0.5795606335
O   O42       1.0  0.55330  0.94169  0.90578  1.0000 -0.5795606335
O   O43       1.0  0.38839  0.94169  0.59422  1.0000 -0.5795606335
O   O44       1.0  0.55330  0.61161  0.59422  1.0000 -0.5795606335
O   O45       1.0  0.05831  0.44670  0.59422  1.0000 -0.5795606335
O   O46       1.0  0.61161  0.05831  0.59422  1.0000 -0.5795606335
O   O47       1.0  0.44670  0.38839  0.59422  1.0000 -0.5795606335
O   O48       1.0  0.94169  0.55330  0.59422  1.0000 -0.5795606335
O   O49       1.0  0.05831  0.61161  0.09422  1.0000 -0.5795606335
O   O50       1.0  0.38839  0.44670  0.09422  1.0000 -0.5795606335
O   O51       1.0  0.55330  0.94169  0.09422  1.0000 -0.5795606335
O   O52       1.0  0.94169  0.38839  0.09422  1.0000 -0.5795606335
O   O53       1.0  0.61161  0.55330  0.09422  1.0000 -0.5795606335
O   O54       1.0  0.44670  0.05831  0.09422  1.0000 -0.5795606335
O   O55       1.0  0.61161  0.05831  0.40578  1.0000 -0.5795606335
O   O56       1.0  0.44670  0.38839  0.40578  1.0000 -0.5795606335
O   O57       1.0  0.94169  0.55330  0.40578  1.0000 -0.5795606335
O   O58       1.0  0.38839  0.94169  0.40578  1.0000 -0.5795606335
O   O59       1.0  0.55330  0.61161  0.40578  1.0000 -0.5795606335
O   O60       1.0  0.05831  0.44670  0.40578  1.0000 -0.5795606335
