# DDEC6 charges by PACMAN v1.1 (https://github.com/mtap-research/PACMAN-charge/)
data_2016[Zn][nan]3[FSR]15
_chemical_formula_sum              "Zn6 H56 C72 N22 O28"
_cell_length_a       12.914
_cell_length_b       12.914
_cell_length_c       14.765
_cell_angle_alpha    88.4769
_cell_angle_beta     91.5231
_cell_angle_gamma    89.6424

_symmetry_space_group_name_H-M    "P 1"
_symmetry_Int_Tables_number       1

loop_
  _symmetry_equiv_pos_as_xyz
  'x, y, z'

loop_
  _atom_site_type_symbol
  _atom_site_label
  _atom_site_symmetry_multiplicity
  _atom_site_fract_x
  _atom_site_fract_y
  _atom_site_fract_z
  _atom_site_occupancy
  _atom_site_charge
Zn  Zn1       1.0  0.61827  0.61827  0.25000  1.0000 0.7189503583
Zn  Zn2       1.0  0.38173  0.38173  0.75000  1.0000 0.7189503583
Zn  Zn3       1.0  0.41113  0.06583  0.22552  1.0000 0.7372894707
Zn  Zn4       1.0  0.06583  0.41113  0.27448  1.0000 0.7372894707
Zn  Zn5       1.0  0.58887  0.93417  0.77448  1.0000 0.7372894707
Zn  Zn6       1.0  0.93417  0.58887  0.72552  1.0000 0.7372894707
H   H1        1.0  0.64070  0.00450  0.11030  1.0000 0.1482090029
H   H2        1.0  0.00450  0.64070  0.38970  1.0000 0.1482090029
H   H3        1.0  0.35930  0.99550  0.88970  1.0000 0.1482090029
H   H4        1.0  0.99550  0.35930  0.61030  1.0000 0.1482090029
H   H5        1.0  0.50410  0.73330  0.05680  1.0000 0.1482090029
H   H6        1.0  0.73330  0.50410  0.44320  1.0000 0.1482090029
H   H7        1.0  0.49590  0.26670  0.94320  1.0000 0.1482090029
H   H8        1.0  0.26670  0.49590  0.55680  1.0000 0.1482090029
H   H9        1.0  0.65770  0.03310  0.95700  1.0000 0.1199058682
H   H10       1.0  0.03310  0.65770  0.54300  1.0000 0.1199058682
H   H11       1.0  0.34230  0.96690  0.04300  1.0000 0.1199058682
H   H12       1.0  0.96690  0.34230  0.45700  1.0000 0.1199058682
H   H13       1.0  0.52110  0.76750  0.90610  1.0000 0.1199058682
H   H14       1.0  0.76750  0.52110  0.59390  1.0000 0.1199058682
H   H15       1.0  0.47890  0.23250  0.09390  1.0000 0.1199058682
H   H16       1.0  0.23250  0.47890  0.40610  1.0000 0.1199058682
H   H17       1.0  0.53340  0.45180  0.37550  1.0000 0.1199058682
H   H18       1.0  0.45180  0.53340  0.12450  1.0000 0.1199058682
H   H19       1.0  0.46660  0.54820  0.62450  1.0000 0.1199058682
H   H20       1.0  0.54820  0.46660  0.87550  1.0000 0.1199058682
H   H21       1.0  0.41250  0.32050  0.37750  1.0000 0.1482090029
H   H22       1.0  0.32050  0.41250  0.12250  1.0000 0.1482090029
H   H23       1.0  0.58750  0.67950  0.62250  1.0000 0.1482090029
H   H24       1.0  0.67950  0.58750  0.87750  1.0000 0.1482090029
H   H25       1.0  0.72670  0.16830  0.43700  1.0000 0.1390770846
H   H26       1.0  0.16830  0.72670  0.06300  1.0000 0.1390770846
H   H27       1.0  0.27330  0.83170  0.56300  1.0000 0.1390770846
H   H28       1.0  0.83170  0.27330  0.93700  1.0000 0.1390770846
H   H29       1.0  0.82190  0.20070  0.37550  1.0000 0.1564949277
H   H30       1.0  0.20070  0.82190  0.12450  1.0000 0.1564949277
H   H31       1.0  0.17810  0.79930  0.62450  1.0000 0.1564949277
H   H32       1.0  0.79930  0.17810  0.87550  1.0000 0.1564949277
H   H33       1.0  0.75150  0.28810  0.41850  1.0000 0.1390770846
H   H34       1.0  0.28810  0.75150  0.08150  1.0000 0.1390770846
H   H35       1.0  0.24850  0.71190  0.58150  1.0000 0.1390770846
H   H36       1.0  0.71190  0.24850  0.91850  1.0000 0.1390770846
H   H37       1.0  0.67200  0.26280  0.18250  1.0000 0.1390770846
H   H38       1.0  0.26280  0.67200  0.31750  1.0000 0.1390770846
H   H39       1.0  0.32800  0.73720  0.81750  1.0000 0.1390770846
H   H40       1.0  0.73720  0.32800  0.68250  1.0000 0.1390770846
H   H41       1.0  0.69170  0.35650  0.24940  1.0000 0.1199058682
H   H42       1.0  0.35650  0.69170  0.25060  1.0000 0.1199058682
H   H43       1.0  0.30830  0.64350  0.75060  1.0000 0.1199058682
H   H44       1.0  0.64350  0.30830  0.74940  1.0000 0.1199058682
H   H45       1.0  0.78450  0.27910  0.22760  1.0000 0.1564949277
H   H46       1.0  0.27910  0.78450  0.27240  1.0000 0.1564949277
H   H47       1.0  0.21550  0.72090  0.77240  1.0000 0.1564949277
H   H48       1.0  0.72090  0.21550  0.72760  1.0000 0.1564949277
H   H49       1.0  0.58380  0.12160  0.35750  1.0000 0.108796348
H   H50       1.0  0.12160  0.58380  0.14250  1.0000 0.108796348
H   H51       1.0  0.41620  0.87840  0.64250  1.0000 0.108796348
H   H52       1.0  0.87840  0.41620  0.85750  1.0000 0.108796348
H   H53       1.0  0.44380  0.84560  0.47840  1.0000 0.346190286
H   H54       1.0  0.84560  0.44380  0.02160  1.0000 0.346190286
H   H55       1.0  0.55620  0.15440  0.52160  1.0000 0.346190286
H   H56       1.0  0.15440  0.55620  0.97840  1.0000 0.346190286
C   C1        1.0  0.54450  0.85270  0.19760  1.0000 0.297156823
C   C2        1.0  0.85270  0.54450  0.30240  1.0000 0.297156823
C   C3        1.0  0.45550  0.14730  0.80240  1.0000 0.2949766788
C   C4        1.0  0.14730  0.45550  0.69760  1.0000 0.2949766788
C   C5        1.0  0.56700  0.86660  0.10200  1.0000 0.0805996849
C   C6        1.0  0.86660  0.56700  0.39800  1.0000 0.0805996849
C   C7        1.0  0.43300  0.13340  0.89800  1.0000 0.0805996849
C   C8        1.0  0.13340  0.43300  0.60200  1.0000 0.0805996849
C   C9        1.0  0.61450  0.95510  0.06920  1.0000 -0.1598826525
C   C10       1.0  0.95510  0.61450  0.43080  1.0000 -0.1598826525
C   C11       1.0  0.38550  0.04490  0.93080  1.0000 -0.1598826525
C   C12       1.0  0.04490  0.38550  0.56920  1.0000 -0.1598826525
C   C13       1.0  0.53440  0.79660  0.03750  1.0000 -0.1666807633
C   C14       1.0  0.79660  0.53440  0.46250  1.0000 -0.1666807633
C   C15       1.0  0.46560  0.20340  0.96250  1.0000 -0.1666807633
C   C16       1.0  0.20340  0.46560  0.53750  1.0000 -0.1666807633
C   C17       1.0  0.62430  0.97190  0.97790  1.0000 0.0805996849
C   C18       1.0  0.97190  0.62430  0.52210  1.0000 0.0805996849
C   C19       1.0  0.37570  0.02810  0.02210  1.0000 0.0805996849
C   C20       1.0  0.02810  0.37570  0.47790  1.0000 0.0805996849
C   C21       1.0  0.54490  0.81690  0.94820  1.0000 0.0805996849
C   C22       1.0  0.81690  0.54490  0.55180  1.0000 0.0805996849
C   C23       1.0  0.45510  0.18310  0.05180  1.0000 0.0805996849
C   C24       1.0  0.18310  0.45510  0.44820  1.0000 0.0805996849
C   C25       1.0  0.48880  0.88740  0.32930  1.0000 -0.025523628
C   C26       1.0  0.88740  0.48880  0.17070  1.0000 -0.025523628
C   C27       1.0  0.51120  0.11260  0.67070  1.0000 -0.025523628
C   C28       1.0  0.11260  0.51120  0.82930  1.0000 -0.025523628
C   C29       1.0  0.52920  0.79000  0.33380  1.0000 -0.0156020307
C   C30       1.0  0.79000  0.52920  0.16620  1.0000 -0.0156020307
C   C31       1.0  0.47080  0.21000  0.66620  1.0000 -0.0156020307
C   C32       1.0  0.21000  0.47080  0.83380  1.0000 -0.0156020307
C   C33       1.0  0.54160  0.71220  0.40900  1.0000 0.5581679616
C   C34       1.0  0.71220  0.54160  0.09100  1.0000 0.5581679616
C   C35       1.0  0.45840  0.28780  0.59100  1.0000 0.5581679616
C   C36       1.0  0.28780  0.45840  0.90900  1.0000 0.5581679616
C   C37       1.0  0.43690  0.94790  0.39730  1.0000 0.5581679616
C   C38       1.0  0.94790  0.43690  0.10270  1.0000 0.5581679616
C   C39       1.0  0.56310  0.05210  0.60270  1.0000 0.5581679616
C   C40       1.0  0.05210  0.56310  0.89730  1.0000 0.5581679616
C   C41       1.0  0.19190  0.01370  0.23450  1.0000 0.5369301709
C   C42       1.0  0.01370  0.19190  0.26550  1.0000 0.5369301709
C   C43       1.0  0.80810  0.98630  0.76550  1.0000 0.5369301709
C   C44       1.0  0.98630  0.80810  0.73450  1.0000 0.5369301709
C   C45       1.0  0.19960  0.12360  0.24460  1.0000 0.0113285444
C   C46       1.0  0.12360  0.19960  0.25540  1.0000 0.0113285444
C   C47       1.0  0.80040  0.87640  0.75540  1.0000 0.0113285444
C   C48       1.0  0.87640  0.80040  0.74460  1.0000 0.0113285444
C   C49       1.0  0.27260  0.27260  0.25000  1.0000 0.297156823
C   C50       1.0  0.72740  0.72740  0.75000  1.0000 0.297156823
C   C51       1.0  0.49100  0.44240  0.32280  1.0000 0.0805996849
C   C52       1.0  0.44240  0.49100  0.17720  1.0000 0.0805996849
C   C53       1.0  0.50900  0.55760  0.67720  1.0000 0.0805996849
C   C54       1.0  0.55760  0.50900  0.82280  1.0000 0.0805996849
C   C55       1.0  0.41800  0.36480  0.32540  1.0000 -0.1598826525
C   C56       1.0  0.36480  0.41800  0.17460  1.0000 -0.1598826525
C   C57       1.0  0.58200  0.63520  0.67460  1.0000 -0.1598826525
C   C58       1.0  0.63520  0.58200  0.82540  1.0000 -0.1598826525
C   C59       1.0  0.35280  0.35280  0.25000  1.0000 0.0805996849
C   C60       1.0  0.64720  0.64720  0.75000  1.0000 0.0805996849
C   C61       1.0  0.75150  0.21910  0.39230  1.0000 -0.3394498591
C   C62       1.0  0.21910  0.75150  0.10770  1.0000 -0.3394498591
C   C63       1.0  0.24850  0.78090  0.60770  1.0000 -0.3394498591
C   C64       1.0  0.78090  0.24850  0.89230  1.0000 -0.3394498591
C   C65       1.0  0.70990  0.28450  0.23700  1.0000 -0.315725061
C   C66       1.0  0.28450  0.70990  0.26300  1.0000 -0.315725061
C   C67       1.0  0.29010  0.71550  0.76300  1.0000 -0.315725061
C   C68       1.0  0.71550  0.29010  0.73700  1.0000 -0.315725061
C   C69       1.0  0.59940  0.16400  0.30620  1.0000 0.297156823
C   C70       1.0  0.16400  0.59940  0.19380  1.0000 0.297156823
C   C71       1.0  0.40060  0.83600  0.69380  1.0000 0.297156823
C   C72       1.0  0.83600  0.40060  0.80620  1.0000 0.297156823
N   N1        1.0  0.58830  0.90470  0.91680  1.0000 -0.2165469107
N   N2        1.0  0.90470  0.58830  0.58320  1.0000 -0.2165469107
N   N3        1.0  0.41170  0.09530  0.08320  1.0000 -0.2165469107
N   N4        1.0  0.09530  0.41170  0.41680  1.0000 -0.2165469107
N   N5        1.0  0.49800  0.92860  0.24430  1.0000 -0.3503065732
N   N6        1.0  0.92860  0.49800  0.25570  1.0000 -0.3503065732
N   N7        1.0  0.50200  0.07140  0.75570  1.0000 -0.3503065732
N   N8        1.0  0.07140  0.50200  0.74430  1.0000 -0.3503065732
N   N9        1.0  0.56450  0.76610  0.24900  1.0000 -0.3615872291
N   N10       1.0  0.76610  0.56450  0.25100  1.0000 -0.3615872291
N   N11       1.0  0.43550  0.23390  0.75100  1.0000 -0.3615872291
N   N12       1.0  0.23390  0.43550  0.74900  1.0000 -0.3615872291
N   N13       1.0  0.29230  0.17150  0.24340  1.0000 -0.3394498591
N   N14       1.0  0.17150  0.29230  0.25660  1.0000 -0.3394498591
N   N15       1.0  0.70770  0.82850  0.75660  1.0000 -0.3394498591
N   N16       1.0  0.82850  0.70770  0.74340  1.0000 -0.3394498591
N   N17       1.0  0.50590  0.50590  0.25000  1.0000 -0.2471468476
N   N18       1.0  0.49410  0.49410  0.75000  1.0000 -0.2471468476
N   N19       1.0  0.68300  0.21960  0.31170  1.0000 0.0527902964
N   N20       1.0  0.21960  0.68300  0.18830  1.0000 0.0527902964
N   N21       1.0  0.31700  0.78040  0.68830  1.0000 0.0527902964
N   N22       1.0  0.78040  0.31700  0.81170  1.0000 0.0527902964
O   O1        1.0  0.50440  0.73220  0.48370  1.0000 -0.5212458101
O   O2        1.0  0.73220  0.50440  0.01630  1.0000 -0.5212458101
O   O3        1.0  0.49560  0.26780  0.51630  1.0000 -0.5212458101
O   O4        1.0  0.26780  0.49560  0.98370  1.0000 -0.5212458101
O   O5        1.0  0.53850  0.16130  0.24040  1.0000 -0.4547242251
O   O6        1.0  0.16130  0.53850  0.25960  1.0000 -0.4547242251
O   O7        1.0  0.46150  0.83870  0.75960  1.0000 -0.4550684717
O   O8        1.0  0.83870  0.46150  0.74040  1.0000 -0.4547242251
O   O9        1.0  0.59170  0.63170  0.39150  1.0000 -0.5323253599
O   O10       1.0  0.63170  0.59170  0.10850  1.0000 -0.5323253599
O   O11       1.0  0.40830  0.36830  0.60850  1.0000 -0.5323253599
O   O12       1.0  0.36830  0.40830  0.89150  1.0000 -0.5323253599
O   O13       1.0  0.42400  0.90780  0.47720  1.0000 -0.4264962775
O   O14       1.0  0.90780  0.42400  0.02280  1.0000 -0.4264962775
O   O15       1.0  0.57600  0.09220  0.52280  1.0000 -0.4264962775
O   O16       1.0  0.09220  0.57600  0.97720  1.0000 -0.4264962775
O   O17       1.0  0.40470  0.03670  0.37550  1.0000 -0.4667626646
O   O18       1.0  0.03670  0.40470  0.12450  1.0000 -0.4667626646
O   O19       1.0  0.59530  0.96330  0.62450  1.0000 -0.4667626646
O   O20       1.0  0.96330  0.59530  0.87550  1.0000 -0.4667626646
O   O21       1.0  0.27410  0.96450  0.22010  1.0000 -0.555425438
O   O22       1.0  0.96450  0.27410  0.27990  1.0000 -0.555425438
O   O23       1.0  0.72590  0.03550  0.77990  1.0000 -0.555425438
O   O24       1.0  0.03550  0.72590  0.72010  1.0000 -0.555425438
O   O25       1.0  0.10320  0.96980  0.23990  1.0000 -0.4968318966
O   O26       1.0  0.96980  0.10320  0.26010  1.0000 -0.4968318966
O   O27       1.0  0.89680  0.03020  0.76010  1.0000 -0.4968318966
O   O28       1.0  0.03020  0.89680  0.73990  1.0000 -0.4968318966
