# DDEC6 charges by PACMAN v1.1 (https://github.com/mtap-research/PACMAN-charge/)
data_2016[Eu][nan]3[FSR]7
_chemical_formula_sum              "Eu4 H90 C110 N2 O32"
_cell_length_a       11.4422
_cell_length_b       13.6499
_cell_length_c       23.9769
_cell_angle_alpha    92.915
_cell_angle_beta     103.671
_cell_angle_gamma    112.821

_symmetry_space_group_name_H-M    "P 1"
_symmetry_Int_Tables_number       1

loop_
  _symmetry_equiv_pos_as_xyz
  'x, y, z'

loop_
  _atom_site_type_symbol
  _atom_site_label
  _atom_site_symmetry_multiplicity
  _atom_site_fract_x
  _atom_site_fract_y
  _atom_site_fract_z
  _atom_site_occupancy
  _atom_site_charge
Eu  Eu1       1.0  0.37634  0.29865  0.51752  1.0000 2.0403312178
Eu  Eu2       1.0  0.62366  0.70135  0.48248  1.0000 2.0403312178
Eu  Eu3       1.0  0.64560  0.59734  0.96192  1.0000 2.0403312178
Eu  Eu4       1.0  0.35440  0.40266  0.03808  1.0000 2.0403312178
H   H1        1.0  0.63170  0.33930  0.13550  1.0000 0.1405660102
H   H2        1.0  0.36830  0.66070  0.86450  1.0000 0.1405660102
H   H3        1.0  0.75060  0.28970  0.21060  1.0000 0.1322100252
H   H4        1.0  0.24940  0.71030  0.78940  1.0000 0.1322100252
H   H5        1.0  0.93200  0.27630  0.30440  1.0000 0.1405660102
H   H6        1.0  0.06800  0.72370  0.69560  1.0000 0.1405660102
H   H7        1.0  0.10700  0.30660  0.38380  1.0000 0.1322100252
H   H8        1.0  0.89300  0.69340  0.61620  1.0000 0.1322100252
H   H9        1.0  0.32140  0.58300  0.33720  1.0000 0.1468841391
H   H10       1.0  0.67860  0.41700  0.66280  1.0000 0.1468841391
H   H11       1.0  0.21950  0.51400  0.18630  1.0000 0.1468841391
H   H12       1.0  0.78050  0.48600  0.81370  1.0000 0.1468841391
H   H13       1.0  0.31440  0.62370  0.22670  1.0000 0.1405660102
H   H14       1.0  0.68560  0.37630  0.77330  1.0000 0.1405660102
H   H15       1.0  0.21160  0.62150  0.16950  1.0000 0.1405660102
H   H16       1.0  0.78840  0.37850  0.83050  1.0000 0.1405660102
H   H17       1.0  0.13070  0.72560  0.23260  1.0000 0.1405660102
H   H18       1.0  0.86930  0.27440  0.76740  1.0000 0.1405660102
H   H19       1.0  0.23590  0.72370  0.28760  1.0000 0.1405660102
H   H20       1.0  0.76410  0.27630  0.71240  1.0000 0.1405660102
H   H21       1.0  0.08730  0.67870  0.28670  1.0000 0.1405660102
H   H22       1.0  0.91270  0.32130  0.71330  1.0000 0.1405660102
H   H23       1.0  0.95560  0.60160  0.13880  1.0000 0.1405660102
H   H24       1.0  0.04440  0.39840  0.86120  1.0000 0.1405660102
H   H25       1.0  0.48520  0.63760  0.17390  1.0000 0.1405660102
H   H26       1.0  0.51480  0.36240  0.82610  1.0000 0.1405660102
H   H27       1.0  0.59400  0.72670  0.26610  1.0000 0.1405660102
H   H28       1.0  0.40600  0.27330  0.73390  1.0000 0.1405660102
H   H29       1.0  0.77220  0.85120  0.36690  1.0000 0.1405660102
H   H30       1.0  0.22780  0.14880  0.63310  1.0000 0.1405660102
H   H31       1.0  0.94270  0.98230  0.43930  1.0000 0.1592508338
H   H32       1.0  0.05730  0.01770  0.56070  1.0000 0.1592508338
H   H33       1.0  0.13270  0.10530  0.32080  1.0000 0.1405660102
H   H34       1.0  0.86730  0.89470  0.67920  1.0000 0.1405660102
H   H35       1.0  0.05630  0.87400  0.23070  1.0000 0.1405660102
H   H36       1.0  0.94370  0.12600  0.76930  1.0000 0.1405660102
H   H37       1.0  0.13400  0.99380  0.22440  1.0000 0.1405660102
H   H38       1.0  0.86600  0.00620  0.77560  1.0000 0.1405660102
H   H39       1.0  0.03360  0.91130  0.16940  1.0000 0.1405660102
H   H40       1.0  0.96640  0.08870  0.83060  1.0000 0.1405660102
H   H41       1.0  0.92630  0.04460  0.15400  1.0000 0.1405660102
H   H42       1.0  0.07370  0.95540  0.84600  1.0000 0.1405660102
H   H43       1.0  0.03280  0.11950  0.21010  1.0000 0.1405660102
H   H44       1.0  0.96720  0.88050  0.78990  1.0000 0.1405660102
H   H45       1.0  0.88320  0.08230  0.20600  1.0000 0.1405660102
H   H46       1.0  0.11680  0.91770  0.79400  1.0000 0.1405660102
H   H47       1.0  0.78490  0.83220  0.11660  1.0000 0.1405660102
H   H48       1.0  0.21510  0.16780  0.88340  1.0000 0.1405660102
H   H49       1.0  0.53220  0.00700  0.54970  1.0000 0.1405660102
H   H50       1.0  0.46780  0.99300  0.45030  1.0000 0.1405660102
H   H51       1.0  0.58740  0.88420  0.59970  1.0000 0.1405660102
H   H52       1.0  0.41260  0.11580  0.40030  1.0000 0.1405660102
H   H53       1.0  0.63480  0.75270  0.67970  1.0000 0.1405660102
H   H54       1.0  0.36520  0.24730  0.32030  1.0000 0.1405660102
H   H55       1.0  0.65470  0.66730  0.75710  1.0000 0.1405660102
H   H56       1.0  0.34530  0.33270  0.24290  1.0000 0.1405660102
H   H57       1.0  0.56450  0.86660  0.85020  1.0000 0.1405660102
H   H58       1.0  0.43550  0.13340  0.14980  1.0000 0.1405660102
H   H59       1.0  0.61650  0.06300  0.84790  1.0000 0.1405660102
H   H60       1.0  0.38350  0.93700  0.15210  1.0000 0.1405660102
H   H61       1.0  0.57990  0.13820  0.80610  1.0000 0.1405660102
H   H62       1.0  0.42010  0.86180  0.19390  1.0000 0.1405660102
H   H63       1.0  0.69590  0.10630  0.80250  1.0000 0.1468841391
H   H64       1.0  0.30410  0.89370  0.19750  1.0000 0.1468841391
H   H65       1.0  0.31510  0.88670  0.74110  1.0000 0.1405660102
H   H66       1.0  0.68490  0.11330  0.25890  1.0000 0.1405660102
H   H67       1.0  0.34440  0.00770  0.75940  1.0000 0.1405660102
H   H68       1.0  0.65560  0.99230  0.24060  1.0000 0.1405660102
H   H69       1.0  0.37170  0.93840  0.80730  1.0000 0.1405660102
H   H70       1.0  0.62830  0.06160  0.19270  1.0000 0.1405660102
H   H71       1.0  0.46780  0.12780  0.69020  1.0000 0.1322100252
H   H72       1.0  0.53220  0.87220  0.30980  1.0000 0.1322100252
H   H73       1.0  0.02850  0.38060  0.53740  1.0000 0.1592508338
H   H74       1.0  0.97150  0.61940  0.46260  1.0000 0.1592508338
H   H75       1.0  0.12810  0.42410  0.50010  1.0000 0.1695163282
H   H76       1.0  0.87190  0.57590  0.49990  1.0000 0.1695163282
H   H77       1.0  0.11520  0.50410  0.54550  1.0000 0.1405660102
H   H78       1.0  0.88480  0.49590  0.45450  1.0000 0.1405660102
H   H79       1.0  0.25030  0.62060  0.63940  1.0000 0.1468841391
H   H80       1.0  0.74970  0.37940  0.36060  1.0000 0.1468841391
H   H81       1.0  0.23430  0.56780  0.69570  1.0000 0.1322100252
H   H82       1.0  0.76570  0.43220  0.30430  1.0000 0.1322100252
H   H83       1.0  0.11730  0.52630  0.63850  1.0000 0.1322100252
H   H84       1.0  0.88270  0.47370  0.36150  1.0000 0.1405660102
H   H85       1.0  0.31650  0.38640  0.69660  1.0000 0.1405660102
H   H86       1.0  0.68350  0.61360  0.30340  1.0000 0.1405660102
H   H87       1.0  0.39420  0.51160  0.71000  1.0000 0.1468841391
H   H88       1.0  0.60580  0.48840  0.29000  1.0000 0.1468841391
H   H89       1.0  0.41750  0.44390  0.66190  1.0000 0.1592508338
H   H90       1.0  0.58250  0.55610  0.33810  1.0000 0.1592508338
C   C1        1.0  0.70800  0.50100  0.07630  1.0000 0.6495637627
C   C2        1.0  0.29200  0.49900  0.92370  1.0000 0.6495637627
C   C3        1.0  0.78280  0.47360  0.12870  1.0000 -0.0199683146
C   C4        1.0  0.21720  0.52640  0.87130  1.0000 -0.0199683146
C   C5        1.0  0.72100  0.38170  0.15140  1.0000 -0.1038677884
C   C6        1.0  0.27900  0.61830  0.84860  1.0000 -0.1038677884
C   C7        1.0  0.79200  0.35320  0.19690  1.0000 -0.139745429
C   C8        1.0  0.20800  0.64680  0.80310  1.0000 -0.139745429
C   C9        1.0  0.92430  0.41850  0.22290  1.0000 0.0199223858
C   C10       1.0  0.07570  0.58150  0.77710  1.0000 0.0199223858
C   C11       1.0  0.01950  0.41320  0.27280  1.0000 0.0102760182
C   C12       1.0  0.98050  0.58680  0.72720  1.0000 0.0102760182
C   C13       1.0  0.00900  0.33840  0.31110  1.0000 -0.139745429
C   C14       1.0  0.99100  0.66160  0.68890  1.0000 -0.139745429
C   C15       1.0  0.11400  0.35670  0.35850  1.0000 -0.0904699443
C   C16       1.0  0.88600  0.64330  0.64150  1.0000 -0.0904699443
C   C17       1.0  0.23040  0.44930  0.36920  1.0000 -0.0374158151
C   C18       1.0  0.76960  0.55070  0.63080  1.0000 -0.0374158151
C   C19       1.0  0.34260  0.47220  0.42120  1.0000 0.621178958
C   C20       1.0  0.65740  0.52780  0.57880  1.0000 0.621178958
C   C21       1.0  0.24280  0.52220  0.33090  1.0000 -0.1305882055
C   C22       1.0  0.75720  0.47780  0.66910  1.0000 -0.1305882055
C   C23       1.0  0.13810  0.50440  0.28340  1.0000 0.0199223858
C   C24       1.0  0.86190  0.49560  0.71660  1.0000 0.0199223858
C   C25       1.0  0.12620  0.57610  0.23700  1.0000 0.1858274298
C   C26       1.0  0.87380  0.42390  0.76300  1.0000 0.1858274298
C   C27       1.0  0.22700  0.58400  0.20140  1.0000 -0.4432313112
C   C28       1.0  0.77300  0.41600  0.79860  1.0000 -0.4432313112
C   C29       1.0  0.14700  0.68600  0.26340  1.0000 -0.457594615
C   C30       1.0  0.85300  0.31400  0.73660  1.0000 -0.457594615
C   C31       1.0  0.98390  0.51210  0.20070  1.0000 0.0199223858
C   C32       1.0  0.01610  0.48790  0.79930  1.0000 0.0199223858
C   C33       1.0  0.91450  0.53960  0.15360  1.0000 -0.1305882055
C   C34       1.0  0.08550  0.46040  0.84640  1.0000 -0.1305882055
C   C35       1.0  0.54800  0.66380  0.07500  1.0000 0.6495637627
C   C36       1.0  0.45200  0.33620  0.92500  1.0000 0.6495637627
C   C37       1.0  0.61690  0.72000  0.13560  1.0000 -0.0374158151
C   C38       1.0  0.38310  0.28000  0.86440  1.0000 -0.0374158151
C   C39       1.0  0.56800  0.69440  0.18070  1.0000 -0.0904699443
C   C40       1.0  0.43200  0.30560  0.81930  1.0000 -0.0904699443
C   C41       1.0  0.63200  0.74720  0.23590  1.0000 -0.139745429
C   C42       1.0  0.36800  0.25280  0.76410  1.0000 -0.139745429
C   C43       1.0  0.75600  0.83310  0.24670  1.0000 0.0290456992
C   C44       1.0  0.24400  0.16690  0.75330  1.0000 0.0290456992
C   C45       1.0  0.84800  0.90380  0.30000  1.0000 0.0199223858
C   C46       1.0  0.15200  0.09620  0.70000  1.0000 0.0199223858
C   C47       1.0  0.84300  0.90290  0.35760  1.0000 -0.1117059184
C   C48       1.0  0.15700  0.09710  0.64240  1.0000 -0.1117059184
C   C49       1.0  0.94650  0.98040  0.40100  1.0000 -0.0904699443
C   C50       1.0  0.05350  0.01960  0.59900  1.0000 -0.0904699443
C   C51       1.0  0.05300  0.05350  0.38790  1.0000 0.0010736421
C   C52       1.0  0.94700  0.94650  0.61210  1.0000 0.0010736421
C   C53       1.0  0.16890  0.13820  0.43530  1.0000 0.5484355422
C   C54       1.0  0.83110  0.86180  0.56470  1.0000 0.5484355422
C   C55       1.0  0.06070  0.05460  0.33000  1.0000 -0.139745429
C   C56       1.0  0.93930  0.94540  0.67000  1.0000 -0.139745429
C   C57       1.0  0.95860  0.97860  0.28840  1.0000 0.0290456992
C   C58       1.0  0.04140  0.02140  0.71160  1.0000 0.0290456992
C   C59       1.0  0.94330  0.96310  0.22240  1.0000 0.1858274298
C   C60       1.0  0.05670  0.03690  0.77760  1.0000 0.1858274298
C   C61       1.0  0.05200  0.93200  0.21070  1.0000 -0.4477824885
C   C62       1.0  0.94800  0.06800  0.78930  1.0000 -0.4477824885
C   C63       1.0  0.94800  0.06100  0.19580  1.0000 -0.4477824885
C   C64       1.0  0.05200  0.93900  0.80420  1.0000 -0.4477824885
C   C65       1.0  0.80840  0.86700  0.20060  1.0000 0.0199223858
C   C66       1.0  0.19160  0.13300  0.79940  1.0000 0.0199223858
C   C67       1.0  0.74670  0.81240  0.14670  1.0000 -0.1305882055
C   C68       1.0  0.25330  0.18760  0.85330  1.0000 -0.1305882055
C   C69       1.0  0.46200  0.16050  0.58140  1.0000 0.5605258079
C   C70       1.0  0.53800  0.83950  0.41860  1.0000 0.5605258079
C   C71       1.0  0.49660  0.08120  0.61440  1.0000 -0.0143373353
C   C72       1.0  0.50340  0.91880  0.38560  1.0000 -0.0143373353
C   C73       1.0  0.53100  0.00660  0.58840  1.0000 -0.0904699443
C   C74       1.0  0.46900  0.99340  0.41160  1.0000 -0.0904699443
C   C75       1.0  0.56300  0.93240  0.61770  1.0000 -0.1162930099
C   C76       1.0  0.43700  0.06760  0.38230  1.0000 -0.1162930099
C   C77       1.0  0.55770  0.93200  0.67610  1.0000 0.0199223858
C   C78       1.0  0.44230  0.06800  0.32390  1.0000 0.0199223858
C   C79       1.0  0.57900  0.86100  0.71630  1.0000 0.0290456992
C   C80       1.0  0.42100  0.13900  0.28370  1.0000 0.0290456992
C   C81       1.0  0.61800  0.77450  0.71320  1.0000 -0.1453836528
C   C82       1.0  0.38200  0.22550  0.28680  1.0000 -0.1453836528
C   C83       1.0  0.63100  0.72480  0.75990  1.0000 -0.0904699443
C   C84       1.0  0.36900  0.27520  0.24010  1.0000 -0.0904699443
C   C85       1.0  0.61100  0.75320  0.81080  1.0000 -0.0496862126
C   C86       1.0  0.38900  0.24680  0.18920  1.0000 -0.0496862126
C   C87       1.0  0.62700  0.70170  0.86210  1.0000 0.5605258079
C   C88       1.0  0.37300  0.29830  0.13790  1.0000 0.5605258079
C   C89       1.0  0.57500  0.84310  0.81530  1.0000 -0.139745429
C   C90       1.0  0.42500  0.15690  0.18470  1.0000 -0.139745429
C   C91       1.0  0.55640  0.89380  0.76850  1.0000 0.0102760182
C   C92       1.0  0.44360  0.10620  0.23150  1.0000 0.0102760182
C   C93       1.0  0.51730  0.98610  0.76330  1.0000 0.1831361683
C   C94       1.0  0.48270  0.01390  0.23670  1.0000 0.1831361683
C   C95       1.0  0.61100  0.08190  0.80940  1.0000 -0.457594615
C   C96       1.0  0.38900  0.91810  0.19060  1.0000 -0.457594615
C   C97       1.0  0.37300  0.95120  0.76810  1.0000 -0.4477824885
C   C98       1.0  0.62700  0.04880  0.23190  1.0000 -0.4477824885
C   C99       1.0  0.52100  0.00450  0.70180  1.0000 0.0102760182
C   C100      1.0  0.47900  0.99550  0.29820  1.0000 0.0102760182
C   C101      1.0  0.49130  0.07910  0.67220  1.0000 -0.1453836528
C   C102      1.0  0.50870  0.92090  0.32780  1.0000 -0.1453836528
C   C103      1.0  0.11300  0.43400  0.53760  1.0000 -0.5518236426
C   C104      1.0  0.88700  0.56600  0.46240  1.0000 -0.5518236426
C   C105      1.0  0.21700  0.41900  0.58480  1.0000 0.4991209837
C   C106      1.0  0.78300  0.58100  0.41520  1.0000 0.4991209837
C   C107      1.0  0.21100  0.55500  0.65400  1.0000 -0.3470413951
C   C108      1.0  0.78900  0.44500  0.34600  1.0000 -0.3470413951
C   C109      1.0  0.35300  0.45000  0.67980  1.0000 -0.3607322542
C   C110      1.0  0.64700  0.55000  0.32020  1.0000 -0.3607322542
N   N1        1.0  0.25500  0.47600  0.63030  1.0000 0.0392973604
N   N2        1.0  0.74500  0.52400  0.36970  1.0000 0.0392973604
O   O1        1.0  0.76960  0.56070  0.04650  1.0000 -0.5795859961
O   O2        1.0  0.23040  0.43930  0.95350  1.0000 -0.5795859961
O   O3        1.0  0.58320  0.46300  0.06480  1.0000 -0.6769075064
O   O4        1.0  0.41680  0.53700  0.93520  1.0000 -0.6769075064
O   O5        1.0  0.45360  0.54380  0.42350  1.0000 -0.610557702
O   O6        1.0  0.54640  0.45620  0.57650  1.0000 -0.610557702
O   O7        1.0  0.31800  0.42030  0.46310  1.0000 -0.6331359414
O   O8        1.0  0.68200  0.57970  0.53690  1.0000 -0.6331359414
O   O9        1.0  0.60640  0.69130  0.03540  1.0000 -0.644243714
O   O10       1.0  0.39360  0.30870  0.96460  1.0000 -0.644243714
O   O11       1.0  0.43550  0.58760  0.06650  1.0000 -0.6331359414
O   O12       1.0  0.56450  0.41240  0.93350  1.0000 -0.6331359414
O   O13       1.0  0.26840  0.19610  0.42130  1.0000 -0.5795859961
O   O14       1.0  0.73160  0.80390  0.57870  1.0000 -0.5795859961
O   O15       1.0  0.15960  0.14630  0.48580  1.0000 -0.5931821433
O   O16       1.0  0.84040  0.85370  0.51420  1.0000 -0.5931821433
O   O17       1.0  0.45700  0.15630  0.52840  1.0000 -0.5931821433
O   O18       1.0  0.54300  0.84370  0.47160  1.0000 -0.5931821433
O   O19       1.0  0.43530  0.23040  0.60690  1.0000 -0.6475454835
O   O20       1.0  0.56470  0.76960  0.39310  1.0000 -0.6475454835
O   O21       1.0  0.63670  0.61080  0.85790  1.0000 -0.621179801
O   O22       1.0  0.36330  0.38920  0.14210  1.0000 -0.621179801
O   O23       1.0  0.62780  0.74160  0.91200  1.0000 -0.621179801
O   O24       1.0  0.37220  0.25840  0.08800  1.0000 -0.621179801
O   O25       1.0  0.54330  0.35840  0.46450  1.0000 -0.2980329065
O   O26       1.0  0.45670  0.64160  0.53550  1.0000 -0.2980329065
O   O27       1.0  0.26160  0.35280  0.57250  1.0000 -0.610557702
O   O28       1.0  0.73840  0.64720  0.42750  1.0000 -0.610557702
O   O29       1.0  0.84300  0.57600  0.94100  1.0000 -0.2716350524
O   O30       1.0  0.15700  0.42400  0.05900  1.0000 -0.2762259511
O   O31       1.0  0.87100  0.72100  0.97790  1.0000 -0.5053735642
O   O32       1.0  0.12900  0.27900  0.02210  1.0000 -0.5048163203
