# DDEC6 charges by PACMAN v1.1 (https://github.com/mtap-research/PACMAN-charge/)
data_2016[Zn][nan]3[FSR]28
_chemical_formula_sum              "Zn8 H192 C224 S8 N32 O48"
_cell_length_a       24.3013
_cell_length_b       24.3013
_cell_length_c       25.455
_cell_angle_alpha    61.0666
_cell_angle_beta     118.933
_cell_angle_gamma    152.731

_symmetry_space_group_name_H-M    "P 1"
_symmetry_Int_Tables_number       1

loop_
  _symmetry_equiv_pos_as_xyz
  'x, y, z'

loop_
  _atom_site_type_symbol
  _atom_site_label
  _atom_site_symmetry_multiplicity
  _atom_site_fract_x
  _atom_site_fract_y
  _atom_site_fract_z
  _atom_site_occupancy
  _atom_site_charge
Zn  Zn1       1.0  0.26080  0.26080  0.75000  1.0000 0.7745900877
Zn  Zn2       1.0  0.73920  0.73920  0.25000  1.0000 0.7745900877
Zn  Zn3       1.0  0.72296  0.18564  0.75016  1.0000 0.734883038
Zn  Zn4       1.0  0.18564  0.72296  0.74984  1.0000 0.734883038
Zn  Zn5       1.0  0.27704  0.81436  0.24984  1.0000 0.734883038
Zn  Zn6       1.0  0.81436  0.27704  0.25016  1.0000 0.734883038
Zn  Zn7       1.0  0.63496  0.63496  0.75000  1.0000 0.7646513708
Zn  Zn8       1.0  0.36504  0.36504  0.25000  1.0000 0.7646513708
H   H1        1.0  0.50610  0.94810  0.26270  1.0000 0.1199862844
H   H2        1.0  0.94810  0.50610  0.23730  1.0000 0.1199862844
H   H3        1.0  0.49390  0.05190  0.73730  1.0000 0.1199862844
H   H4        1.0  0.05190  0.49390  0.76270  1.0000 0.1199862844
H   H5        1.0  0.65010  0.00230  0.33520  1.0000 0.1466389202
H   H6        1.0  0.00230  0.65010  0.16480  1.0000 0.1466389202
H   H7        1.0  0.34990  0.99770  0.66480  1.0000 0.1466389202
H   H8        1.0  0.99770  0.34990  0.83520  1.0000 0.1466389202
H   H9        1.0  0.42050  0.76510  0.45810  1.0000 0.128114412
H   H10       1.0  0.76510  0.42050  0.04190  1.0000 0.128114412
H   H11       1.0  0.57950  0.23490  0.54190  1.0000 0.128114412
H   H12       1.0  0.23490  0.57950  0.95810  1.0000 0.128114412
H   H13       1.0  0.28980  0.72680  0.38310  1.0000 0.1098011924
H   H14       1.0  0.72680  0.28980  0.11690  1.0000 0.1098011924
H   H15       1.0  0.71020  0.27320  0.61690  1.0000 0.1098011924
H   H16       1.0  0.27320  0.71020  0.88310  1.0000 0.1098011924
H   H17       1.0  0.54760  0.82640  0.52080  1.0000 0.1098011924
H   H18       1.0  0.82640  0.54760  0.97920  1.0000 0.1098011924
H   H19       1.0  0.45240  0.17360  0.47920  1.0000 0.1098011924
H   H20       1.0  0.17360  0.45240  0.02080  1.0000 0.1098011924
H   H21       1.0  0.59850  0.81070  0.51950  1.0000 0.1199862844
H   H22       1.0  0.81070  0.59850  0.98050  1.0000 0.1199862844
H   H23       1.0  0.40150  0.18930  0.48050  1.0000 0.1199862844
H   H24       1.0  0.18930  0.40150  0.01950  1.0000 0.1199862844
H   H25       1.0  0.73930  0.95570  0.43960  1.0000 0.1098011924
H   H26       1.0  0.95570  0.73930  0.06040  1.0000 0.1098011924
H   H27       1.0  0.26070  0.04430  0.56040  1.0000 0.1098011924
H   H28       1.0  0.04430  0.26070  0.93960  1.0000 0.1098011924
H   H29       1.0  0.76910  0.05370  0.39750  1.0000 0.1199862844
H   H30       1.0  0.05370  0.76910  0.10250  1.0000 0.1199862844
H   H31       1.0  0.23090  0.94630  0.60250  1.0000 0.1199862844
H   H32       1.0  0.94630  0.23090  0.89750  1.0000 0.1199862844
H   H33       1.0  0.88210  0.15730  0.47530  1.0000 0.1199862844
H   H34       1.0  0.15730  0.88210  0.02470  1.0000 0.1199862844
H   H35       1.0  0.11790  0.84270  0.52470  1.0000 0.1199862844
H   H36       1.0  0.84270  0.11790  0.97530  1.0000 0.1199862844
H   H37       1.0  0.92670  0.13470  0.47500  1.0000 0.1098011924
H   H38       1.0  0.13470  0.92670  0.02500  1.0000 0.1098011924
H   H39       1.0  0.07330  0.86530  0.52500  1.0000 0.1098011924
H   H40       1.0  0.86530  0.07330  0.97500  1.0000 0.1098011924
H   H41       1.0  0.71010  0.91490  0.59890  1.0000 0.1098011924
H   H42       1.0  0.91490  0.71010  0.90110  1.0000 0.1098011924
H   H43       1.0  0.28990  0.08510  0.40110  1.0000 0.1098011924
H   H44       1.0  0.08510  0.28990  0.09890  1.0000 0.1098011924
H   H45       1.0  0.73670  0.01050  0.55590  1.0000 0.1098011924
H   H46       1.0  0.01050  0.73670  0.94410  1.0000 0.1098011924
H   H47       1.0  0.26330  0.98950  0.44410  1.0000 0.1098011924
H   H48       1.0  0.98950  0.26330  0.05590  1.0000 0.1098011924
H   H49       1.0  0.05510  0.19770  0.53770  1.0000 0.128114412
H   H50       1.0  0.19770  0.05510  0.96230  1.0000 0.128114412
H   H51       1.0  0.94490  0.80230  0.46230  1.0000 0.128114412
H   H52       1.0  0.80230  0.94490  0.03770  1.0000 0.128114412
H   H53       1.0  0.20580  0.27060  0.61470  1.0000 0.1098011924
H   H54       1.0  0.27060  0.20580  0.88530  1.0000 0.1098011924
H   H55       1.0  0.79420  0.72940  0.38530  1.0000 0.1098011924
H   H56       1.0  0.72940  0.79420  0.11470  1.0000 0.1098011924
H   H57       1.0  0.00920  0.09240  0.73510  1.0000 0.1098011924
H   H58       1.0  0.09240  0.00920  0.76490  1.0000 0.1098011924
H   H59       1.0  0.99080  0.90760  0.26490  1.0000 0.1098011924
H   H60       1.0  0.90760  0.99080  0.23510  1.0000 0.1098011924
H   H61       1.0  0.85120  0.00700  0.66220  1.0000 0.1397383414
H   H62       1.0  0.00700  0.85120  0.83780  1.0000 0.1397383414
H   H63       1.0  0.14880  0.99300  0.33780  1.0000 0.1397383414
H   H64       1.0  0.99300  0.14880  0.16220  1.0000 0.1397383414
H   H65       1.0  0.50660  0.52880  0.86290  1.0000 0.1199862844
H   H66       1.0  0.52880  0.50660  0.63710  1.0000 0.1199862844
H   H67       1.0  0.49340  0.47120  0.13710  1.0000 0.1199862844
H   H68       1.0  0.47120  0.49340  0.36290  1.0000 0.1199862844
H   H69       1.0  0.60400  0.64400  0.93240  1.0000 0.1199862844
H   H70       1.0  0.64400  0.60400  0.56760  1.0000 0.1199862844
H   H71       1.0  0.39600  0.35600  0.06760  1.0000 0.1199862844
H   H72       1.0  0.35600  0.39600  0.43240  1.0000 0.1199862844
H   H73       1.0  0.28430  0.43990  0.93230  1.0000 0.1199862844
H   H74       1.0  0.43990  0.28430  0.56770  1.0000 0.1199862844
H   H75       1.0  0.71570  0.56010  0.06770  1.0000 0.1199862844
H   H76       1.0  0.56010  0.71570  0.43230  1.0000 0.1199862844
H   H77       1.0  0.18450  0.31590  0.86730  1.0000 0.1098011924
H   H78       1.0  0.31590  0.18450  0.63270  1.0000 0.1098011924
H   H79       1.0  0.81550  0.68410  0.13270  1.0000 0.1098011924
H   H80       1.0  0.68410  0.81550  0.36730  1.0000 0.1098011924
H   H81       1.0  0.72370  0.86210  0.92560  1.0000 0.1199862844
H   H82       1.0  0.86210  0.72370  0.57440  1.0000 0.1199862844
H   H83       1.0  0.27630  0.13790  0.07440  1.0000 0.1199862844
H   H84       1.0  0.13790  0.27630  0.42560  1.0000 0.1199862844
H   H85       1.0  0.78760  0.01940  0.86330  1.0000 0.1199862844
H   H86       1.0  0.01940  0.78760  0.63670  1.0000 0.1199862844
H   H87       1.0  0.21240  0.98060  0.13670  1.0000 0.1199862844
H   H88       1.0  0.98060  0.21240  0.36330  1.0000 0.1199862844
H   H89       1.0  0.47570  0.81990  0.87220  1.0000 0.1199862844
H   H90       1.0  0.81990  0.47570  0.62780  1.0000 0.1199862844
H   H91       1.0  0.52430  0.18010  0.12780  1.0000 0.1199862844
H   H92       1.0  0.18010  0.52430  0.37220  1.0000 0.1199862844
H   H93       1.0  0.41530  0.66550  0.93920  1.0000 0.1199862844
H   H94       1.0  0.66550  0.41530  0.56080  1.0000 0.1199862844
H   H95       1.0  0.58470  0.33450  0.06080  1.0000 0.1199862844
H   H96       1.0  0.33450  0.58470  0.43920  1.0000 0.1199862844
H   H97       1.0  0.86530  0.40770  0.76400  1.0000 0.1199862844
H   H98       1.0  0.40770  0.86530  0.73600  1.0000 0.1199862844
H   H99       1.0  0.13470  0.59230  0.23600  1.0000 0.1199862844
H   H100      1.0  0.59230  0.13470  0.26400  1.0000 0.1199862844
H   H101      1.0  0.96230  0.51230  0.83740  1.0000 0.1466389202
H   H102      1.0  0.51230  0.96230  0.66260  1.0000 0.1466389202
H   H103      1.0  0.03770  0.48770  0.16260  1.0000 0.1466389202
H   H104      1.0  0.48770  0.03770  0.33740  1.0000 0.1466389202
H   H105      1.0  0.77500  0.20960  0.95820  1.0000 0.128114412
H   H106      1.0  0.20960  0.77500  0.54180  1.0000 0.128114412
H   H107      1.0  0.22500  0.79040  0.04180  1.0000 0.128114412
H   H108      1.0  0.79040  0.22500  0.45820  1.0000 0.128114412
H   H109      1.0  0.69450  0.11910  0.88230  1.0000 0.1098011924
H   H110      1.0  0.11910  0.69450  0.61770  1.0000 0.1098011924
H   H111      1.0  0.30550  0.88090  0.11770  1.0000 0.1098011924
H   H112      1.0  0.88090  0.30550  0.38230  1.0000 0.1098011924
H   H113      1.0  0.83400  0.29220  0.01680  1.0000 0.1199862844
H   H114      1.0  0.29220  0.83400  0.48320  1.0000 0.1199862844
H   H115      1.0  0.16600  0.70780  0.98320  1.0000 0.1199862844
H   H116      1.0  0.70780  0.16600  0.51680  1.0000 0.1199862844
H   H117      1.0  0.97170  0.38690  0.03200  1.0000 0.1098011924
H   H118      1.0  0.38690  0.97170  0.46800  1.0000 0.1098011924
H   H119      1.0  0.02830  0.61310  0.96800  1.0000 0.1098011924
H   H120      1.0  0.61310  0.02830  0.53200  1.0000 0.1098011924
H   H121      1.0  0.05520  0.60020  0.90510  1.0000 0.1199862844
H   H122      1.0  0.60020  0.05520  0.59490  1.0000 0.1199862844
H   H123      1.0  0.94480  0.39980  0.09490  1.0000 0.1199862844
H   H124      1.0  0.39980  0.94480  0.40510  1.0000 0.1199862844
H   H125      1.0  0.11750  0.59030  0.95910  1.0000 0.1199862844
H   H126      1.0  0.59030  0.11750  0.54090  1.0000 0.1199862844
H   H127      1.0  0.88250  0.40970  0.04090  1.0000 0.1199862844
H   H128      1.0  0.40970  0.88250  0.45910  1.0000 0.1199862844
H   H129      1.0  0.82090  0.17490  0.63420  1.0000 0.1199862844
H   H130      1.0  0.17490  0.82090  0.86580  1.0000 0.1199862844
H   H131      1.0  0.17910  0.82510  0.36580  1.0000 0.1199862844
H   H132      1.0  0.82510  0.17910  0.13420  1.0000 0.1199862844
H   H133      1.0  0.93940  0.27080  0.56790  1.0000 0.1199862844
H   H134      1.0  0.27080  0.93940  0.93210  1.0000 0.1199862844
H   H135      1.0  0.06060  0.72920  0.43210  1.0000 0.1199862844
H   H136      1.0  0.72920  0.06060  0.06790  1.0000 0.1199862844
H   H137      1.0  0.13660  0.58820  0.56120  1.0000 0.1199862844
H   H138      1.0  0.58820  0.13660  0.93880  1.0000 0.1199862844
H   H139      1.0  0.86340  0.41180  0.43880  1.0000 0.1199862844
H   H140      1.0  0.41180  0.86340  0.06120  1.0000 0.1199862844
H   H141      1.0  0.02570  0.49630  0.63120  1.0000 0.1199862844
H   H142      1.0  0.49630  0.02570  0.86880  1.0000 0.1199862844
H   H143      1.0  0.97430  0.50370  0.36880  1.0000 0.1199862844
H   H144      1.0  0.50370  0.97430  0.13120  1.0000 0.1199862844
H   H145      1.0  0.16440  0.40180  0.55810  1.0000 0.1199862844
H   H146      1.0  0.40180  0.16440  0.94190  1.0000 0.1199862844
H   H147      1.0  0.83560  0.59820  0.44190  1.0000 0.1199862844
H   H148      1.0  0.59820  0.83560  0.05810  1.0000 0.1199862844
H   H149      1.0  0.31320  0.45700  0.62560  1.0000 0.1199862844
H   H150      1.0  0.45700  0.31320  0.87440  1.0000 0.1199862844
H   H151      1.0  0.68680  0.54300  0.37440  1.0000 0.1199862844
H   H152      1.0  0.54300  0.68680  0.12560  1.0000 0.1199862844
H   H153      1.0  0.50980  0.76580  0.63740  1.0000 0.1199862844
H   H154      1.0  0.76580  0.50980  0.86260  1.0000 0.1199862844
H   H155      1.0  0.49020  0.23420  0.36260  1.0000 0.1199862844
H   H156      1.0  0.23420  0.49020  0.13740  1.0000 0.1199862844
H   H157      1.0  0.36270  0.71190  0.57140  1.0000 0.128114412
H   H158      1.0  0.71190  0.36270  0.92860  1.0000 0.128114412
H   H159      1.0  0.63730  0.28810  0.42860  1.0000 0.128114412
H   H160      1.0  0.28810  0.63730  0.07140  1.0000 0.128114412
H   H161      1.0  0.81490  0.88010  0.76350  1.0000 0.1098011924
H   H162      1.0  0.88010  0.81490  0.73650  1.0000 0.1098011924
H   H163      1.0  0.18510  0.11990  0.23650  1.0000 0.1098011924
H   H164      1.0  0.11990  0.18510  0.26350  1.0000 0.1098011924
H   H165      1.0  0.93930  0.00050  0.83610  1.0000 0.1397383414
H   H166      1.0  0.00050  0.93930  0.66390  1.0000 0.1397383414
H   H167      1.0  0.06070  0.99950  0.16390  1.0000 0.1397383414
H   H168      1.0  0.99950  0.06070  0.33610  1.0000 0.1397383414
H   H169      1.0  0.80520  0.72520  0.96250  1.0000 0.128114412
H   H170      1.0  0.72520  0.80520  0.53750  1.0000 0.128114412
H   H171      1.0  0.19480  0.27480  0.03750  1.0000 0.128114412
H   H172      1.0  0.27480  0.19480  0.46250  1.0000 0.128114412
H   H173      1.0  0.68790  0.61450  0.88490  1.0000 0.1098011924
H   H174      1.0  0.61450  0.68790  0.61510  1.0000 0.1098011924
H   H175      1.0  0.31210  0.38550  0.11510  1.0000 0.1098011924
H   H176      1.0  0.38550  0.31210  0.38490  1.0000 0.1098011924
H   H177      1.0  0.04050  0.09730  0.90010  1.0000 0.1098011924
H   H178      1.0  0.09730  0.04050  0.59990  1.0000 0.1098011924
H   H179      1.0  0.95950  0.90270  0.09990  1.0000 0.1098011924
H   H180      1.0  0.90270  0.95950  0.40010  1.0000 0.1098011924
H   H181      1.0  0.12870  0.11890  0.95290  1.0000 0.1199862844
H   H182      1.0  0.11890  0.12870  0.54710  1.0000 0.1199862844
H   H183      1.0  0.87130  0.88110  0.04710  1.0000 0.1199862844
H   H184      1.0  0.88110  0.87130  0.45290  1.0000 0.1199862844
H   H185      1.0  0.87950  0.80850  0.02380  1.0000 0.1098011924
H   H186      1.0  0.80850  0.87950  0.47620  1.0000 0.1098011924
H   H187      1.0  0.12050  0.19150  0.97620  1.0000 0.1098011924
H   H188      1.0  0.19150  0.12050  0.52380  1.0000 0.1098011924
H   H189      1.0  0.02430  0.93370  0.03280  1.0000 0.1098011924
H   H190      1.0  0.93370  0.02430  0.46720  1.0000 0.1098011924
H   H191      1.0  0.97570  0.06630  0.96720  1.0000 0.1098011924
H   H192      1.0  0.06630  0.97570  0.53280  1.0000 0.1098011924
C   C1        1.0  0.48930  0.91150  0.30340  1.0000 0.0912918401
C   C2        1.0  0.91150  0.48930  0.19660  1.0000 0.0912918401
C   C3        1.0  0.51070  0.08850  0.69660  1.0000 0.0912918401
C   C4        1.0  0.08850  0.51070  0.80340  1.0000 0.0912918401
C   C5        1.0  0.57670  0.94550  0.34640  1.0000 -0.2390382647
C   C6        1.0  0.94550  0.57670  0.15360  1.0000 -0.2390382647
C   C7        1.0  0.42330  0.05450  0.65360  1.0000 -0.2390382647
C   C8        1.0  0.05450  0.42330  0.84640  1.0000 -0.2390382647
C   C9        1.0  0.55570  0.89530  0.40630  1.0000 0.2274665711
C   C10       1.0  0.89530  0.55570  0.09370  1.0000 0.2274665711
C   C11       1.0  0.44430  0.10470  0.59370  1.0000 0.2274665711
C   C12       1.0  0.10470  0.44430  0.90630  1.0000 0.2274665711
C   C13       1.0  0.44210  0.80710  0.41840  1.0000 -0.2599433627
C   C14       1.0  0.80710  0.44210  0.08160  1.0000 -0.2599433627
C   C15       1.0  0.55790  0.19290  0.58160  1.0000 -0.2599433627
C   C16       1.0  0.19290  0.55790  0.91840  1.0000 -0.2599433627
C   C17       1.0  0.36330  0.78210  0.37300  1.0000 0.0793779141
C   C18       1.0  0.78210  0.36330  0.12700  1.0000 0.0793779141
C   C19       1.0  0.63670  0.21790  0.62700  1.0000 0.0793779141
C   C20       1.0  0.21790  0.63670  0.87300  1.0000 0.0793779141
C   C21       1.0  0.61830  0.87050  0.51340  1.0000 -0.1301889088
C   C22       1.0  0.87050  0.61830  0.98660  1.0000 -0.1301889088
C   C23       1.0  0.38170  0.12950  0.48660  1.0000 -0.1301889088
C   C24       1.0  0.12950  0.38170  0.01340  1.0000 -0.1301889088
C   C25       1.0  0.75240  0.00820  0.43870  1.0000 -0.1301889088
C   C26       1.0  0.00820  0.75240  0.06130  1.0000 -0.1301889088
C   C27       1.0  0.24760  0.99180  0.56130  1.0000 -0.1301889088
C   C28       1.0  0.99180  0.24760  0.93870  1.0000 -0.1301889088
C   C29       1.0  0.85840  0.09420  0.48220  1.0000 -0.1371902138
C   C30       1.0  0.09420  0.85840  0.01780  1.0000 -0.1371902138
C   C31       1.0  0.14160  0.90580  0.51780  1.0000 -0.1371902138
C   C32       1.0  0.90580  0.14160  0.98220  1.0000 -0.1371902138
C   C33       1.0  0.72550  0.95930  0.55750  1.0000 -0.1301889088
C   C34       1.0  0.95930  0.72550  0.94250  1.0000 -0.1301889088
C   C35       1.0  0.27450  0.04070  0.44250  1.0000 -0.1301889088
C   C36       1.0  0.04070  0.27450  0.05750  1.0000 -0.1301889088
C   C37       1.0  0.92950  0.08850  0.58980  1.0000 0.2274665711
C   C38       1.0  0.08850  0.92950  0.91020  1.0000 0.2274665711
C   C39       1.0  0.07050  0.91150  0.41020  1.0000 0.2274665711
C   C40       1.0  0.91150  0.07050  0.08980  1.0000 0.2274665711
C   C41       1.0  0.04230  0.17230  0.57830  1.0000 -0.2934949271
C   C42       1.0  0.17230  0.04230  0.92170  1.0000 -0.2934949271
C   C43       1.0  0.95770  0.82770  0.42170  1.0000 -0.2934949271
C   C44       1.0  0.82770  0.95770  0.07830  1.0000 -0.2934949271
C   C45       1.0  0.13360  0.21800  0.62460  1.0000 0.0966826264
C   C46       1.0  0.21800  0.13360  0.87540  1.0000 0.0966826264
C   C47       1.0  0.86640  0.78200  0.37540  1.0000 0.0966826264
C   C48       1.0  0.78200  0.86640  0.12460  1.0000 0.0966826264
C   C49       1.0  0.01840  0.11320  0.69420  1.0000 0.0793779141
C   C50       1.0  0.11320  0.01840  0.80580  1.0000 0.0793779141
C   C51       1.0  0.98160  0.88680  0.30580  1.0000 0.0793779141
C   C52       1.0  0.88680  0.98160  0.19420  1.0000 0.0793779141
C   C53       1.0  0.92330  0.06210  0.65060  1.0000 -0.2497849636
C   C54       1.0  0.06210  0.92330  0.84940  1.0000 -0.2497849636
C   C55       1.0  0.07670  0.93790  0.34940  1.0000 -0.2497849636
C   C56       1.0  0.93790  0.07670  0.15060  1.0000 -0.2497849636
C   C57       1.0  0.27230  0.33210  0.81680  1.0000 0.5426465102
C   C58       1.0  0.33210  0.27230  0.68320  1.0000 0.5426465102
C   C59       1.0  0.72770  0.66790  0.18320  1.0000 0.5426465102
C   C60       1.0  0.66790  0.72770  0.31680  1.0000 0.5426465102
C   C61       1.0  0.33730  0.41190  0.85900  1.0000 0.0088756155
C   C62       1.0  0.41190  0.33730  0.64100  1.0000 0.0088756155
C   C63       1.0  0.66270  0.58810  0.14100  1.0000 0.0088756155
C   C64       1.0  0.58810  0.66270  0.35900  1.0000 0.0088756155
C   C65       1.0  0.46090  0.50930  0.87790  1.0000 -0.0800346624
C   C66       1.0  0.50930  0.46090  0.62210  1.0000 -0.0800346624
C   C67       1.0  0.53910  0.49070  0.12210  1.0000 -0.0800346624
C   C68       1.0  0.49070  0.53910  0.37790  1.0000 -0.0800346624
C   C69       1.0  0.51980  0.57920  0.91840  1.0000 -0.1081744014
C   C70       1.0  0.57920  0.51980  0.58160  1.0000 -0.1081744014
C   C71       1.0  0.48020  0.42080  0.08160  1.0000 -0.1081744014
C   C72       1.0  0.42080  0.48020  0.41840  1.0000 -0.1081744014
C   C73       1.0  0.45110  0.55050  0.93730  1.0000 -0.0697857462
C   C74       1.0  0.55050  0.45110  0.56270  1.0000 -0.0697857462
C   C75       1.0  0.54890  0.44950  0.06270  1.0000 -0.0697857462
C   C76       1.0  0.44950  0.54890  0.43730  1.0000 -0.0697857462
C   C77       1.0  0.32840  0.45600  0.91880  1.0000 -0.1227021873
C   C78       1.0  0.45600  0.32840  0.58120  1.0000 -0.1227021873
C   C79       1.0  0.67160  0.54400  0.08120  1.0000 -0.1227021873
C   C80       1.0  0.54400  0.67160  0.41880  1.0000 -0.1227021873
C   C81       1.0  0.26950  0.38350  0.87950  1.0000 -0.1081744014
C   C82       1.0  0.38350  0.26950  0.62050  1.0000 -0.1081744014
C   C83       1.0  0.73050  0.61650  0.12050  1.0000 -0.1081744014
C   C84       1.0  0.61650  0.73050  0.37950  1.0000 -0.1081744014
C   C85       1.0  0.56620  0.75320  0.93900  1.0000 -0.0800346624
C   C86       1.0  0.75320  0.56620  0.56100  1.0000 -0.0800346624
C   C87       1.0  0.43380  0.24680  0.06100  1.0000 -0.0800346624
C   C88       1.0  0.24680  0.43380  0.43900  1.0000 -0.0800346624
C   C89       1.0  0.67490  0.85530  0.91570  1.0000 -0.1301889088
C   C90       1.0  0.85530  0.67490  0.58430  1.0000 -0.1301889088
C   C91       1.0  0.32510  0.14470  0.08430  1.0000 -0.1301889088
C   C92       1.0  0.14470  0.32510  0.41570  1.0000 -0.1301889088
C   C93       1.0  0.71160  0.94720  0.87800  1.0000 -0.1081744014
C   C94       1.0  0.94720  0.71160  0.62200  1.0000 -0.1081744014
C   C95       1.0  0.28840  0.05280  0.12200  1.0000 -0.1081744014
C   C96       1.0  0.05280  0.28840  0.37800  1.0000 -0.1081744014
C   C97       1.0  0.63640  0.93260  0.86220  1.0000 -0.0110620946
C   C98       1.0  0.93260  0.63640  0.63780  1.0000 -0.0110620946
C   C99       1.0  0.36360  0.06740  0.13780  1.0000 -0.0110620946
C   C100      1.0  0.06740  0.36360  0.36220  1.0000 -0.0110620946
C   C101      1.0  0.52700  0.82900  0.88410  1.0000 -0.0800346624
C   C102      1.0  0.82900  0.52700  0.61590  1.0000 -0.0800346624
C   C103      1.0  0.47300  0.17100  0.11590  1.0000 -0.0800346624
C   C104      1.0  0.17100  0.47300  0.38410  1.0000 -0.0800346624
C   C105      1.0  0.49040  0.73680  0.92360  1.0000 -0.1023484957
C   C106      1.0  0.73680  0.49040  0.57640  1.0000 -0.1023484957
C   C107      1.0  0.50960  0.26320  0.07640  1.0000 -0.1023484957
C   C108      1.0  0.26320  0.50960  0.42360  1.0000 -0.1023484957
C   C109      1.0  0.67810  0.03350  0.82210  1.0000 0.5489086114
C   C110      1.0  0.03350  0.67810  0.67790  1.0000 0.5489086114
C   C111      1.0  0.32190  0.96650  0.17790  1.0000 0.5489086114
C   C112      1.0  0.96650  0.32190  0.32210  1.0000 0.5489086114
C   C113      1.0  0.84990  0.36830  0.80460  1.0000 0.0966826264
C   C114      1.0  0.36830  0.84990  0.69540  1.0000 0.0966826264
C   C115      1.0  0.15010  0.63170  0.19540  1.0000 0.0966826264
C   C116      1.0  0.63170  0.15010  0.30460  1.0000 0.0966826264
C   C117      1.0  0.90690  0.43070  0.84810  1.0000 -0.2314835138
C   C118      1.0  0.43070  0.90690  0.65190  1.0000 -0.2314835138
C   C119      1.0  0.09310  0.56930  0.15190  1.0000 -0.2314835138
C   C120      1.0  0.56930  0.09310  0.34810  1.0000 -0.2314835138
C   C121      1.0  0.88540  0.37720  0.90810  1.0000 0.2274665711
C   C122      1.0  0.37720  0.88540  0.59190  1.0000 0.2274665711
C   C123      1.0  0.11460  0.62280  0.09190  1.0000 0.2274665711
C   C124      1.0  0.62280  0.11460  0.40810  1.0000 0.2274665711
C   C125      1.0  0.79860  0.25420  0.91900  1.0000 -0.2599433627
C   C126      1.0  0.25420  0.79860  0.58100  1.0000 -0.2599433627
C   C127      1.0  0.20140  0.74580  0.08100  1.0000 -0.2599433627
C   C128      1.0  0.74580  0.20140  0.41900  1.0000 -0.2599433627
C   C129      1.0  0.74950  0.20030  0.87320  1.0000 0.0793779141
C   C130      1.0  0.20030  0.74950  0.62680  1.0000 0.0793779141
C   C131      1.0  0.25050  0.79970  0.12680  1.0000 0.0793779141
C   C132      1.0  0.79970  0.25050  0.37320  1.0000 0.0793779141
C   C133      1.0  0.91930  0.37950  0.01520  1.0000 -0.1301889088
C   C134      1.0  0.37950  0.91930  0.48480  1.0000 -0.1301889088
C   C135      1.0  0.08070  0.62050  0.98480  1.0000 -0.1301889088
C   C136      1.0  0.62050  0.08070  0.51520  1.0000 -0.1301889088
C   C137      1.0  0.05310  0.56650  0.94800  1.0000 -0.1301889088
C   C138      1.0  0.56650  0.05310  0.55200  1.0000 -0.1301889088
C   C139      1.0  0.94690  0.43350  0.05200  1.0000 -0.1301889088
C   C140      1.0  0.43350  0.94690  0.44800  1.0000 -0.1301889088
C   C141      1.0  0.83100  0.26200  0.67840  1.0000 0.5489086114
C   C142      1.0  0.26200  0.83100  0.82160  1.0000 0.5489086114
C   C143      1.0  0.16900  0.73800  0.32160  1.0000 0.5489086114
C   C144      1.0  0.73800  0.16900  0.17840  1.0000 0.5489086114
C   C145      1.0  0.91210  0.32730  0.63770  1.0000 0.0088756155
C   C146      1.0  0.32730  0.91210  0.86230  1.0000 0.0088756155
C   C147      1.0  0.08790  0.67270  0.36230  1.0000 0.0088756155
C   C148      1.0  0.67270  0.08790  0.13770  1.0000 0.0088756155
C   C149      1.0  0.88560  0.25900  0.61980  1.0000 -0.1081744014
C   C150      1.0  0.25900  0.88560  0.88020  1.0000 -0.1081744014
C   C151      1.0  0.11440  0.74100  0.38020  1.0000 -0.1081744014
C   C152      1.0  0.74100  0.11440  0.11980  1.0000 -0.1081744014
C   C153      1.0  0.95520  0.31560  0.58030  1.0000 -0.1227021873
C   C154      1.0  0.31560  0.95520  0.91970  1.0000 -0.1227021873
C   C155      1.0  0.04480  0.68440  0.41970  1.0000 -0.1227021873
C   C156      1.0  0.68440  0.04480  0.08030  1.0000 -0.1227021873
C   C157      1.0  0.04880  0.43900  0.55880  1.0000 -0.0800346624
C   C158      1.0  0.43900  0.04880  0.94120  1.0000 -0.0800346624
C   C159      1.0  0.95120  0.56100  0.44120  1.0000 -0.0800346624
C   C160      1.0  0.56100  0.95120  0.05880  1.0000 -0.0800346624
C   C161      1.0  0.07360  0.50480  0.57660  1.0000 -0.1023484957
C   C162      1.0  0.50480  0.07360  0.92340  1.0000 -0.1023484957
C   C163      1.0  0.92640  0.49520  0.42340  1.0000 -0.1023484957
C   C164      1.0  0.49520  0.92640  0.07660  1.0000 -0.1023484957
C   C165      1.0  0.00650  0.44990  0.61750  1.0000 -0.0800346624
C   C166      1.0  0.44990  0.00650  0.88250  1.0000 -0.0800346624
C   C167      1.0  0.99350  0.55010  0.38250  1.0000 -0.0800346624
C   C168      1.0  0.55010  0.99350  0.11750  1.0000 -0.0800346624
C   C169      1.0  0.25000  0.55060  0.55870  1.0000 -0.0800346624
C   C170      1.0  0.55060  0.25000  0.94130  1.0000 -0.0800346624
C   C171      1.0  0.75000  0.44940  0.44130  1.0000 -0.0800346624
C   C172      1.0  0.44940  0.75000  0.05870  1.0000 -0.0800346624
C   C173      1.0  0.23500  0.47600  0.57440  1.0000 -0.1081744014
C   C174      1.0  0.47600  0.23500  0.92560  1.0000 -0.1081744014
C   C175      1.0  0.76500  0.52400  0.42560  1.0000 -0.1081744014
C   C176      1.0  0.52400  0.76500  0.07440  1.0000 -0.1081744014
C   C177      1.0  0.32350  0.50910  0.61440  1.0000 -0.0800346624
C   C178      1.0  0.50910  0.32350  0.88560  1.0000 -0.0800346624
C   C179      1.0  0.67650  0.49090  0.38560  1.0000 -0.0800346624
C   C180      1.0  0.49090  0.67650  0.11440  1.0000 -0.0800346624
C   C181      1.0  0.42620  0.61640  0.63810  1.0000 -0.0040069776
C   C182      1.0  0.61640  0.42620  0.86190  1.0000 -0.0040069776
C   C183      1.0  0.57380  0.38360  0.36190  1.0000 -0.0040069776
C   C184      1.0  0.38360  0.57380  0.13810  1.0000 -0.0040069776
C   C185      1.0  0.43910  0.69150  0.62120  1.0000 -0.1081744014
C   C186      1.0  0.69150  0.43910  0.87880  1.0000 -0.1081744014
C   C187      1.0  0.56090  0.30850  0.37880  1.0000 -0.1081744014
C   C188      1.0  0.30850  0.56090  0.12120  1.0000 -0.1081744014
C   C189      1.0  0.35340  0.66060  0.58240  1.0000 -0.1301889088
C   C190      1.0  0.66060  0.35340  0.91760  1.0000 -0.1301889088
C   C191      1.0  0.64660  0.33940  0.41760  1.0000 -0.1301889088
C   C192      1.0  0.33940  0.64660  0.08240  1.0000 -0.1301889088
C   C193      1.0  0.52640  0.65760  0.67980  1.0000 0.5426465102
C   C194      1.0  0.65760  0.52640  0.82020  1.0000 0.5426465102
C   C195      1.0  0.47360  0.34240  0.32020  1.0000 0.5426465102
C   C196      1.0  0.34240  0.47360  0.17980  1.0000 0.5426465102
C   C197      1.0  0.81340  0.84820  0.80470  1.0000 0.0912918401
C   C198      1.0  0.84820  0.81340  0.69530  1.0000 0.0912918401
C   C199      1.0  0.18660  0.15180  0.19530  1.0000 0.0912918401
C   C200      1.0  0.15180  0.18660  0.30470  1.0000 0.0912918401
C   C201      1.0  0.88710  0.92050  0.84830  1.0000 -0.2599433627
C   C202      1.0  0.92050  0.88710  0.65170  1.0000 -0.2599433627
C   C203      1.0  0.11290  0.07950  0.15170  1.0000 -0.2599433627
C   C204      1.0  0.07950  0.11290  0.34830  1.0000 -0.2599433627
C   C205      1.0  0.88730  0.87890  0.90990  1.0000 0.2355119713
C   C206      1.0  0.87890  0.88730  0.59010  1.0000 0.2355119713
C   C207      1.0  0.11270  0.12110  0.09010  1.0000 0.2355119713
C   C208      1.0  0.12110  0.11270  0.40990  1.0000 0.2355119713
C   C209      1.0  0.80940  0.76020  0.92180  1.0000 -0.2988172419
C   C210      1.0  0.76020  0.80940  0.57820  1.0000 -0.2988172419
C   C211      1.0  0.19060  0.23980  0.07820  1.0000 -0.2988172419
C   C212      1.0  0.23980  0.19060  0.42180  1.0000 -0.2988172419
C   C213      1.0  0.73910  0.69390  0.87500  1.0000 0.0912918401
C   C214      1.0  0.69390  0.73910  0.62500  1.0000 0.0912918401
C   C215      1.0  0.26090  0.30610  0.12500  1.0000 0.0912918401
C   C216      1.0  0.30610  0.26090  0.37500  1.0000 0.0912918401
C   C217      1.0  0.05020  0.07320  0.94330  1.0000 -0.1301889088
C   C218      1.0  0.07320  0.05020  0.55670  1.0000 -0.1301889088
C   C219      1.0  0.94980  0.92680  0.05670  1.0000 -0.1301889088
C   C220      1.0  0.92680  0.94980  0.44330  1.0000 -0.1301889088
C   C221      1.0  0.95090  0.89750  0.01860  1.0000 -0.1371902138
C   C222      1.0  0.89750  0.95090  0.48140  1.0000 -0.1371902138
C   C223      1.0  0.04910  0.10250  0.98140  1.0000 -0.1371902138
C   C224      1.0  0.10250  0.04910  0.51860  1.0000 -0.1371902138
S   S1        1.0  0.52309  0.63911  0.98782  1.0000 0.9597378574
S   S2        1.0  0.63911  0.52309  0.51218  1.0000 0.9597378574
S   S3        1.0  0.47691  0.36089  0.01218  1.0000 0.9597378574
S   S4        1.0  0.36089  0.47691  0.48782  1.0000 0.9597378574
S   S5        1.0  0.13543  0.50757  0.50936  1.0000 0.9597378574
S   S6        1.0  0.50757  0.13543  0.99064  1.0000 0.9597378574
S   S7        1.0  0.86457  0.49243  0.49064  1.0000 0.9597378574
S   S8        1.0  0.49243  0.86457  0.00936  1.0000 0.9597378574
N   N1        1.0  0.38230  0.83050  0.31480  1.0000 -0.2676535271
N   N2        1.0  0.83050  0.38230  0.18520  1.0000 -0.2676535271
N   N3        1.0  0.61770  0.16950  0.68520  1.0000 -0.2676535271
N   N4        1.0  0.16950  0.61770  0.81480  1.0000 -0.2676535271
N   N5        1.0  0.64260  0.93220  0.45050  1.0000 -0.0800346624
N   N6        1.0  0.93220  0.64260  0.04950  1.0000 -0.0800346624
N   N7        1.0  0.35740  0.06780  0.54950  1.0000 -0.0800346624
N   N8        1.0  0.06780  0.35740  0.95050  1.0000 -0.0800346624
N   N9        1.0  0.83710  0.03770  0.54490  1.0000 -0.0800346624
N   N10       1.0  0.03770  0.83710  0.95510  1.0000 -0.0800346624
N   N11       1.0  0.16290  0.96230  0.45510  1.0000 -0.0800346624
N   N12       1.0  0.96230  0.16290  0.04490  1.0000 -0.0800346624
N   N13       1.0  0.12490  0.19150  0.68300  1.0000 -0.2676535271
N   N14       1.0  0.19150  0.12490  0.81700  1.0000 -0.2676535271
N   N15       1.0  0.87510  0.80850  0.31700  1.0000 -0.2676535271
N   N16       1.0  0.80850  0.87510  0.18300  1.0000 -0.2676535271
N   N17       1.0  0.77400  0.25540  0.81560  1.0000 -0.2599433627
N   N18       1.0  0.25540  0.77400  0.68440  1.0000 -0.2599433627
N   N19       1.0  0.22600  0.74460  0.18440  1.0000 -0.2599433627
N   N20       1.0  0.74460  0.22600  0.31560  1.0000 -0.2599433627
N   N21       1.0  0.93650  0.43490  0.95310  1.0000 -0.1023484957
N   N22       1.0  0.43490  0.93650  0.54690  1.0000 -0.1023484957
N   N23       1.0  0.06350  0.56510  0.04690  1.0000 -0.1023484957
N   N24       1.0  0.56510  0.06350  0.45310  1.0000 -0.1023484957
N   N25       1.0  0.94920  0.94020  0.95450  1.0000 -0.0490695
N   N26       1.0  0.94020  0.94920  0.54550  1.0000 -0.0490695
N   N27       1.0  0.05080  0.05980  0.04550  1.0000 -0.0490695
N   N28       1.0  0.05980  0.05080  0.45450  1.0000 -0.0490695
N   N29       1.0  0.74060  0.73720  0.81690  1.0000 -0.2497849636
N   N30       1.0  0.73720  0.74060  0.68310  1.0000 -0.2497849636
N   N31       1.0  0.25940  0.26280  0.18310  1.0000 -0.2497849636
N   N32       1.0  0.26280  0.25940  0.31690  1.0000 -0.2497849636
O   O1        1.0  0.34113  0.36827  0.79690  1.0000 -0.5225962522
O   O2        1.0  0.36827  0.34113  0.70310  1.0000 -0.5225962522
O   O3        1.0  0.65887  0.63173  0.20310  1.0000 -0.5225962522
O   O4        1.0  0.63173  0.65887  0.29690  1.0000 -0.5225962522
O   O5        1.0  0.16200  0.23760  0.80980  1.0000 -0.5568510167
O   O6        1.0  0.23760  0.16200  0.69020  1.0000 -0.5568510167
O   O7        1.0  0.83800  0.76240  0.19020  1.0000 -0.5568510167
O   O8        1.0  0.76240  0.83800  0.30980  1.0000 -0.5568510167
O   O9        1.0  0.43310  0.56590  0.02060  1.0000 -0.5225962522
O   O10       1.0  0.56590  0.43310  0.47940  1.0000 -0.5225962522
O   O11       1.0  0.56690  0.43410  0.97940  1.0000 -0.5225962522
O   O12       1.0  0.43410  0.56690  0.52060  1.0000 -0.5225962522
O   O13       1.0  0.63380  0.69840  0.01960  1.0000 -0.533125183
O   O14       1.0  0.69840  0.63380  0.48040  1.0000 -0.533125183
O   O15       1.0  0.36620  0.30160  0.98040  1.0000 -0.533125183
O   O16       1.0  0.30160  0.36620  0.51960  1.0000 -0.533125183
O   O17       1.0  0.78983  0.13837  0.81850  1.0000 -0.5526167773
O   O18       1.0  0.13837  0.78983  0.68150  1.0000 -0.5526167773
O   O19       1.0  0.21017  0.86163  0.18150  1.0000 -0.5526167773
O   O20       1.0  0.86163  0.21017  0.31850  1.0000 -0.5526167773
O   O21       1.0  0.60130  0.01110  0.79410  1.0000 -0.5407221265
O   O22       1.0  0.01110  0.60130  0.70590  1.0000 -0.5407221265
O   O23       1.0  0.39870  0.98890  0.20590  1.0000 -0.5407221265
O   O24       1.0  0.98890  0.39870  0.29410  1.0000 -0.5407221265
O   O25       1.0  0.73120  0.15060  0.68280  1.0000 -0.533125183
O   O26       1.0  0.15060  0.73120  0.81720  1.0000 -0.533125183
O   O27       1.0  0.26880  0.84940  0.31720  1.0000 -0.533125183
O   O28       1.0  0.84940  0.26880  0.18280  1.0000 -0.533125183
O   O29       1.0  0.87018  0.32662  0.70580  1.0000 -0.5407221265
O   O30       1.0  0.32662  0.87018  0.79420  1.0000 -0.5407221265
O   O31       1.0  0.12982  0.67338  0.29420  1.0000 -0.5407221265
O   O32       1.0  0.67338  0.12982  0.20580  1.0000 -0.5407221265
O   O33       1.0  0.19560  0.61860  0.47770  1.0000 -0.533125183
O   O34       1.0  0.61860  0.19560  0.02230  1.0000 -0.533125183
O   O35       1.0  0.80440  0.38140  0.52230  1.0000 -0.533125183
O   O36       1.0  0.38140  0.80440  0.97770  1.0000 -0.533125183
O   O37       1.0  0.06130  0.41750  0.47620  1.0000 -0.533125183
O   O38       1.0  0.41750  0.06130  0.02380  1.0000 -0.533125183
O   O39       1.0  0.93870  0.58250  0.52380  1.0000 -0.533125183
O   O40       1.0  0.58250  0.93870  0.97620  1.0000 -0.533125183
O   O41       1.0  0.49831  0.57549  0.70090  1.0000 -0.5225962522
O   O42       1.0  0.57549  0.49831  0.79910  1.0000 -0.5225962522
O   O43       1.0  0.50169  0.42451  0.29910  1.0000 -0.5225962522
O   O44       1.0  0.42451  0.50169  0.20090  1.0000 -0.5225962522
O   O45       1.0  0.62720  0.76420  0.69120  1.0000 -0.5776471965
O   O46       1.0  0.76420  0.62720  0.80880  1.0000 -0.5776471965
O   O47       1.0  0.37280  0.23580  0.30880  1.0000 -0.5776471965
O   O48       1.0  0.23580  0.37280  0.19120  1.0000 -0.5776471965
