# DDEC6 charges by PACMAN v1.1 (https://github.com/mtap-research/PACMAN-charge/)
data_2016[Mn][rtl]3[FSR]2
_chemical_formula_sum              "Mn4 H48 C64 N8 O16"
_cell_length_a       10.0269
_cell_length_b       16.4397
_cell_length_c       12.7548
_cell_angle_alpha    90
_cell_angle_beta     90.645
_cell_angle_gamma    90

_symmetry_space_group_name_H-M    "P 1"
_symmetry_Int_Tables_number       1

loop_
  _symmetry_equiv_pos_as_xyz
  'x, y, z'

loop_
  _atom_site_type_symbol
  _atom_site_label
  _atom_site_symmetry_multiplicity
  _atom_site_fract_x
  _atom_site_fract_y
  _atom_site_fract_z
  _atom_site_occupancy
  _atom_site_charge
Mn  Mn1       1.0  0.24840  0.99987  0.50177  1.0000 0.9145170174
Mn  Mn2       1.0  0.75160  0.49987  0.99823  1.0000 0.9145170174
Mn  Mn3       1.0  0.75160  0.00013  0.49823  1.0000 0.9145170174
Mn  Mn4       1.0  0.24840  0.50013  0.00177  1.0000 0.9145170174
H   H1        1.0  0.27300  0.19700  0.48080  1.0000 0.1008503558
H   H2        1.0  0.72700  0.69700  0.01920  1.0000 0.1008503558
H   H3        1.0  0.72700  0.80300  0.51920  1.0000 0.1008503558
H   H4        1.0  0.27300  0.30300  0.98080  1.0000 0.1008503558
H   H5        1.0  0.48040  0.90120  0.39850  1.0000 0.1100815929
H   H6        1.0  0.51960  0.40120  0.10150  1.0000 0.1100815929
H   H7        1.0  0.51960  0.09880  0.60150  1.0000 0.1100815929
H   H8        1.0  0.48040  0.59880  0.89850  1.0000 0.1100815929
H   H9        1.0  0.52590  0.79100  0.29640  1.0000 0.1186555385
H   H10       1.0  0.47410  0.29100  0.20360  1.0000 0.1186555385
H   H11       1.0  0.47410  0.20900  0.70360  1.0000 0.1186555385
H   H12       1.0  0.52590  0.70900  0.79640  1.0000 0.1186555385
H   H13       1.0  0.23530  0.31530  0.57040  1.0000 0.1396145768
H   H14       1.0  0.76470  0.81530  0.92960  1.0000 0.1396145768
H   H15       1.0  0.76470  0.68470  0.42960  1.0000 0.1396145768
H   H16       1.0  0.23530  0.18470  0.07040  1.0000 0.1396145768
H   H17       1.0  0.18470  0.38600  0.74350  1.0000 0.1396145768
H   H18       1.0  0.81530  0.88600  0.75650  1.0000 0.1396145768
H   H19       1.0  0.81530  0.61400  0.25650  1.0000 0.1396145768
H   H20       1.0  0.18470  0.11400  0.24350  1.0000 0.1396145768
H   H21       1.0  0.00100  0.29940  0.85460  1.0000 0.1186555385
H   H22       1.0  0.99900  0.79940  0.64540  1.0000 0.1186555385
H   H23       1.0  0.99900  0.70060  0.14540  1.0000 0.1186555385
H   H24       1.0  0.00100  0.20060  0.35460  1.0000 0.1186555385
H   H25       1.0  0.55200  0.68490  0.20490  1.0000 0.1186555385
H   H26       1.0  0.44800  0.18490  0.29510  1.0000 0.1186555385
H   H27       1.0  0.44800  0.31510  0.79510  1.0000 0.1186555385
H   H28       1.0  0.55200  0.81510  0.70490  1.0000 0.1186555385
H   H29       1.0  0.14240  0.72610  0.31570  1.0000 0.1305091043
H   H30       1.0  0.85760  0.22610  0.18430  1.0000 0.1305091043
H   H31       1.0  0.85760  0.27390  0.68430  1.0000 0.1305091043
H   H32       1.0  0.14240  0.77390  0.81570  1.0000 0.1305091043
H   H33       1.0  0.10620  0.84030  0.41470  1.0000 0.1008503558
H   H34       1.0  0.89380  0.34030  0.08530  1.0000 0.1008503558
H   H35       1.0  0.89380  0.15970  0.58530  1.0000 0.1008503558
H   H36       1.0  0.10620  0.65970  0.91470  1.0000 0.1008503558
H   H37       1.0  0.11340  0.18240  0.81330  1.0000 0.1305091043
H   H38       1.0  0.88660  0.68240  0.68670  1.0000 0.1305091043
H   H39       1.0  0.88660  0.81760  0.18670  1.0000 0.1305091043
H   H40       1.0  0.11340  0.31760  0.31330  1.0000 0.1305091043
H   H41       1.0  0.15460  0.06840  0.71770  1.0000 0.1100815929
H   H42       1.0  0.84540  0.56840  0.78230  1.0000 0.1100815929
H   H43       1.0  0.84540  0.93160  0.28230  1.0000 0.1100815929
H   H44       1.0  0.15460  0.43160  0.21770  1.0000 0.1100815929
H   H45       1.0  0.28980  0.63900  0.21290  1.0000 0.1305091043
H   H46       1.0  0.71020  0.13900  0.28710  1.0000 0.1305091043
H   H47       1.0  0.71020  0.36100  0.78710  1.0000 0.1305091043
H   H48       1.0  0.28980  0.86100  0.71290  1.0000 0.1305091043
C   C1        1.0  0.23950  0.19400  0.54840  1.0000 0.0765306506
C   C2        1.0  0.76050  0.69400  0.95160  1.0000 0.0765306506
C   C3        1.0  0.76050  0.80600  0.45160  1.0000 0.0765306506
C   C4        1.0  0.23950  0.30600  0.04840  1.0000 0.0765306506
C   C5        1.0  0.41120  0.86590  0.38070  1.0000 0.0865950904
C   C6        1.0  0.58880  0.36590  0.11930  1.0000 0.0865950904
C   C7        1.0  0.58880  0.13410  0.61930  1.0000 0.0865950904
C   C8        1.0  0.41120  0.63410  0.88070  1.0000 0.0865950904
C   C9        1.0  0.43950  0.79950  0.31960  1.0000 -0.1897594907
C   C10       1.0  0.56050  0.29950  0.18040  1.0000 -0.1897594907
C   C11       1.0  0.56050  0.20050  0.68040  1.0000 -0.1897594907
C   C12       1.0  0.43950  0.70050  0.81960  1.0000 -0.1897594907
C   C13       1.0  0.21690  0.26570  0.60200  1.0000 -0.2191538603
C   C14       1.0  0.78310  0.76570  0.89800  1.0000 -0.2191538603
C   C15       1.0  0.78310  0.73430  0.39800  1.0000 -0.2191538603
C   C16       1.0  0.21690  0.23430  0.10200  1.0000 -0.2191538603
C   C17       1.0  0.13560  0.33980  0.75970  1.0000 -0.1333216704
C   C18       1.0  0.86440  0.83980  0.74030  1.0000 -0.1333216704
C   C19       1.0  0.86440  0.66020  0.24030  1.0000 -0.1333216704
C   C20       1.0  0.13560  0.16020  0.25970  1.0000 -0.1333216704
C   C21       1.0  0.04320  0.34650  0.83170  1.0000 -0.2191538603
C   C22       1.0  0.95680  0.84650  0.66830  1.0000 -0.2191538603
C   C23       1.0  0.95680  0.65350  0.16830  1.0000 -0.2191538603
C   C24       1.0  0.04320  0.15350  0.33170  1.0000 -0.2191538603
C   C25       1.0  0.47960  0.65110  0.19090  1.0000 -0.2278591429
C   C26       1.0  0.52040  0.15110  0.30910  1.0000 -0.2278591429
C   C27       1.0  0.52040  0.34890  0.80910  1.0000 -0.2278591429
C   C28       1.0  0.47960  0.84890  0.69090  1.0000 -0.2278591429
C   C29       1.0  0.21280  0.76130  0.33060  1.0000 -0.2078088668
C   C30       1.0  0.78720  0.26130  0.16940  1.0000 -0.2078088668
C   C31       1.0  0.78720  0.23870  0.66940  1.0000 -0.2078088668
C   C32       1.0  0.21280  0.73870  0.83060  1.0000 -0.2078088668
C   C33       1.0  0.19180  0.83010  0.39070  1.0000 0.1008503558
C   C34       1.0  0.80820  0.33010  0.10930  1.0000 0.1008503558
C   C35       1.0  0.80820  0.16990  0.60930  1.0000 0.1008503558
C   C36       1.0  0.19180  0.66990  0.89070  1.0000 0.1008503558
C   C37       1.0  0.14500  0.18730  0.74530  1.0000 -0.2078088668
C   C38       1.0  0.85500  0.68730  0.75470  1.0000 -0.2078088668
C   C39       1.0  0.85500  0.81270  0.25470  1.0000 -0.2078088668
C   C40       1.0  0.14500  0.31270  0.24530  1.0000 -0.2078088668
C   C41       1.0  0.16690  0.26380  0.70260  1.0000 0.1471363924
C   C42       1.0  0.83310  0.76380  0.79740  1.0000 0.1471363924
C   C43       1.0  0.83310  0.73620  0.29740  1.0000 0.1471363924
C   C44       1.0  0.16690  0.23620  0.20260  1.0000 0.1471363924
C   C45       1.0  0.17010  0.11880  0.68710  1.0000 0.0865950904
C   C46       1.0  0.82990  0.61880  0.81290  1.0000 0.0865950904
C   C47       1.0  0.82990  0.88120  0.31290  1.0000 0.0865950904
C   C48       1.0  0.17010  0.38120  0.18710  1.0000 0.0865950904
C   C49       1.0  0.33920  0.74490  0.29260  1.0000 0.1597272068
C   C50       1.0  0.66080  0.24490  0.20740  1.0000 0.1597272068
C   C51       1.0  0.66080  0.25510  0.70740  1.0000 0.1597272068
C   C52       1.0  0.33920  0.75510  0.79260  1.0000 0.1597272068
C   C53       1.0  0.36250  0.67230  0.22830  1.0000 -0.1143955008
C   C54       1.0  0.63750  0.17230  0.27170  1.0000 -0.1143955008
C   C55       1.0  0.63750  0.32770  0.77170  1.0000 -0.1143955008
C   C56       1.0  0.36250  0.82770  0.72830  1.0000 -0.1143955008
C   C57       1.0  0.00250  0.42640  0.87850  1.0000 0.6175414793
C   C58       1.0  0.99750  0.92640  0.62150  1.0000 0.6175414793
C   C59       1.0  0.99750  0.57360  0.12150  1.0000 0.6175414793
C   C60       1.0  0.00250  0.07360  0.37850  1.0000 0.6175414793
C   C61       1.0  0.50320  0.57620  0.12720  1.0000 0.6175414793
C   C62       1.0  0.49680  0.07620  0.37280  1.0000 0.6175414793
C   C63       1.0  0.49680  0.42380  0.87280  1.0000 0.6175414793
C   C64       1.0  0.50320  0.92380  0.62720  1.0000 0.6175414793
N   N1        1.0  0.21540  0.12041  0.58910  1.0000 -0.239411337
N   N2        1.0  0.78460  0.62041  0.91090  1.0000 -0.239411337
N   N3        1.0  0.78460  0.87959  0.41090  1.0000 -0.239411337
N   N4        1.0  0.21540  0.37959  0.08910  1.0000 -0.239411337
N   N5        1.0  0.28810  0.88248  0.41580  1.0000 -0.2278591429
N   N6        1.0  0.71190  0.38248  0.08420  1.0000 -0.2278591429
N   N7        1.0  0.71190  0.11752  0.58420  1.0000 -0.2278591429
N   N8        1.0  0.28810  0.61752  0.91580  1.0000 -0.2278591429
O   O1        1.0  0.62080  0.56698  0.09760  1.0000 -0.5751528569
O   O2        1.0  0.37920  0.06698  0.40240  1.0000 -0.5751528569
O   O3        1.0  0.37920  0.43302  0.90240  1.0000 -0.5751528569
O   O4        1.0  0.62080  0.93302  0.59760  1.0000 -0.5751528569
O   O5        1.0  0.40840  0.52785  0.11170  1.0000 -0.5608827003
O   O6        1.0  0.59160  0.02785  0.38830  1.0000 -0.5608827003
O   O7        1.0  0.59160  0.47215  0.88830  1.0000 -0.5608827003
O   O8        1.0  0.40840  0.97215  0.61170  1.0000 -0.5608827003
O   O9        1.0  0.08680  0.48169  0.89030  1.0000 -0.5608827003
O   O10       1.0  0.91320  0.98169  0.60970  1.0000 -0.5608827003
O   O11       1.0  0.91320  0.51831  0.10970  1.0000 -0.5608827003
O   O12       1.0  0.08680  0.01831  0.39030  1.0000 -0.5608827003
O   O13       1.0  0.88030  0.43119  0.89860  1.0000 -0.5721717455
O   O14       1.0  0.11970  0.93119  0.60140  1.0000 -0.5721717455
O   O15       1.0  0.11970  0.56881  0.10140  1.0000 -0.5721717455
O   O16       1.0  0.88030  0.06881  0.39860  1.0000 -0.5721717455
