# DDEC6 charges by PACMAN v1.1 (https://github.com/mtap-research/PACMAN-charge/)
data_2016[Tb][ant]3[FSR]1
_chemical_formula_sum              "Tb4 H36 C28 S2 N4 O36"
_cell_length_a       14.7947
_cell_length_b       14.7947
_cell_length_c       6.762
_cell_angle_alpha    87.8295
_cell_angle_beta     92.1705
_cell_angle_gamma    125.378

_symmetry_space_group_name_H-M    "P 1"
_symmetry_Int_Tables_number       1

loop_
  _symmetry_equiv_pos_as_xyz
  'x, y, z'

loop_
  _atom_site_type_symbol
  _atom_site_label
  _atom_site_symmetry_multiplicity
  _atom_site_fract_x
  _atom_site_fract_y
  _atom_site_fract_z
  _atom_site_occupancy
  _atom_site_charge
Tb  Tb1       1.0  0.91044  0.70326  0.01157  1.0000 2.0263408267
Tb  Tb2       1.0  0.70326  0.91044  0.48843  1.0000 2.0263408267
Tb  Tb3       1.0  0.08956  0.29674  0.98843  1.0000 2.0263408267
Tb  Tb4       1.0  0.29674  0.08956  0.51157  1.0000 2.0263408267
H   H1        1.0  0.59210  0.30590  0.05170  1.0000 0.12893499
H   H2        1.0  0.30590  0.59210  0.44830  1.0000 0.12893499
H   H3        1.0  0.40790  0.69410  0.94830  1.0000 0.12893499
H   H4        1.0  0.69410  0.40790  0.55170  1.0000 0.12893499
H   H5        1.0  0.88180  0.34240  0.08960  1.0000 0.12893499
H   H6        1.0  0.34240  0.88180  0.41040  1.0000 0.12893499
H   H7        1.0  0.11820  0.65760  0.91040  1.0000 0.12893499
H   H8        1.0  0.65760  0.11820  0.58960  1.0000 0.12893499
H   H9        1.0  0.59180  0.04420  0.13370  1.0000 0.1134852984
H   H10       1.0  0.04420  0.59180  0.36630  1.0000 0.1134852984
H   H11       1.0  0.40820  0.95580  0.86630  1.0000 0.1134852984
H   H12       1.0  0.95580  0.40820  0.63370  1.0000 0.1134852984
H   H13       1.0  0.76790  0.68970  0.33600  1.0000 0.3691137079
H   H14       1.0  0.68970  0.76790  0.16400  1.0000 0.3691137079
H   H15       1.0  0.23210  0.31030  0.66400  1.0000 0.3691137079
H   H16       1.0  0.31030  0.23210  0.83600  1.0000 0.3691137079
H   H17       1.0  0.82170  0.64390  0.40640  1.0000 0.3485610925
H   H18       1.0  0.64390  0.82170  0.09360  1.0000 0.3485610925
H   H19       1.0  0.17830  0.35610  0.59360  1.0000 0.3485610925
H   H20       1.0  0.35610  0.17830  0.90640  1.0000 0.3485610925
H   H21       1.0  0.01170  0.94230  0.03740  1.0000 0.3691137079
H   H22       1.0  0.94230  0.01170  0.46260  1.0000 0.3691137079
H   H23       1.0  0.98830  0.05770  0.96260  1.0000 0.3691137079
H   H24       1.0  0.05770  0.98830  0.53740  1.0000 0.3691137079
H   H25       1.0  0.02170  0.91450  0.23780  1.0000 0.3839120709
H   H26       1.0  0.91450  0.02170  0.26220  1.0000 0.3839120709
H   H27       1.0  0.97830  0.08550  0.76220  1.0000 0.3839120709
H   H28       1.0  0.08550  0.97830  0.73780  1.0000 0.3839120709
H   H29       1.0  0.95970  0.69170  0.61100  1.0000 0.3691137079
H   H30       1.0  0.69170  0.95970  0.88900  1.0000 0.3691137079
H   H31       1.0  0.04030  0.30830  0.38900  1.0000 0.3691137079
H   H32       1.0  0.30830  0.04030  0.11100  1.0000 0.3691137079
H   H33       1.0  0.94390  0.59790  0.70480  1.0000 0.3485610925
H   H34       1.0  0.59790  0.94390  0.79520  1.0000 0.3485610925
H   H35       1.0  0.05610  0.40210  0.29520  1.0000 0.3485610925
H   H36       1.0  0.40210  0.05610  0.20480  1.0000 0.3485610925
C   C1        1.0  0.63130  0.27450  0.06910  1.0000 0.0724247985
C   C2        1.0  0.27450  0.63130  0.43090  1.0000 0.0724247985
C   C3        1.0  0.36870  0.72550  0.93090  1.0000 0.0724247985
C   C4        1.0  0.72550  0.36870  0.56910  1.0000 0.0724247985
C   C5        1.0  0.74570  0.34470  0.06690  1.0000 -0.0573594074
C   C6        1.0  0.34470  0.74570  0.43310  1.0000 -0.0573594074
C   C7        1.0  0.25430  0.65530  0.93310  1.0000 -0.0573594074
C   C8        1.0  0.65530  0.25430  0.56690  1.0000 -0.0573594074
C   C9        1.0  0.80470  0.29790  0.08930  1.0000 -0.0771187085
C   C10       1.0  0.29790  0.80470  0.41070  1.0000 -0.0771187085
C   C11       1.0  0.19530  0.70210  0.91070  1.0000 -0.0771187085
C   C12       1.0  0.70210  0.19530  0.58930  1.0000 -0.0771187085
C   C13       1.0  0.74586  0.18314  0.11120  1.0000 -0.0771187085
C   C14       1.0  0.18314  0.74586  0.38880  1.0000 -0.0771187085
C   C15       1.0  0.25414  0.81686  0.88880  1.0000 -0.0771187085
C   C16       1.0  0.81686  0.25414  0.61120  1.0000 -0.0771187085
C   C17       1.0  0.63080  0.12060  0.11540  1.0000 0.0597304267
C   C18       1.0  0.12060  0.63080  0.38460  1.0000 0.0597304267
C   C19       1.0  0.36920  0.87940  0.88460  1.0000 0.0597304267
C   C20       1.0  0.87940  0.36920  0.61540  1.0000 0.0597304267
C   C21       1.0  0.80320  0.46760  0.04500  1.0000 0.5650498711
C   C22       1.0  0.46760  0.80320  0.45500  1.0000 0.5650498711
C   C23       1.0  0.19680  0.53240  0.95500  1.0000 0.5650498711
C   C24       1.0  0.53240  0.19680  0.54500  1.0000 0.5650498711
C   C25       1.0  0.80240  0.12520  0.13540  1.0000 0.6351511919
C   C26       1.0  0.12520  0.80240  0.36460  1.0000 0.6351511919
C   C27       1.0  0.19760  0.87480  0.86460  1.0000 0.6351511919
C   C28       1.0  0.87480  0.19760  0.63540  1.0000 0.6351511919
S   S1        1.0  0.79868  0.79868  0.75000  1.0000 1.4202897393
S   S2        1.0  0.20132  0.20132  0.25000  1.0000 1.4202897393
N   N1        1.0  0.57309  0.16451  0.09440  1.0000 -0.2233966148
N   N2        1.0  0.16451  0.57309  0.40560  1.0000 -0.2233966148
N   N3        1.0  0.42691  0.83549  0.90560  1.0000 -0.2233966148
N   N4        1.0  0.83549  0.42691  0.59440  1.0000 -0.2233966148
O   O1        1.0  0.74613  0.50327  0.99270  1.0000 -0.6064488745
O   O2        1.0  0.50327  0.74613  0.50730  1.0000 -0.6064488745
O   O3        1.0  0.25387  0.49673  0.00730  1.0000 -0.6064488745
O   O4        1.0  0.49673  0.25387  0.49270  1.0000 -0.6064488745
O   O5        1.0  0.78783  0.64837  0.30630  1.0000 -0.7366506613
O   O6        1.0  0.64837  0.78783  0.19370  1.0000 -0.7366506613
O   O7        1.0  0.21217  0.35163  0.69370  1.0000 -0.7366506613
O   O8        1.0  0.35163  0.21217  0.80630  1.0000 -0.7366506613
O   O9        1.0  0.90600  0.53240  0.07720  1.0000 -0.6208919443
O   O10       1.0  0.53240  0.90600  0.42280  1.0000 -0.6208919443
O   O11       1.0  0.09400  0.46760  0.92280  1.0000 -0.6208919443
O   O12       1.0  0.46760  0.09400  0.57720  1.0000 -0.6208919443
O   O13       1.0  0.97685  0.89495  0.13000  1.0000 -0.766055063
O   O14       1.0  0.89495  0.97685  0.37000  1.0000 -0.766055063
O   O15       1.0  0.02315  0.10505  0.87000  1.0000 -0.766055063
O   O16       1.0  0.10505  0.02315  0.63000  1.0000 -0.766055063
O   O17       1.0  0.90225  0.17835  0.09590  1.0000 -0.6451445973
O   O18       1.0  0.17835  0.90225  0.40410  1.0000 -0.6451445973
O   O19       1.0  0.09775  0.82165  0.90410  1.0000 -0.6451445973
O   O20       1.0  0.82165  0.09775  0.59590  1.0000 -0.6451445973
O   O21       1.0  0.91774  0.63646  0.68880  1.0000 -0.7626860894
O   O22       1.0  0.63646  0.91774  0.81120  1.0000 -0.7626860894
O   O23       1.0  0.08226  0.36354  0.31120  1.0000 -0.7626860894
O   O24       1.0  0.36354  0.08226  0.18880  1.0000 -0.7626860894
O   O25       1.0  0.74408  0.02492  0.19090  1.0000 -0.6715145565
O   O26       1.0  0.02492  0.74408  0.30910  1.0000 -0.6715145565
O   O27       1.0  0.25592  0.97508  0.80910  1.0000 -0.6715145565
O   O28       1.0  0.97508  0.25592  0.69090  1.0000 -0.6715145565
O   O29       1.0  0.90475  0.81565  0.70930  1.0000 -0.7046029724
O   O30       1.0  0.81565  0.90475  0.79070  1.0000 -0.7059701241
O   O31       1.0  0.09525  0.18435  0.29070  1.0000 -0.7046029724
O   O32       1.0  0.18435  0.09525  0.20930  1.0000 -0.7046029724
O   O33       1.0  0.75498  0.72402  0.92190  1.0000 -0.6792426563
O   O34       1.0  0.72402  0.75498  0.57810  1.0000 -0.6792426563
O   O35       1.0  0.24502  0.27598  0.07810  1.0000 -0.6792426563
O   O36       1.0  0.27598  0.24502  0.42190  1.0000 -0.6792426563
