# DDEC6 charges by PACMAN v1.1 (https://github.com/mtap-research/PACMAN-charge/)
data_2016[Cd][nan]3[FSR]35
_chemical_formula_sum              "Cd4 H44 C48 Br4 N12 O20"
_cell_length_a       14.5649
_cell_length_b       7.8001
_cell_length_c       19.0239
_cell_angle_alpha    90
_cell_angle_beta     121.757
_cell_angle_gamma    90

_symmetry_space_group_name_H-M    "P 1"
_symmetry_Int_Tables_number       1

loop_
  _symmetry_equiv_pos_as_xyz
  'x, y, z'

loop_
  _atom_site_type_symbol
  _atom_site_label
  _atom_site_symmetry_multiplicity
  _atom_site_fract_x
  _atom_site_fract_y
  _atom_site_fract_z
  _atom_site_occupancy
  _atom_site_charge
Cd  Cd1       1.0  0.97350  0.34931  0.84020  1.0000 0.9651779229
Cd  Cd2       1.0  0.02650  0.84931  0.65980  1.0000 0.9651779229
Cd  Cd3       1.0  0.02650  0.65069  0.15980  1.0000 0.9651779229
Cd  Cd4       1.0  0.97350  0.15069  0.34020  1.0000 0.9651779229
H   H1        1.0  0.96170  0.10550  0.07550  1.0000 0.121716767
H   H2        1.0  0.03830  0.60550  0.42450  1.0000 0.121716767
H   H3        1.0  0.03830  0.89450  0.92450  1.0000 0.121716767
H   H4        1.0  0.96170  0.39450  0.57550  1.0000 0.121716767
H   H5        1.0  0.59850  0.94670  0.91240  1.0000 0.1295931334
H   H6        1.0  0.40150  0.44670  0.58760  1.0000 0.1295931334
H   H7        1.0  0.40150  0.05330  0.08760  1.0000 0.1295931334
H   H8        1.0  0.59850  0.55330  0.41240  1.0000 0.1295931334
H   H9        1.0  0.68690  0.06670  0.85110  1.0000 0.121716767
H   H10       1.0  0.31310  0.56670  0.64890  1.0000 0.121716767
H   H11       1.0  0.31310  0.93330  0.14890  1.0000 0.121716767
H   H12       1.0  0.68690  0.43330  0.35110  1.0000 0.121716767
H   H13       1.0  0.17330  0.57000  0.83930  1.0000 0.1384139577
H   H14       1.0  0.82670  0.07000  0.66070  1.0000 0.1384139577
H   H15       1.0  0.82670  0.43000  0.16070  1.0000 0.1384139577
H   H16       1.0  0.17330  0.93000  0.33930  1.0000 0.1384139577
H   H17       1.0  0.19070  0.37590  0.03540  1.0000 0.121716767
H   H18       1.0  0.80930  0.87590  0.46460  1.0000 0.121716767
H   H19       1.0  0.80930  0.62410  0.96460  1.0000 0.121716767
H   H20       1.0  0.19070  0.12410  0.53540  1.0000 0.121716767
H   H21       1.0  0.35280  0.74600  0.91370  1.0000 0.1096266493
H   H22       1.0  0.64720  0.24600  0.58630  1.0000 0.1096266493
H   H23       1.0  0.64720  0.25400  0.08630  1.0000 0.1096266493
H   H24       1.0  0.35280  0.75400  0.41370  1.0000 0.1096266493
H   H25       1.0  0.41990  0.73800  0.01250  1.0000 0.1096266493
H   H26       1.0  0.58010  0.23800  0.48750  1.0000 0.1096266493
H   H27       1.0  0.58010  0.26200  0.98750  1.0000 0.1096266493
H   H28       1.0  0.41990  0.76200  0.51250  1.0000 0.1096266493
H   H29       1.0  0.51300  0.61860  0.94860  1.0000 0.1014532264
H   H30       1.0  0.48700  0.11860  0.55140  1.0000 0.1014532264
H   H31       1.0  0.48700  0.38140  0.05140  1.0000 0.1014532264
H   H32       1.0  0.51300  0.88140  0.44860  1.0000 0.1014532264
H   H33       1.0  0.42660  0.46630  0.91410  1.0000 0.1014532264
H   H34       1.0  0.57340  0.96630  0.58590  1.0000 0.1014532264
H   H35       1.0  0.57340  0.53370  0.08590  1.0000 0.1014532264
H   H36       1.0  0.42660  0.03370  0.41410  1.0000 0.1014532264
H   H37       1.0  0.88200  0.67560  0.83100  1.0000 0.4127261186
H   H38       1.0  0.11800  0.17560  0.66900  1.0000 0.4127261186
H   H39       1.0  0.11800  0.32440  0.16900  1.0000 0.4127261186
H   H40       1.0  0.88200  0.82440  0.33100  1.0000 0.4127261186
H   H41       1.0  0.96520  0.63820  0.92710  1.0000 0.3940137321
H   H42       1.0  0.03480  0.13820  0.57290  1.0000 0.3940137321
H   H43       1.0  0.03480  0.36180  0.07290  1.0000 0.3940137321
H   H44       1.0  0.96520  0.86180  0.42710  1.0000 0.3940137321
C   C1        1.0  0.83220  0.09980  0.95750  1.0000 -0.0162062809
C   C2        1.0  0.16780  0.59980  0.54250  1.0000 -0.0162062809
C   C3        1.0  0.16780  0.90020  0.04250  1.0000 -0.0162062809
C   C4        1.0  0.83220  0.40020  0.45750  1.0000 -0.0162062809
C   C5        1.0  0.88760  0.07470  0.04250  1.0000 -0.134369575
C   C6        1.0  0.11240  0.57470  0.45750  1.0000 -0.134369575
C   C7        1.0  0.11240  0.92530  0.95750  1.0000 -0.134369575
C   C8        1.0  0.88760  0.42530  0.54250  1.0000 -0.134369575
C   C9        1.0  0.83624  0.00520  0.07994  1.0000 -0.0788345119
C   C10       1.0  0.16376  0.50520  0.42006  1.0000 -0.0788345119
C   C11       1.0  0.16376  0.99480  0.92006  1.0000 -0.0788345119
C   C12       1.0  0.83624  0.49480  0.57994  1.0000 -0.0788345119
C   C13       1.0  0.72770  0.96260  0.03040  1.0000 0.0600429507
C   C14       1.0  0.27230  0.46260  0.46960  1.0000 0.0600429507
C   C15       1.0  0.27230  0.03740  0.96960  1.0000 0.0600429507
C   C16       1.0  0.72770  0.53740  0.53040  1.0000 0.0600429507
C   C17       1.0  0.67190  0.98130  0.94550  1.0000 -0.1630037544
C   C18       1.0  0.32810  0.48130  0.55450  1.0000 -0.1630037544
C   C19       1.0  0.32810  0.01870  0.05450  1.0000 -0.1630037544
C   C20       1.0  0.67190  0.51870  0.44550  1.0000 -0.1630037544
C   C21       1.0  0.72460  0.05150  0.90930  1.0000 -0.0896413183
C   C22       1.0  0.27540  0.55150  0.59070  1.0000 -0.0896413183
C   C23       1.0  0.27540  0.94850  0.09070  1.0000 -0.0896413183
C   C24       1.0  0.72460  0.44850  0.40930  1.0000 -0.0896413183
C   C25       1.0  0.88940  0.18350  0.92040  1.0000 0.5487907225
C   C26       1.0  0.11060  0.68350  0.57960  1.0000 0.5487907225
C   C27       1.0  0.11060  0.81650  0.07960  1.0000 0.5487907225
C   C28       1.0  0.88940  0.31650  0.42040  1.0000 0.5487907225
C   C29       1.0  0.89880  0.99440  0.17310  1.0000 0.5744316572
C   C30       1.0  0.10120  0.49440  0.32690  1.0000 0.5744316572
C   C31       1.0  0.10120  0.00560  0.82690  1.0000 0.5744316572
C   C32       1.0  0.89880  0.50560  0.67310  1.0000 0.5744316572
C   C33       1.0  0.19810  0.53650  0.89450  1.0000 0.0864836531
C   C34       1.0  0.80190  0.03650  0.60550  1.0000 0.0864836531
C   C35       1.0  0.80190  0.46350  0.10550  1.0000 0.0864836531
C   C36       1.0  0.19810  0.96350  0.39450  1.0000 0.0864836531
C   C37       1.0  0.20950  0.43370  0.00070  1.0000 0.1384139577
C   C38       1.0  0.79050  0.93370  0.49930  1.0000 0.1384139577
C   C39       1.0  0.79050  0.56630  0.99930  1.0000 0.1384139577
C   C40       1.0  0.20950  0.06630  0.50070  1.0000 0.1384139577
C   C41       1.0  0.38300  0.66750  0.96170  1.0000 -0.1407198763
C   C42       1.0  0.61700  0.16750  0.53830  1.0000 -0.1407198763
C   C43       1.0  0.61700  0.33250  0.03830  1.0000 -0.1407198763
C   C44       1.0  0.38300  0.83250  0.46170  1.0000 -0.1407198763
C   C45       1.0  0.46530  0.54920  0.96000  1.0000 -0.1815335905
C   C46       1.0  0.53470  0.04920  0.54000  1.0000 -0.1815335905
C   C47       1.0  0.53470  0.45080  0.04000  1.0000 -0.1815335905
C   C48       1.0  0.46530  0.95080  0.46000  1.0000 -0.1815335905
Br  Br1       1.0  0.65507  0.87434  0.08091  1.0000 -0.0544115673
Br  Br2       1.0  0.34493  0.37434  0.41909  1.0000 -0.0544115673
Br  Br3       1.0  0.34493  0.12566  0.91909  1.0000 -0.0544115673
Br  Br4       1.0  0.65507  0.62566  0.58091  1.0000 -0.0544115673
N   N1        1.0  0.14152  0.44740  0.91782  1.0000 -0.353060857
N   N2        1.0  0.85848  0.94740  0.58218  1.0000 -0.353060857
N   N3        1.0  0.85848  0.55260  0.08218  1.0000 -0.353060857
N   N4        1.0  0.14152  0.05260  0.41782  1.0000 -0.353060857
N   N5        1.0  0.30360  0.50730  0.02890  1.0000 -0.2512379294
N   N6        1.0  0.69640  0.00730  0.47110  1.0000 -0.2512379294
N   N7        1.0  0.69640  0.49270  0.97110  1.0000 -0.2512379294
N   N8        1.0  0.30360  0.99270  0.52890  1.0000 -0.2512379294
N   N9        1.0  0.29410  0.57220  0.95930  1.0000 0.1741372341
N   N10       1.0  0.70590  0.07220  0.54070  1.0000 0.1741372341
N   N11       1.0  0.70590  0.42780  0.04070  1.0000 0.1741372341
N   N12       1.0  0.29410  0.92780  0.45930  1.0000 0.1741372341
O   O1        1.0  0.97872  0.25240  0.96537  1.0000 -0.5612064903
O   O2        1.0  0.02128  0.75240  0.53463  1.0000 -0.5612064903
O   O3        1.0  0.02128  0.74760  0.03463  1.0000 -0.5612064903
O   O4        1.0  0.97872  0.24760  0.46537  1.0000 -0.5612064903
O   O5        1.0  0.84401  0.18050  0.84161  1.0000 -0.5434680289
O   O6        1.0  0.15599  0.68050  0.65839  1.0000 -0.5434680289
O   O7        1.0  0.15599  0.81950  0.15839  1.0000 -0.5434680289
O   O8        1.0  0.84401  0.31950  0.34161  1.0000 -0.5434680289
O   O9        1.0  0.97848  0.89740  0.20848  1.0000 -0.572406829
O   O10       1.0  0.02152  0.39740  0.29152  1.0000 -0.572406829
O   O11       1.0  0.02152  0.10260  0.79152  1.0000 -0.572406829
O   O12       1.0  0.97848  0.60260  0.70848  1.0000 -0.572406829
O   O13       1.0  0.87011  0.09660  0.20828  1.0000 -0.5275139963
O   O14       1.0  0.12989  0.59660  0.29172  1.0000 -0.5275139963
O   O15       1.0  0.12989  0.90340  0.79172  1.0000 -0.5275139963
O   O16       1.0  0.87011  0.40340  0.70828  1.0000 -0.5275139963
O   O17       1.0  0.90740  0.58940  0.87490  1.0000 -0.7419204866
O   O18       1.0  0.09260  0.08940  0.62510  1.0000 -0.7419204866
O   O19       1.0  0.09260  0.41060  0.12510  1.0000 -0.7419204866
O   O20       1.0  0.90740  0.91060  0.37490  1.0000 -0.7419204866
