# DDEC6 charges by PACMAN v1.1 (https://github.com/mtap-research/PACMAN-charge/)
data_2016[Mg][acs]3[FSR]2
_chemical_formula_sum              "Mg2 H6 C6 O12"
_cell_length_a       7.284
_cell_length_b       7.284
_cell_length_c       8.2088
_cell_angle_alpha    90
_cell_angle_beta     90
_cell_angle_gamma    120

_symmetry_space_group_name_H-M    "P 1"
_symmetry_Int_Tables_number       1

loop_
  _symmetry_equiv_pos_as_xyz
  'x, y, z'

loop_
  _atom_site_type_symbol
  _atom_site_label
  _atom_site_symmetry_multiplicity
  _atom_site_fract_x
  _atom_site_fract_y
  _atom_site_fract_z
  _atom_site_occupancy
  _atom_site_charge
Mg  Mg1       1.0  0.33333  0.66667  0.25000  1.0000 1.2806921387
Mg  Mg2       1.0  0.66667  0.33333  0.75000  1.0000 1.2806921387
H   H1        1.0  0.00000  0.43290  0.00000  1.0000 0.1073551497
H   H2        1.0  0.56710  0.56710  0.00000  1.0000 0.1073551497
H   H3        1.0  0.43290  0.00000  0.00000  1.0000 0.1073551497
H   H4        1.0  0.00000  0.56710  0.50000  1.0000 0.1073551497
H   H5        1.0  0.43290  0.43290  0.50000  1.0000 0.1073551497
H   H6        1.0  0.56710  0.00000  0.50000  1.0000 0.1073551497
C   C1        1.0  0.00000  0.56060  0.00000  1.0000 0.5192438745
C   C2        1.0  0.43940  0.43940  0.00000  1.0000 0.5192438745
C   C3        1.0  0.56060  0.00000  0.00000  1.0000 0.5192438745
C   C4        1.0  0.00000  0.43940  0.50000  1.0000 0.5192438745
C   C5        1.0  0.56060  0.56060  0.50000  1.0000 0.5192438745
C   C6        1.0  0.43940  0.00000  0.50000  1.0000 0.5192438745
O   O1        1.0  0.10957  0.68966  0.10591  1.0000 -0.5267482019
O   O2        1.0  0.31034  0.41991  0.10591  1.0000 -0.5267482019
O   O3        1.0  0.58009  0.89043  0.10591  1.0000 -0.5267482019
O   O4        1.0  0.89043  0.31034  0.60591  1.0000 -0.5267482019
O   O5        1.0  0.68966  0.58009  0.60591  1.0000 -0.5267482019
O   O6        1.0  0.41991  0.10957  0.60591  1.0000 -0.5267482019
O   O7        1.0  0.68966  0.10957  0.89409  1.0000 -0.5267482019
O   O8        1.0  0.41991  0.31034  0.89409  1.0000 -0.5267482019
O   O9        1.0  0.89043  0.58009  0.89409  1.0000 -0.5267482019
O   O10       1.0  0.31034  0.89043  0.39409  1.0000 -0.5267482019
O   O11       1.0  0.58009  0.68966  0.39409  1.0000 -0.5267482019
O   O12       1.0  0.10957  0.41991  0.39409  1.0000 -0.5267482019
