# DDEC6 charges by PACMAN v1.1 (https://github.com/mtap-research/PACMAN-charge/)
data_2016[Zn][bpq]3[FSR]1
_chemical_formula_sum              "Zn4 H52 C58 N12 O20"
_cell_length_a       15.0611
_cell_length_b       15.0611
_cell_length_c       18.3283
_cell_angle_alpha    66.2364
_cell_angle_beta     113.764
_cell_angle_gamma    147.884

_symmetry_space_group_name_H-M    "P 1"
_symmetry_Int_Tables_number       1

loop_
  _symmetry_equiv_pos_as_xyz
  'x, y, z'

loop_
  _atom_site_type_symbol
  _atom_site_label
  _atom_site_symmetry_multiplicity
  _atom_site_fract_x
  _atom_site_fract_y
  _atom_site_fract_z
  _atom_site_occupancy
  _atom_site_charge
Zn  Zn1       1.0  0.47154  0.08432  0.88413  1.0000 0.8660193306
Zn  Zn2       1.0  0.08432  0.47154  0.61587  1.0000 0.8660193306
Zn  Zn3       1.0  0.52846  0.91568  0.11587  1.0000 0.8660193306
Zn  Zn4       1.0  0.91568  0.52846  0.38413  1.0000 0.8660193306
H   H1        1.0  0.19580  0.78240  0.67500  1.0000 0.1376279477
H   H2        1.0  0.78240  0.19580  0.82500  1.0000 0.1376279477
H   H3        1.0  0.80420  0.21760  0.32500  1.0000 0.1376279477
H   H4        1.0  0.21760  0.80420  0.17500  1.0000 0.1376279477
H   H5        1.0  0.77540  0.68600  0.85620  1.0000 0.1112060315
H   H6        1.0  0.68600  0.77540  0.64380  1.0000 0.1112060315
H   H7        1.0  0.22460  0.31400  0.14380  1.0000 0.1112060315
H   H8        1.0  0.31400  0.22460  0.35620  1.0000 0.1112060315
H   H9        1.0  0.96340  0.80800  0.88740  1.0000 0.1112060315
H   H10       1.0  0.80800  0.96340  0.61260  1.0000 0.1112060315
H   H11       1.0  0.03660  0.19200  0.11260  1.0000 0.1112060315
H   H12       1.0  0.19200  0.03660  0.38740  1.0000 0.1112060315
H   H13       1.0  0.47810  0.36690  0.78920  1.0000 0.1622142456
H   H14       1.0  0.36690  0.47810  0.71080  1.0000 0.1622142456
H   H15       1.0  0.52190  0.63310  0.21080  1.0000 0.1622142456
H   H16       1.0  0.63310  0.52190  0.28920  1.0000 0.1622142456
H   H17       1.0  0.41550  0.23930  0.86800  1.0000 0.1622142456
H   H18       1.0  0.23930  0.41550  0.63200  1.0000 0.1622142456
H   H19       1.0  0.58450  0.76070  0.13200  1.0000 0.1622142456
H   H20       1.0  0.76070  0.58450  0.36800  1.0000 0.1622142456
H   H21       1.0  0.52540  0.41740  0.87070  1.0000 0.1622142456
H   H22       1.0  0.41740  0.52540  0.62930  1.0000 0.1622142456
H   H23       1.0  0.47460  0.58260  0.12930  1.0000 0.1622142456
H   H24       1.0  0.58260  0.47460  0.37070  1.0000 0.1548737507
H   H25       1.0  0.04210  0.02870  0.79610  1.0000 0.1157599311
H   H26       1.0  0.02870  0.04210  0.70390  1.0000 0.1157599311
H   H27       1.0  0.95790  0.97130  0.20390  1.0000 0.1157599311
H   H28       1.0  0.97130  0.95790  0.29610  1.0000 0.1157599311
H   H29       1.0  0.96610  0.78530  0.46500  1.0000 0.1376279477
H   H30       1.0  0.78530  0.96610  0.03500  1.0000 0.1376279477
H   H31       1.0  0.03390  0.21470  0.53500  1.0000 0.1376279477
H   H32       1.0  0.21470  0.03390  0.96500  1.0000 0.1376279477
H   H33       1.0  0.15960  0.03240  0.63800  1.0000 0.1746989857
H   H34       1.0  0.03240  0.15960  0.86200  1.0000 0.1746989857
H   H35       1.0  0.84040  0.96760  0.36200  1.0000 0.1754607927
H   H36       1.0  0.96760  0.84040  0.13800  1.0000 0.1754607927
H   H37       1.0  0.04570  0.70190  0.88820  1.0000 0.1314884253
H   H38       1.0  0.70190  0.04570  0.61180  1.0000 0.1314884253
H   H39       1.0  0.95430  0.29810  0.11180  1.0000 0.1314884253
H   H40       1.0  0.29810  0.95430  0.38820  1.0000 0.1314884253
H   H41       1.0  0.87370  0.41630  0.90630  1.0000 0.1314884253
H   H42       1.0  0.41630  0.87370  0.59370  1.0000 0.1314884253
H   H43       1.0  0.12630  0.58370  0.09370  1.0000 0.1314884253
H   H44       1.0  0.58370  0.12630  0.40630  1.0000 0.1314884253
H   H45       1.0  0.81880  0.74540  0.72630  1.0000 0.1043885943
H   H46       1.0  0.74540  0.81880  0.77370  1.0000 0.1043885943
H   H47       1.0  0.18120  0.25460  0.27370  1.0000 0.1043885943
H   H48       1.0  0.25460  0.18120  0.22630  1.0000 0.1043885943
H   H49       1.0  0.00610  0.86430  0.75710  1.0000 0.1112060315
H   H50       1.0  0.86430  0.00610  0.74290  1.0000 0.1112060315
H   H51       1.0  0.99390  0.13570  0.24290  1.0000 0.1112060315
H   H52       1.0  0.13570  0.99390  0.25710  1.0000 0.1112060315
C   C1        1.0  0.05180  0.67140  0.53240  1.0000 0.5896235775
C   C2        1.0  0.67140  0.05180  0.96760  1.0000 0.5896235775
C   C3        1.0  0.94820  0.32860  0.46760  1.0000 0.5896235775
C   C4        1.0  0.32860  0.94820  0.03240  1.0000 0.5896235775
C   C5        1.0  0.05300  0.91580  0.54380  1.0000 0.1112060315
C   C6        1.0  0.91580  0.05300  0.95620  1.0000 0.1112060315
C   C7        1.0  0.94700  0.08420  0.45620  1.0000 0.1112060315
C   C8        1.0  0.08420  0.94700  0.04380  1.0000 0.1112060315
C   C9        1.0  0.16160  0.81740  0.64140  1.0000 -0.0973579645
C   C10       1.0  0.81740  0.16160  0.85860  1.0000 -0.0973579645
C   C11       1.0  0.83840  0.18260  0.35860  1.0000 -0.0973579645
C   C12       1.0  0.18260  0.83840  0.14140  1.0000 -0.0973579645
C   C13       1.0  0.08010  0.77070  0.56480  1.0000 -0.0403443378
C   C14       1.0  0.77070  0.08010  0.93520  1.0000 -0.0403443378
C   C15       1.0  0.91990  0.22930  0.43520  1.0000 -0.0403443378
C   C16       1.0  0.22930  0.91990  0.06480  1.0000 -0.0403443378
C   C17       1.0  0.86850  0.72950  0.84870  1.0000 -0.1070376526
C   C18       1.0  0.72950  0.86850  0.65130  1.0000 -0.1070376526
C   C19       1.0  0.13150  0.27050  0.15130  1.0000 -0.1070376526
C   C20       1.0  0.27050  0.13150  0.34870  1.0000 -0.1070376526
C   C21       1.0  0.50640  0.35600  0.84620  1.0000 -0.5376440216
C   C22       1.0  0.35600  0.50640  0.65380  1.0000 -0.5376440216
C   C23       1.0  0.49360  0.64400  0.15380  1.0000 -0.5376440216
C   C24       1.0  0.64400  0.49360  0.34620  1.0000 -0.5376440216
C   C25       1.0  0.19210  0.91710  0.66750  1.0000 0.0177494056
C   C26       1.0  0.91710  0.19210  0.83250  1.0000 0.0177494056
C   C27       1.0  0.80790  0.08290  0.33250  1.0000 0.0177494056
C   C28       1.0  0.08290  0.80790  0.16750  1.0000 0.0177494056
C   C29       1.0  0.66190  0.42490  0.86280  1.0000 0.3515122082
C   C30       1.0  0.42490  0.66190  0.63720  1.0000 0.3515122082
C   C31       1.0  0.33810  0.57510  0.13720  1.0000 0.3515122082
C   C32       1.0  0.57510  0.33810  0.36280  1.0000 0.3515122082
C   C33       1.0  0.96680  0.96680  0.75000  1.0000 -0.1566398669
C   C34       1.0  0.03320  0.03320  0.25000  1.0000 -0.1566398669
C   C35       1.0  0.02340  0.81860  0.51600  1.0000 -0.1542092565
C   C36       1.0  0.81860  0.02340  0.98400  1.0000 -0.1542092565
C   C37       1.0  0.97660  0.18140  0.48400  1.0000 -0.1566398669
C   C38       1.0  0.18140  0.97660  0.01600  1.0000 -0.1566398669
C   C39       1.0  0.13870  0.96590  0.61970  1.0000 -0.1915022772
C   C40       1.0  0.96590  0.13870  0.88030  1.0000 -0.1915022772
C   C41       1.0  0.86130  0.03410  0.38030  1.0000 -0.1915022772
C   C42       1.0  0.03410  0.86130  0.11970  1.0000 -0.1915022772
C   C43       1.0  0.92880  0.60300  0.88340  1.0000 -0.0973579645
C   C44       1.0  0.60300  0.92880  0.61660  1.0000 -0.0973579645
C   C45       1.0  0.07120  0.39700  0.11660  1.0000 -0.0973579645
C   C46       1.0  0.39700  0.07120  0.38340  1.0000 -0.0973579645
C   C47       1.0  0.83320  0.44520  0.89300  1.0000 -0.0403443378
C   C48       1.0  0.44520  0.83320  0.60700  1.0000 -0.0403443378
C   C49       1.0  0.16680  0.55480  0.10700  1.0000 -0.0403443378
C   C50       1.0  0.55480  0.16680  0.39300  1.0000 -0.0403443378
C   C51       1.0  0.91480  0.82300  0.76510  1.0000 -0.1795369614
C   C52       1.0  0.82300  0.91480  0.73490  1.0000 -0.1795369614
C   C53       1.0  0.08520  0.17700  0.23490  1.0000 -0.1795369614
C   C54       1.0  0.17700  0.08520  0.26510  1.0000 -0.1795369614
C   C55       1.0  0.28810  0.98010  0.74840  1.0000 0.5037675571
C   C56       1.0  0.98010  0.28810  0.75160  1.0000 0.5037675571
C   C57       1.0  0.71190  0.01990  0.25160  1.0000 0.5037675571
C   C58       1.0  0.01990  0.71190  0.24840  1.0000 0.5037675571
N   N1        1.0  0.82050  0.58870  0.86530  1.0000 -0.0039116205
N   N2        1.0  0.58870  0.82050  0.63470  1.0000 -0.0039116205
N   N3        1.0  0.17950  0.41130  0.13470  1.0000 -0.0039116205
N   N4        1.0  0.41130  0.17950  0.36530  1.0000 -0.0039116205
N   N5        1.0  0.66700  0.33460  0.88000  1.0000 -0.3617707122
N   N6        1.0  0.33460  0.66700  0.62000  1.0000 -0.3617707122
N   N7        1.0  0.33300  0.66540  0.12000  1.0000 -0.3617707122
N   N8        1.0  0.66540  0.33300  0.38000  1.0000 -0.3617707122
N   N9        1.0  0.98940  0.95860  0.48810  1.0000 0.2313951027
N   N10       1.0  0.95860  0.98940  0.01190  1.0000 0.2313951027
N   N11       1.0  0.01060  0.04140  0.51190  1.0000 0.2313951027
N   N12       1.0  0.04140  0.01060  0.98810  1.0000 0.2361060154
O   O1        1.0  0.32090  0.07210  0.76920  1.0000 -0.4574393336
O   O2        1.0  0.07210  0.32090  0.73080  1.0000 -0.4574393336
O   O3        1.0  0.67910  0.92790  0.23080  1.0000 -0.4574393336
O   O4        1.0  0.92790  0.67910  0.26920  1.0000 -0.4574393336
O   O5        1.0  0.33220  0.93560  0.79380  1.0000 -0.4428756017
O   O6        1.0  0.93560  0.33220  0.70620  1.0000 -0.4428756017
O   O7        1.0  0.66780  0.06440  0.20620  1.0000 -0.4428756017
O   O8        1.0  0.06440  0.66780  0.29380  1.0000 -0.4428756017
O   O9        1.0  0.88510  0.87550  0.41420  1.0000 -0.5595593084
O   O10       1.0  0.87550  0.88510  0.08580  1.0000 -0.5595593084
O   O11       1.0  0.11490  0.12450  0.58580  1.0000 -0.5595593084
O   O12       1.0  0.12450  0.11490  0.91420  1.0000 -0.5595593084
O   O13       1.0  0.01398  0.66702  0.45760  1.0000 -0.5528666455
O   O14       1.0  0.66702  0.01398  0.04240  1.0000 -0.5528666455
O   O15       1.0  0.98602  0.33298  0.54240  1.0000 -0.5528666455
O   O16       1.0  0.33298  0.98602  0.95760  1.0000 -0.5528666455
O   O17       1.0  0.07060  0.60220  0.58110  1.0000 -0.521044575
O   O18       1.0  0.60220  0.07060  0.91890  1.0000 -0.521044575
O   O19       1.0  0.92940  0.39780  0.41890  1.0000 -0.521044575
O   O20       1.0  0.39780  0.92940  0.08110  1.0000 -0.521044575
