# DDEC6 charges by PACMAN v1.1 (https://github.com/mtap-research/PACMAN-charge/)
data_2016[Ag][dia]3[FSR]1
_chemical_formula_sum              "Ag4 H112 C152 N16"
_cell_length_a       17.8447
_cell_length_b       17.8447
_cell_length_c       17.8447
_cell_angle_alpha    124.202
_cell_angle_beta     124.202
_cell_angle_gamma    82.8636

_symmetry_space_group_name_H-M    "P 1"
_symmetry_Int_Tables_number       1

loop_
  _symmetry_equiv_pos_as_xyz
  'x, y, z'

loop_
  _atom_site_type_symbol
  _atom_site_label
  _atom_site_symmetry_multiplicity
  _atom_site_fract_x
  _atom_site_fract_y
  _atom_site_fract_z
  _atom_site_occupancy
  _atom_site_charge
Ag  Ag1       1.0  0.62814  0.62814  0.00000  1.0000 0.4771427844
Ag  Ag2       1.0  0.12186  0.62186  0.50000  1.0000 0.4771427844
Ag  Ag3       1.0  0.37814  0.87814  0.50000  1.0000 0.4771427844
Ag  Ag4       1.0  0.37186  0.37186  0.00000  1.0000 0.4744903678
H   H1        1.0  0.66460  0.97170  0.09510  1.0000 0.1191173702
H   H2        1.0  0.87660  0.56950  0.90490  1.0000 0.1191173702
H   H3        1.0  0.72470  0.13160  0.19650  1.0000 0.1191173702
H   H4        1.0  0.93510  0.52820  0.80350  1.0000 0.1191173702
H   H5        1.0  0.89320  0.15430  0.48430  1.0000 0.1191173702
H   H6        1.0  0.67000  0.40890  0.51570  1.0000 0.1191173702
H   H7        1.0  0.83680  0.99530  0.38430  1.0000 0.1191173702
H   H8        1.0  0.61100  0.45250  0.61570  1.0000 0.1191173702
H   H9        1.0  0.97590  0.27720  0.45150  1.0000 0.112199864
H   H10       1.0  0.82570  0.52440  0.54850  1.0000 0.112199864
H   H11       1.0  0.98170  0.28230  0.54540  1.0000 0.1020261927
H   H12       1.0  0.73690  0.43630  0.45460  1.0000 0.1020261927
H   H13       1.0  0.83950  0.29230  0.54680  1.0000 0.1020261927
H   H14       1.0  0.74550  0.29270  0.45320  1.0000 0.1020261927
H   H15       1.0  0.82260  0.27750  0.30010  1.0000 0.1020261927
H   H16       1.0  0.97740  0.52250  0.69990  1.0000 0.1020261927
H   H17       1.0  0.73510  0.28320  0.30210  1.0000 0.0935027776
H   H18       1.0  0.98110  0.43300  0.69790  1.0000 0.0935027776
H   H19       1.0  0.96700  0.51300  0.54780  1.0000 0.0935027776
H   H20       1.0  0.96520  0.41920  0.45220  1.0000 0.0935027776
H   H21       1.0  0.27030  0.55050  0.69520  1.0000 0.1191173702
H   H22       1.0  0.85530  0.57510  0.30480  1.0000 0.1191173702
H   H23       1.0  0.10690  0.49710  0.57880  1.0000 0.112199864
H   H24       1.0  0.91830  0.52810  0.42120  1.0000 0.112199864
H   H25       1.0  0.12130  0.40550  0.74340  1.0000 0.1191173702
H   H26       1.0  0.66210  0.37790  0.25660  1.0000 0.1191173702
H   H27       1.0  0.28420  0.46180  0.86400  1.0000 0.112199864
H   H28       1.0  0.59780  0.42020  0.13600  1.0000 0.112199864
H   H29       1.0  0.87340  0.27830  0.19290  1.0000 0.1191173702
H   H30       1.0  0.08540  0.68050  0.80710  1.0000 0.1191173702
H   H31       1.0  0.81490  0.11840  0.09310  1.0000 0.1191173702
H   H32       1.0  0.02530  0.72180  0.90690  1.0000 0.1191173702
H   H33       1.0  0.08000  0.09570  0.23890  1.0000 0.1191173702
H   H34       1.0  0.85680  0.84110  0.76110  1.0000 0.1191173702
H   H35       1.0  0.13900  0.25470  0.34150  1.0000 0.1191173702
H   H36       1.0  0.91320  0.79750  0.65850  1.0000 0.1191173702
H   H37       1.0  0.92430  0.97280  0.19870  1.0000 0.112199864
H   H38       1.0  0.77410  0.72560  0.80130  1.0000 0.112199864
H   H39       1.0  0.01310  0.96770  0.19940  1.0000 0.1020261927
H   H40       1.0  0.76830  0.81370  0.80060  1.0000 0.1020261927
H   H41       1.0  0.00450  0.95770  0.04720  1.0000 0.1020261927
H   H42       1.0  0.91050  0.95730  0.95280  1.0000 0.1020261927
H   H43       1.0  0.77260  0.97250  0.04510  1.0000 0.1020261927
H   H44       1.0  0.92740  0.72750  0.95490  1.0000 0.1020261927
H   H45       1.0  0.76890  0.96680  0.95190  1.0000 0.0935027776
H   H46       1.0  0.01490  0.81700  0.04810  1.0000 0.0935027776
H   H47       1.0  0.78480  0.73700  0.95400  1.0000 0.0935027776
H   H48       1.0  0.78300  0.83080  0.04600  1.0000 0.0935027776
H   H49       1.0  0.89470  0.69950  0.21980  1.0000 0.1191173702
H   H50       1.0  0.47970  0.67490  0.78020  1.0000 0.1191173702
H   H51       1.0  0.83170  0.75290  0.10980  1.0000 0.112199864
H   H52       1.0  0.64310  0.72190  0.89020  1.0000 0.112199864
H   H53       1.0  0.08790  0.84450  0.21580  1.0000 0.1191173702
H   H54       1.0  0.62870  0.87210  0.78420  1.0000 0.1191173702
H   H55       1.0  0.15220  0.78820  0.32240  1.0000 0.112199864
H   H56       1.0  0.46580  0.82980  0.67760  1.0000 0.112199864
H   H57       1.0  0.72170  0.91460  0.59510  1.0000 0.1191173702
H   H58       1.0  0.31950  0.12660  0.40490  1.0000 0.1191173702
H   H59       1.0  0.88160  0.97470  0.69650  1.0000 0.1191173702
H   H60       1.0  0.27820  0.18510  0.30350  1.0000 0.1191173702
H   H61       1.0  0.90430  0.14320  0.98430  1.0000 0.1191173702
H   H62       1.0  0.15890  0.92000  0.01570  1.0000 0.1191173702
H   H63       1.0  0.74530  0.08680  0.88430  1.0000 0.1191173702
H   H64       1.0  0.20250  0.86100  0.11570  1.0000 0.1191173702
H   H65       1.0  0.02720  0.22590  0.95150  1.0000 0.112199864
H   H66       1.0  0.27440  0.07570  0.04850  1.0000 0.112199864
H   H67       1.0  0.03230  0.23170  0.04540  1.0000 0.1020261927
H   H68       1.0  0.18630  0.98690  0.95460  1.0000 0.1020261927
H   H69       1.0  0.04230  0.08950  0.04680  1.0000 0.1020261927
H   H70       1.0  0.04270  0.99550  0.95320  1.0000 0.1020261927
H   H71       1.0  0.02750  0.07260  0.80010  1.0000 0.1020261927
H   H72       1.0  0.27250  0.22740  0.19990  1.0000 0.1020261927
H   H73       1.0  0.03320  0.98510  0.80210  1.0000 0.0935027776
H   H74       1.0  0.18300  0.23110  0.19790  1.0000 0.0935027776
H   H75       1.0  0.26300  0.21700  0.04780  1.0000 0.0935027776
H   H76       1.0  0.16920  0.21520  0.95220  1.0000 0.0935027776
H   H77       1.0  0.30050  0.52030  0.19520  1.0000 0.1191173702
H   H78       1.0  0.32510  0.10530  0.80480  1.0000 0.1191173702
H   H79       1.0  0.24710  0.35690  0.07880  1.0000 0.112199864
H   H80       1.0  0.27810  0.16830  0.92120  1.0000 0.112199864
H   H81       1.0  0.15550  0.37130  0.24340  1.0000 0.1191173702
H   H82       1.0  0.12790  0.91210  0.75660  1.0000 0.1191173702
H   H83       1.0  0.21180  0.53420  0.36400  1.0000 0.112199864
H   H84       1.0  0.17020  0.84780  0.63600  1.0000 0.112199864
H   H85       1.0  0.02830  0.12340  0.69290  1.0000 0.1191173702
H   H86       1.0  0.43050  0.33540  0.30710  1.0000 0.1191173702
H   H87       1.0  0.86840  0.06490  0.59310  1.0000 0.1191173702
H   H88       1.0  0.47180  0.27530  0.40690  1.0000 0.1191173702
H   H89       1.0  0.84570  0.33000  0.73890  1.0000 0.1191173702
H   H90       1.0  0.59110  0.10680  0.26110  1.0000 0.1191173702
H   H91       1.0  0.00470  0.38900  0.84150  1.0000 0.1191173702
H   H92       1.0  0.54750  0.16320  0.15850  1.0000 0.1191173702
H   H93       1.0  0.72280  0.17430  0.69870  1.0000 0.112199864
H   H94       1.0  0.47560  0.02410  0.30130  1.0000 0.112199864
H   H95       1.0  0.71770  0.26310  0.69940  1.0000 0.1020261927
H   H96       1.0  0.56370  0.01830  0.30060  1.0000 0.1020261927
H   H97       1.0  0.70770  0.25450  0.54720  1.0000 0.1020261927
H   H98       1.0  0.70730  0.16050  0.45280  1.0000 0.1020261927
H   H99       1.0  0.72250  0.02260  0.54510  1.0000 0.1020261927
H   H100      1.0  0.47750  0.17740  0.45490  1.0000 0.1020261927
H   H101      1.0  0.71680  0.01890  0.45190  1.0000 0.0935027776
H   H102      1.0  0.56700  0.26490  0.54810  1.0000 0.0935027776
H   H103      1.0  0.48700  0.03480  0.45400  1.0000 0.0935027776
H   H104      1.0  0.58080  0.03300  0.54600  1.0000 0.0935027776
H   H105      1.0  0.44950  0.14470  0.71980  1.0000 0.1191173702
H   H106      1.0  0.42490  0.72970  0.28020  1.0000 0.1191173702
H   H107      1.0  0.50290  0.08170  0.60980  1.0000 0.112199864
H   H108      1.0  0.47190  0.89310  0.39020  1.0000 0.112199864
H   H109      1.0  0.59450  0.33790  0.71580  1.0000 0.1191173702
H   H110      1.0  0.62210  0.87870  0.28420  1.0000 0.1191173702
H   H111      1.0  0.53820  0.40220  0.82240  1.0000 0.112199864
H   H112      1.0  0.57980  0.71580  0.17760  1.0000 0.112199864
C   C1        1.0  0.70570  0.86760  0.16470  1.0000 0.276432992
C   C2        1.0  0.70290  0.54100  0.83530  1.0000 0.276432992
C   C3        1.0  0.74348  0.96698  0.22910  1.0000 0.014645874
C   C4        1.0  0.73788  0.51438  0.77090  1.0000 0.014645874
C   C5        1.0  0.71030  0.00850  0.17320  1.0000 -0.1269816729
C   C6        1.0  0.83530  0.53710  0.82680  1.0000 -0.1269816729
C   C7        1.0  0.74570  0.10490  0.23480  1.0000 -0.1616138196
C   C8        1.0  0.87010  0.51090  0.76520  1.0000 -0.1616138196
C   C9        1.0  0.81153  0.16233  0.35140  1.0000 0.0493153163
C   C10       1.0  0.81093  0.46013  0.64860  1.0000 0.0493153163
C   C11       1.0  0.84670  0.11790  0.40640  1.0000 -0.1474271296
C   C12       1.0  0.71150  0.44030  0.59360  1.0000 -0.1474271296
C   C13       1.0  0.81330  0.02280  0.34690  1.0000 -0.1269816729
C   C14       1.0  0.67590  0.46640  0.65310  1.0000 -0.1269816729
C   C15       1.0  0.84617  0.26997  0.42320  1.0000 0.1698053693
C   C16       1.0  0.84677  0.42297  0.57680  1.0000 0.1698053693
C   C17       1.0  0.95480  0.30390  0.49870  1.0000 -0.3276960319
C   C18       1.0  0.80520  0.45610  0.50130  1.0000 -0.3276960319
C   C19       1.0  0.81380  0.31380  0.50000  1.0000 -0.3276960319
C   C20       1.0  0.80340  0.30420  0.34920  1.0000 -0.3207685044
C   C21       1.0  0.95500  0.45420  0.65080  1.0000 -0.3207685044
C   C22       1.0  0.98898  0.41168  0.57450  1.0000 0.175821011
C   C23       1.0  0.83718  0.41448  0.42550  1.0000 0.175821011
C   C24       1.0  0.94480  0.44480  0.50000  1.0000 -0.3207685044
C   C25       1.0  0.39320  0.54670  0.86110  1.0000 0.2894826019
C   C26       1.0  0.68560  0.53210  0.13890  1.0000 0.2894826019
C   C27       1.0  0.29190  0.51230  0.79060  1.0000 0.0493153163
C   C28       1.0  0.72170  0.50130  0.20940  1.0000 0.0493153163
C   C29       1.0  0.24040  0.52250  0.70610  1.0000 -0.1206849134
C   C30       1.0  0.81640  0.53430  0.29390  1.0000 -0.1206849134
C   C31       1.0  0.14250  0.49030  0.63640  1.0000 -0.1616138196
C   C32       1.0  0.85390  0.50610  0.36360  1.0000 -0.1616138196
C   C33       1.0  0.09660  0.44760  0.65180  1.0000 0.0493153163
C   C34       1.0  0.79580  0.44480  0.34820  1.0000 0.0493153163
C   C35       1.0  0.15080  0.43630  0.73450  1.0000 -0.1474271296
C   C36       1.0  0.70180  0.41630  0.26550  1.0000 -0.1474271296
C   C37       1.0  0.24860  0.46890  0.80650  1.0000 -0.1206849134
C   C38       1.0  0.66240  0.44210  0.19350  1.0000 -0.1206849134
C   C39       1.0  0.04710  0.38240  0.33810  1.0000 0.276432992
C   C40       1.0  0.04430  0.70900  0.66190  1.0000 0.276432992
C   C41       1.0  0.01212  0.28302  0.27650  1.0000 0.014645874
C   C42       1.0  0.00652  0.73562  0.72350  1.0000 0.014645874
C   C43       1.0  0.91470  0.24150  0.20180  1.0000 -0.1269816729
C   C44       1.0  0.03970  0.71290  0.79820  1.0000 -0.1269816729
C   C45       1.0  0.87990  0.14510  0.14080  1.0000 -0.1616138196
C   C46       1.0  0.00430  0.73910  0.85920  1.0000 -0.166011191
C   C47       1.0  0.93907  0.08767  0.14920  1.0000 0.0493153163
C   C48       1.0  0.93847  0.78987  0.85080  1.0000 0.0493153163
C   C49       1.0  0.03850  0.13210  0.22880  1.0000 -0.1474271296
C   C50       1.0  0.90330  0.80970  0.77120  1.0000 -0.1474271296
C   C51       1.0  0.07410  0.22720  0.29050  1.0000 -0.1269816729
C   C52       1.0  0.93670  0.78360  0.70950  1.0000 -0.1269816729
C   C53       1.0  0.90323  0.98003  0.07620  1.0000 0.1698053693
C   C54       1.0  0.90383  0.82703  0.92380  1.0000 0.1698053693
C   C55       1.0  0.94480  0.94610  0.15090  1.0000 -0.3276960319
C   C56       1.0  0.79520  0.79390  0.84910  1.0000 -0.3276960319
C   C57       1.0  0.93620  0.93620  0.00000  1.0000 -0.3276960319
C   C58       1.0  0.79500  0.94580  0.99920  1.0000 -0.3207685044
C   C59       1.0  0.94660  0.79580  0.00080  1.0000 -0.3207685044
C   C60       1.0  0.91282  0.83832  0.07730  1.0000 0.175821011
C   C61       1.0  0.76102  0.83552  0.92270  1.0000 0.175821011
C   C62       1.0  0.80520  0.80520  0.00000  1.0000 -0.3207685044
C   C63       1.0  0.06440  0.70330  0.34650  1.0000 0.2894826019
C   C64       1.0  0.35680  0.71790  0.65350  1.0000 0.2894826019
C   C65       1.0  0.02830  0.73770  0.27960  1.0000 0.0493153163
C   C66       1.0  0.45810  0.74870  0.72040  1.0000 0.0493153163
C   C67       1.0  0.93360  0.72750  0.21790  1.0000 -0.1206849134
C   C68       1.0  0.50960  0.71570  0.78210  1.0000 -0.1206849134
C   C69       1.0  0.89610  0.75970  0.15220  1.0000 -0.1616138196
C   C70       1.0  0.60750  0.74390  0.84780  1.0000 -0.1616138196
C   C71       1.0  0.95420  0.80240  0.14900  1.0000 0.0493153163
C   C72       1.0  0.65340  0.80520  0.85100  1.0000 0.0493153163
C   C73       1.0  0.04820  0.81370  0.21450  1.0000 -0.1474271296
C   C74       1.0  0.59920  0.83370  0.78550  1.0000 -0.1474271296
C   C75       1.0  0.08760  0.78110  0.27970  1.0000 -0.1206849134
C   C76       1.0  0.50140  0.80790  0.72030  1.0000 -0.1206849134
C   C77       1.0  0.61760  0.95570  0.66470  1.0000 0.276432992
C   C78       1.0  0.29100  0.95290  0.33530  1.0000 0.276432992
C   C79       1.0  0.71698  0.99348  0.72910  1.0000 0.014645874
C   C80       1.0  0.26438  0.98788  0.27090  1.0000 0.014645874
C   C81       1.0  0.75850  0.96030  0.67320  1.0000 -0.1269816729
C   C82       1.0  0.28710  0.08530  0.32680  1.0000 -0.1269816729
C   C83       1.0  0.85490  0.99570  0.73480  1.0000 -0.1616138196
C   C84       1.0  0.26090  0.12010  0.26520  1.0000 -0.1616138196
C   C85       1.0  0.91233  0.06153  0.85140  1.0000 0.0493153163
C   C86       1.0  0.21013  0.06093  0.14860  1.0000 0.0493153163
C   C87       1.0  0.86790  0.09670  0.90640  1.0000 -0.1474271296
C   C88       1.0  0.19030  0.96150  0.09360  1.0000 -0.1474271296
C   C89       1.0  0.77280  0.06330  0.84690  1.0000 -0.1269816729
C   C90       1.0  0.21640  0.92590  0.15310  1.0000 -0.1269816729
C   C91       1.0  0.01997  0.09617  0.92320  1.0000 0.1698053693
C   C92       1.0  0.17297  0.09677  0.07680  1.0000 0.1698053693
C   C93       1.0  0.05390  0.20480  0.99870  1.0000 -0.3276960319
C   C94       1.0  0.20610  0.05520  0.00130  1.0000 -0.3276960319
C   C95       1.0  0.06380  0.06380  0.00000  1.0000 -0.3276960319
C   C96       1.0  0.05420  0.05340  0.84920  1.0000 -0.3207685044
C   C97       1.0  0.20420  0.20500  0.15080  1.0000 -0.3207685044
C   C98       1.0  0.16168  0.23898  0.07450  1.0000 0.175821011
C   C99       1.0  0.16448  0.08718  0.92550  1.0000 0.175821011
C   C100      1.0  0.19480  0.19480  0.00000  1.0000 -0.3207685044
C   C101      1.0  0.29670  0.64320  0.36110  1.0000 0.2894826019
C   C102      1.0  0.28210  0.93560  0.63890  1.0000 0.2894826019
C   C103      1.0  0.26230  0.54190  0.29060  1.0000 0.0493153163
C   C104      1.0  0.25130  0.97170  0.70940  1.0000 0.0493153163
C   C105      1.0  0.27250  0.49040  0.20610  1.0000 -0.1206849134
C   C106      1.0  0.28430  0.06640  0.79390  1.0000 -0.1206849134
C   C107      1.0  0.24030  0.39250  0.13640  1.0000 -0.1616138196
C   C108      1.0  0.25610  0.10390  0.86360  1.0000 -0.1616138196
C   C109      1.0  0.19760  0.34660  0.15180  1.0000 0.0493153163
C   C110      1.0  0.19480  0.04580  0.84820  1.0000 0.0493153163
C   C111      1.0  0.18630  0.40080  0.23450  1.0000 -0.1474271296
C   C112      1.0  0.16630  0.95180  0.76550  1.0000 -0.1474271296
C   C113      1.0  0.21890  0.49860  0.30650  1.0000 -0.1206849134
C   C114      1.0  0.19210  0.91240  0.69350  1.0000 -0.1206849134
C   C115      1.0  0.13240  0.29710  0.83810  1.0000 0.276432992
C   C116      1.0  0.45900  0.29430  0.16190  1.0000 0.276432992
C   C117      1.0  0.03302  0.26212  0.77650  1.0000 0.014645874
C   C118      1.0  0.48562  0.25652  0.22350  1.0000 0.014645874
C   C119      1.0  0.99150  0.16470  0.70180  1.0000 -0.1269816729
C   C120      1.0  0.46290  0.28970  0.29820  1.0000 -0.1269816729
C   C121      1.0  0.89510  0.12990  0.64080  1.0000 -0.1616138196
C   C122      1.0  0.48910  0.25430  0.35920  1.0000 -0.1616138196
C   C123      1.0  0.83767  0.18907  0.64920  1.0000 0.0493153163
C   C124      1.0  0.53987  0.18847  0.35080  1.0000 0.0493153163
C   C125      1.0  0.88210  0.28850  0.72880  1.0000 -0.1474271296
C   C126      1.0  0.55970  0.15330  0.27120  1.0000 -0.1474271296
C   C127      1.0  0.97720  0.32410  0.79050  1.0000 -0.1269816729
C   C128      1.0  0.53360  0.18670  0.20950  1.0000 -0.1269816729
C   C129      1.0  0.73003  0.15323  0.57620  1.0000 0.1698053693
C   C130      1.0  0.57703  0.15383  0.42380  1.0000 0.1698053693
C   C131      1.0  0.69610  0.19480  0.65090  1.0000 -0.3276960319
C   C132      1.0  0.54390  0.04520  0.34910  1.0000 -0.3276960319
C   C133      1.0  0.68620  0.18620  0.50000  1.0000 -0.3276960319
C   C134      1.0  0.69580  0.04500  0.49920  1.0000 -0.3207685044
C   C135      1.0  0.54580  0.19660  0.50080  1.0000 -0.3207685044
C   C136      1.0  0.58832  0.16282  0.57730  1.0000 0.175821011
C   C137      1.0  0.58552  0.01102  0.42270  1.0000 0.175821011
C   C138      1.0  0.55520  0.05520  0.50000  1.0000 -0.3207685044
C   C139      1.0  0.45330  0.31440  0.84650  1.0000 0.2894826019
C   C140      1.0  0.46790  0.60680  0.15350  1.0000 0.2894826019
C   C141      1.0  0.48770  0.27830  0.77960  1.0000 0.0493153163
C   C142      1.0  0.49870  0.70810  0.22040  1.0000 0.0493153163
C   C143      1.0  0.47750  0.18360  0.71790  1.0000 -0.1206849134
C   C144      1.0  0.46570  0.75960  0.28210  1.0000 -0.1206849134
C   C145      1.0  0.50970  0.14610  0.65220  1.0000 -0.1616138196
C   C146      1.0  0.49390  0.85750  0.34780  1.0000 -0.1616138196
C   C147      1.0  0.55240  0.20420  0.64900  1.0000 0.0493153163
C   C148      1.0  0.55520  0.90340  0.35100  1.0000 0.0493153163
C   C149      1.0  0.56370  0.29820  0.71450  1.0000 -0.1474271296
C   C150      1.0  0.58370  0.84920  0.28550  1.0000 -0.1474271296
C   C151      1.0  0.53110  0.33760  0.77970  1.0000 -0.1206849134
C   C152      1.0  0.55790  0.75140  0.22030  1.0000 -0.1206849134
N   N1        1.0  0.67864  0.78814  0.11430  1.0000 -0.3761332063
N   N2        1.0  0.67384  0.56434  0.88570  1.0000 -0.3761332063
N   N3        1.0  0.47330  0.57820  0.91610  1.0000 -0.3937868201
N   N4        1.0  0.66210  0.55720  0.08390  1.0000 -0.3937868201
N   N5        1.0  0.07616  0.46186  0.39050  1.0000 -0.3761332063
N   N6        1.0  0.07136  0.68566  0.60950  1.0000 -0.3761332063
N   N7        1.0  0.08790  0.67180  0.39510  1.0000 -0.3937868201
N   N8        1.0  0.27670  0.69280  0.60490  1.0000 -0.3937868201
N   N9        1.0  0.53814  0.92864  0.61430  1.0000 -0.3761332063
N   N10       1.0  0.31434  0.92384  0.38570  1.0000 -0.3761332063
N   N11       1.0  0.32820  0.72330  0.41610  1.0000 -0.3937868201
N   N12       1.0  0.30720  0.91210  0.58390  1.0000 -0.3937868201
N   N13       1.0  0.21186  0.32616  0.89050  1.0000 -0.3761332063
N   N14       1.0  0.43566  0.32136  0.10950  1.0000 -0.3761332063
N   N15       1.0  0.42180  0.33790  0.89510  1.0000 -0.3937868201
N   N16       1.0  0.44280  0.52670  0.10490  1.0000 -0.3952269024
