# DDEC6 charges by PACMAN v1.1 (https://github.com/mtap-research/PACMAN-charge/)
data_2016[Gd][dia]3[FSR]1
_chemical_formula_sum              "Gd4 P4 H36 C32 N4 O36"
_cell_length_a       9.7306
_cell_length_b       10.53
_cell_length_c       16.416
_cell_angle_alpha    90
_cell_angle_beta     112.13
_cell_angle_gamma    90

_symmetry_space_group_name_H-M    "P 1"
_symmetry_Int_Tables_number       1

loop_
  _symmetry_equiv_pos_as_xyz
  'x, y, z'

loop_
  _atom_site_type_symbol
  _atom_site_label
  _atom_site_symmetry_multiplicity
  _atom_site_fract_x
  _atom_site_fract_y
  _atom_site_fract_z
  _atom_site_occupancy
  _atom_site_charge
Gd  Gd1       1.0  0.81978  0.11196  0.60658  1.0000 2.04144813
Gd  Gd2       1.0  0.18022  0.61196  0.89342  1.0000 2.04144813
Gd  Gd3       1.0  0.18022  0.88804  0.39342  1.0000 2.04144813
Gd  Gd4       1.0  0.81978  0.38804  0.10658  1.0000 2.04144813
P   P1        1.0  0.92412  0.85646  0.76979  1.0000 1.3799188274
P   P2        1.0  0.07588  0.35646  0.73021  1.0000 1.3799188274
P   P3        1.0  0.07588  0.14354  0.23021  1.0000 1.3799188274
P   P4        1.0  0.92412  0.64354  0.26979  1.0000 1.3799188274
H   H1        1.0  0.39260  0.88980  0.06730  1.0000 0.1391745942
H   H2        1.0  0.60740  0.38980  0.43270  1.0000 0.1391745942
H   H3        1.0  0.60740  0.11020  0.93270  1.0000 0.1391745942
H   H4        1.0  0.39260  0.61020  0.56730  1.0000 0.1391745942
H   H5        1.0  0.45060  0.10280  0.06610  1.0000 0.1315112847
H   H6        1.0  0.54940  0.60280  0.43390  1.0000 0.1315112847
H   H7        1.0  0.54940  0.89720  0.93390  1.0000 0.1315112847
H   H8        1.0  0.45060  0.39720  0.56610  1.0000 0.1315112847
H   H9        1.0  0.27980  0.23940  0.97240  1.0000 0.1391745942
H   H10       1.0  0.72020  0.73940  0.52760  1.0000 0.1391745942
H   H11       1.0  0.72020  0.76060  0.02760  1.0000 0.1391745942
H   H12       1.0  0.27980  0.26060  0.47240  1.0000 0.1391745942
H   H13       1.0  0.04890  0.16680  0.88440  1.0000 0.1600579719
H   H14       1.0  0.95110  0.66680  0.61560  1.0000 0.1600579719
H   H15       1.0  0.95110  0.83320  0.11560  1.0000 0.1600579719
H   H16       1.0  0.04890  0.33320  0.38440  1.0000 0.1600579719
H   H17       1.0  0.90970  0.86510  0.90720  1.0000 0.1780780542
H   H18       1.0  0.09030  0.36510  0.59280  1.0000 0.1780780542
H   H19       1.0  0.09030  0.13490  0.09280  1.0000 0.1780780542
H   H20       1.0  0.90970  0.63490  0.40720  1.0000 0.1780780542
H   H21       1.0  0.86020  0.99540  0.85900  1.0000 0.1600579719
H   H22       1.0  0.13980  0.49540  0.64100  1.0000 0.1600579719
H   H23       1.0  0.13980  0.00460  0.14100  1.0000 0.1600579719
H   H24       1.0  0.86020  0.50460  0.35900  1.0000 0.1600579719
H   H25       1.0  0.71600  0.82700  0.68340  1.0000 0.3810939329
H   H26       1.0  0.28400  0.32700  0.81660  1.0000 0.3810939329
H   H27       1.0  0.28400  0.17300  0.31660  1.0000 0.3810939329
H   H28       1.0  0.71600  0.67300  0.18340  1.0000 0.3810939329
H   H29       1.0  0.72290  0.24070  0.72770  1.0000 0.4283397335
H   H30       1.0  0.27710  0.74070  0.77230  1.0000 0.4283397335
H   H31       1.0  0.27710  0.75930  0.27230  1.0000 0.4283397335
H   H32       1.0  0.72290  0.25930  0.22770  1.0000 0.4283397335
H   H33       1.0  0.60530  0.13900  0.68860  1.0000 0.420724793
H   H34       1.0  0.39470  0.63900  0.81140  1.0000 0.420724793
H   H35       1.0  0.39470  0.86100  0.31140  1.0000 0.420724793
H   H36       1.0  0.60530  0.36100  0.18860  1.0000 0.420724793
C   C1        1.0  0.32290  0.94610  0.03070  1.0000 -0.0610325628
C   C2        1.0  0.67710  0.44610  0.46930  1.0000 -0.0610325628
C   C3        1.0  0.67710  0.05390  0.96930  1.0000 -0.0610325628
C   C4        1.0  0.32290  0.55390  0.53070  1.0000 -0.0610325628
C   C5        1.0  0.35790  0.07290  0.02950  1.0000 -0.1434089554
C   C6        1.0  0.64210  0.57290  0.47050  1.0000 -0.1434089554
C   C7        1.0  0.64210  0.92710  0.97050  1.0000 -0.1434089554
C   C8        1.0  0.35790  0.42710  0.52950  1.0000 -0.1434089554
C   C9        1.0  0.25580  0.15420  0.97430  1.0000 -0.0504545209
C   C10       1.0  0.74420  0.65420  0.52570  1.0000 -0.0504545209
C   C11       1.0  0.74420  0.84580  0.02570  1.0000 -0.0504545209
C   C12       1.0  0.25580  0.34580  0.47430  1.0000 -0.0504545209
C   C13       1.0  0.11830  0.11090  0.92170  1.0000 -0.1714650218
C   C14       1.0  0.88170  0.61090  0.57830  1.0000 -0.1714650218
C   C15       1.0  0.88170  0.88910  0.07830  1.0000 -0.1714650218
C   C16       1.0  0.11830  0.38910  0.42170  1.0000 -0.1714650218
C   C17       1.0  0.08170  0.98290  0.92400  1.0000 0.207173838
C   C18       1.0  0.91830  0.48290  0.57600  1.0000 0.207173838
C   C19       1.0  0.91830  0.01710  0.07600  1.0000 0.207173838
C   C20       1.0  0.08170  0.51710  0.42400  1.0000 0.207173838
C   C21       1.0  0.93400  0.92860  0.87200  1.0000 -0.598294319
C   C22       1.0  0.06600  0.42860  0.62800  1.0000 -0.598294319
C   C23       1.0  0.06600  0.07140  0.12800  1.0000 -0.598294319
C   C24       1.0  0.93400  0.57140  0.37200  1.0000 -0.598294319
C   C25       1.0  0.07150  0.03260  0.53200  1.0000 0.5071654158
C   C26       1.0  0.92850  0.53260  0.96800  1.0000 0.5071654158
C   C27       1.0  0.92850  0.96740  0.46800  1.0000 0.5071654158
C   C28       1.0  0.07150  0.46740  0.03200  1.0000 0.5071654158
C   C29       1.0  0.48350  0.06010  0.47090  1.0000 0.5071654158
C   C30       1.0  0.51650  0.56010  0.02910  1.0000 0.5071654158
C   C31       1.0  0.51650  0.93990  0.52910  1.0000 0.5071654158
C   C32       1.0  0.48350  0.43990  0.97090  1.0000 0.5071654158
N   N1        1.0  0.18670  0.90380  0.97850  1.0000 0.2800381767
N   N2        1.0  0.81330  0.40380  0.52150  1.0000 0.2800381767
N   N3        1.0  0.81330  0.09620  0.02150  1.0000 0.2800381767
N   N4        1.0  0.18670  0.59620  0.47850  1.0000 0.2800381767
O   O1        1.0  0.93800  0.95800  0.70934  1.0000 -0.8579524172
O   O2        1.0  0.06200  0.45800  0.79066  1.0000 -0.8579524172
O   O3        1.0  0.06200  0.04200  0.29066  1.0000 -0.8579524172
O   O4        1.0  0.93800  0.54200  0.20934  1.0000 -0.8579524172
O   O5        1.0  0.76290  0.79680  0.73202  1.0000 -0.598294319
O   O6        1.0  0.23710  0.29680  0.76798  1.0000 -0.598294319
O   O7        1.0  0.23710  0.20320  0.26798  1.0000 -0.598294319
O   O8        1.0  0.76290  0.70320  0.23202  1.0000 -0.598294319
O   O9        1.0  0.03850  0.75370  0.78952  1.0000 -0.8719735009
O   O10       1.0  0.96150  0.25370  0.71048  1.0000 -0.8719735009
O   O11       1.0  0.96150  0.24630  0.21048  1.0000 -0.8719735009
O   O12       1.0  0.03850  0.74630  0.28952  1.0000 -0.8719735009
O   O13       1.0  0.15460  0.78210  0.98293  1.0000 -0.5853957993
O   O14       1.0  0.84540  0.28210  0.51707  1.0000 -0.5853957993
O   O15       1.0  0.84540  0.21790  0.01707  1.0000 -0.5853957993
O   O16       1.0  0.15460  0.71790  0.48293  1.0000 -0.5853957993
O   O17       1.0  0.18570  0.02060  0.51459  1.0000 -0.608341561
O   O18       1.0  0.81430  0.52060  0.98541  1.0000 -0.608341561
O   O19       1.0  0.81430  0.97940  0.48541  1.0000 -0.608341561
O   O20       1.0  0.18570  0.47940  0.01459  1.0000 -0.608341561
O   O21       1.0  0.06190  0.09100  0.59524  1.0000 -0.5468978745
O   O22       1.0  0.93810  0.59100  0.90476  1.0000 -0.5468978745
O   O23       1.0  0.93810  0.90900  0.40476  1.0000 -0.5468978745
O   O24       1.0  0.06190  0.40900  0.09524  1.0000 -0.5468978745
O   O25       1.0  0.57380  0.14800  0.49283  1.0000 -0.5695822102
O   O26       1.0  0.42620  0.64800  0.00717  1.0000 -0.5695822102
O   O27       1.0  0.42620  0.85200  0.50717  1.0000 -0.5695822102
O   O28       1.0  0.57380  0.35200  0.99283  1.0000 -0.5695822102
O   O29       1.0  0.36270  0.05680  0.40512  1.0000 -0.6180888426
O   O30       1.0  0.63730  0.55680  0.09488  1.0000 -0.6180888426
O   O31       1.0  0.63730  0.94320  0.59488  1.0000 -0.6180888426
O   O32       1.0  0.36270  0.44320  0.90512  1.0000 -0.6180888426
O   O33       1.0  0.67880  0.18400  0.69010  1.0000 -0.7799408299
O   O34       1.0  0.32120  0.68400  0.80990  1.0000 -0.7799408299
O   O35       1.0  0.32120  0.81600  0.30990  1.0000 -0.7799408299
O   O36       1.0  0.67880  0.31600  0.19010  1.0000 -0.7799408299
