# DDEC6 charges by PACMAN v1.1 (https://github.com/mtap-research/PACMAN-charge/)
data_2016[Mg][bpq]3[FSR]1
_chemical_formula_sum              "Mg4 H32 C48 O20"
_cell_length_a       11.3212
_cell_length_b       11.3212
_cell_length_c       14.54
_cell_angle_alpha    70.3755
_cell_angle_beta     109.625
_cell_angle_gamma    93.33

_symmetry_space_group_name_H-M    "P 1"
_symmetry_Int_Tables_number       1

loop_
  _symmetry_equiv_pos_as_xyz
  'x, y, z'

loop_
  _atom_site_type_symbol
  _atom_site_label
  _atom_site_symmetry_multiplicity
  _atom_site_fract_x
  _atom_site_fract_y
  _atom_site_fract_z
  _atom_site_occupancy
  _atom_site_charge
Mg  Mg1       1.0  0.00831  0.00831  0.25000  1.0000 1.3462144647
Mg  Mg2       1.0  0.99169  0.99169  0.75000  1.0000 1.3411487454
Mg  Mg3       1.0  0.00000  0.00000  0.50000  1.0000 1.3411487454
Mg  Mg4       1.0  0.00000  0.00000  0.00000  1.0000 1.3411487454
H   H1        1.0  0.12810  0.85670  0.45700  1.0000 0.3461902429
H   H2        1.0  0.85670  0.12810  0.04300  1.0000 0.3461902429
H   H3        1.0  0.87190  0.14330  0.54300  1.0000 0.3461902429
H   H4        1.0  0.14330  0.87190  0.95700  1.0000 0.3461902429
H   H5        1.0  0.16180  0.97580  0.42600  1.0000 0.325169823
H   H6        1.0  0.97580  0.16180  0.07400  1.0000 0.325169823
H   H7        1.0  0.83820  0.02420  0.57400  1.0000 0.3238326226
H   H8        1.0  0.02420  0.83820  0.92600  1.0000 0.325169823
H   H9        1.0  0.60780  0.14060  0.15270  1.0000 0.109744287
H   H10       1.0  0.14060  0.60780  0.34730  1.0000 0.109744287
H   H11       1.0  0.39220  0.85940  0.84730  1.0000 0.109744287
H   H12       1.0  0.85940  0.39220  0.65270  1.0000 0.109744287
H   H13       1.0  0.39070  0.15190  0.10010  1.0000 0.109744287
H   H14       1.0  0.15190  0.39070  0.39990  1.0000 0.109744287
H   H15       1.0  0.60930  0.84810  0.89990  1.0000 0.109744287
H   H16       1.0  0.84810  0.60930  0.60010  1.0000 0.109744287
H   H17       1.0  0.29240  0.79900  0.32860  1.0000 0.1213848776
H   H18       1.0  0.79900  0.29240  0.17140  1.0000 0.1213848776
H   H19       1.0  0.70760  0.20100  0.67140  1.0000 0.1213848776
H   H20       1.0  0.20100  0.70760  0.82860  1.0000 0.1213848776
H   H21       1.0  0.40470  0.62990  0.46290  1.0000 0.1045977179
H   H22       1.0  0.62990  0.40470  0.03710  1.0000 0.1045977179
H   H23       1.0  0.59530  0.37010  0.53710  1.0000 0.1045977179
H   H24       1.0  0.37010  0.59530  0.96290  1.0000 0.1045977179
H   H25       1.0  0.62290  0.61890  0.51820  1.0000 0.109744287
H   H26       1.0  0.61890  0.62290  0.98180  1.0000 0.109744287
H   H27       1.0  0.37710  0.38110  0.48180  1.0000 0.1045977179
H   H28       1.0  0.38110  0.37710  0.01820  1.0000 0.109744287
H   H29       1.0  0.72790  0.77570  0.43860  1.0000 0.1213848776
H   H30       1.0  0.77570  0.72790  0.06140  1.0000 0.1213848776
H   H31       1.0  0.27210  0.22430  0.56140  1.0000 0.1213848776
H   H32       1.0  0.22430  0.27210  0.93860  1.0000 0.1213848776
C   C1        1.0  0.77659  0.98895  0.31110  1.0000 0.6310162906
C   C2        1.0  0.98895  0.77659  0.18890  1.0000 0.6310162906
C   C3        1.0  0.22341  0.01105  0.68890  1.0000 0.6310162906
C   C4        1.0  0.01105  0.22341  0.81110  1.0000 0.6310162906
C   C5        1.0  0.63649  0.98399  0.27660  1.0000 -0.0587211654
C   C6        1.0  0.98399  0.63649  0.22340  1.0000 -0.0587211654
C   C7        1.0  0.36351  0.01601  0.72340  1.0000 -0.0587211654
C   C8        1.0  0.01601  0.36351  0.77660  1.0000 -0.0587211654
C   C9        1.0  0.56708  0.07968  0.19020  1.0000 -0.1185317907
C   C10       1.0  0.07968  0.56708  0.30980  1.0000 -0.1185317907
C   C11       1.0  0.43292  0.92032  0.80980  1.0000 -0.1185317907
C   C12       1.0  0.92032  0.43292  0.69020  1.0000 -0.1185317907
C   C13       1.0  0.43611  0.08621  0.15850  1.0000 -0.1057817425
C   C14       1.0  0.08621  0.43611  0.34150  1.0000 -0.1057817425
C   C15       1.0  0.56389  0.91379  0.84150  1.0000 -0.1057817425
C   C16       1.0  0.91379  0.56389  0.65850  1.0000 -0.1057817425
C   C17       1.0  0.37368  0.99842  0.21128  1.0000 -0.0587211654
C   C18       1.0  0.99842  0.37368  0.28872  1.0000 -0.0587211654
C   C19       1.0  0.62632  0.00158  0.78872  1.0000 -0.0587211654
C   C20       1.0  0.00158  0.62632  0.71128  1.0000 -0.0587211654
C   C21       1.0  0.44145  0.89439  0.29810  1.0000 0.0610972632
C   C22       1.0  0.89439  0.44145  0.20190  1.0000 0.0610972632
C   C23       1.0  0.55855  0.10561  0.70190  1.0000 0.0610972632
C   C24       1.0  0.10561  0.55855  0.79810  1.0000 0.0610972632
C   C25       1.0  0.37975  0.79515  0.34980  1.0000 -0.1355934527
C   C26       1.0  0.79515  0.37975  0.15020  1.0000 -0.1355934527
C   C27       1.0  0.62025  0.20485  0.65020  1.0000 -0.1355934527
C   C28       1.0  0.20485  0.62025  0.84980  1.0000 -0.1355934527
C   C29       1.0  0.44640  0.69460  0.42990  1.0000 -0.0943219505
C   C30       1.0  0.69460  0.44640  0.07010  1.0000 -0.0943219505
C   C31       1.0  0.55360  0.30540  0.57010  1.0000 -0.0943219505
C   C32       1.0  0.30540  0.55360  0.92990  1.0000 -0.0943219505
C   C33       1.0  0.57780  0.68800  0.46300  1.0000 -0.1017650619
C   C34       1.0  0.68800  0.57780  0.03700  1.0000 -0.1017650619
C   C35       1.0  0.42220  0.31200  0.53700  1.0000 -0.1017650619
C   C36       1.0  0.31200  0.42220  0.96300  1.0000 -0.1017650619
C   C37       1.0  0.64050  0.78170  0.41540  1.0000 -0.130535287
C   C38       1.0  0.78170  0.64050  0.08460  1.0000 -0.130535287
C   C39       1.0  0.35950  0.21830  0.58460  1.0000 -0.130535287
C   C40       1.0  0.21830  0.35950  0.91540  1.0000 -0.130535287
C   C41       1.0  0.57458  0.88800  0.33120  1.0000 0.0610972632
C   C42       1.0  0.88800  0.57458  0.16880  1.0000 0.0610972632
C   C43       1.0  0.42542  0.11200  0.66880  1.0000 0.0610972632
C   C44       1.0  0.11200  0.42542  0.83120  1.0000 0.0610972632
C   C45       1.0  0.23326  0.01040  0.17530  1.0000 0.6310162906
C   C46       1.0  0.01040  0.23326  0.32470  1.0000 0.6310162906
C   C47       1.0  0.76674  0.98960  0.82470  1.0000 0.6310162906
C   C48       1.0  0.98960  0.76674  0.67530  1.0000 0.6310162906
O   O1        1.0  0.82786  0.00384  0.24482  1.0000 -0.6408672021
O   O2        1.0  0.00384  0.82786  0.25518  1.0000 -0.6408672021
O   O3        1.0  0.17214  0.99616  0.75518  1.0000 -0.6408672021
O   O4        1.0  0.99616  0.17214  0.74482  1.0000 -0.6408672021
O   O5        1.0  0.83080  0.98206  0.40226  1.0000 -0.6342890348
O   O6        1.0  0.98206  0.83080  0.09774  1.0000 -0.6342890348
O   O7        1.0  0.16920  0.01794  0.59774  1.0000 -0.6342890348
O   O8        1.0  0.01794  0.16920  0.90226  1.0000 -0.6342890348
O   O9        1.0  0.17761  0.01173  0.08510  1.0000 -0.6408672021
O   O10       1.0  0.01173  0.17761  0.41490  1.0000 -0.6408672021
O   O11       1.0  0.82239  0.98827  0.91490  1.0000 -0.6408672021
O   O12       1.0  0.98827  0.82239  0.58510  1.0000 -0.6408672021
O   O13       1.0  0.18247  0.02053  0.23662  1.0000 -0.6408672021
O   O14       1.0  0.02053  0.18247  0.26338  1.0000 -0.6408672021
O   O15       1.0  0.81753  0.97947  0.76338  1.0000 -0.6408672021
O   O16       1.0  0.97947  0.81753  0.73662  1.0000 -0.6408672021
O   O17       1.0  0.10286  0.93392  0.42245  1.0000 -0.7121194835
O   O18       1.0  0.93392  0.10286  0.07755  1.0000 -0.7121194835
O   O19       1.0  0.89714  0.06608  0.57755  1.0000 -0.7121194835
O   O20       1.0  0.06608  0.89714  0.92245  1.0000 -0.7121194835
