# DDEC6 charges by PACMAN v1.1 (https://github.com/mtap-research/PACMAN-charge/)
data_2016[Co][nan]3[FSR]28
_chemical_formula_sum              "Co10 H40 C88 O40"
_cell_length_a       15.498
_cell_length_b       15.498
_cell_length_c       9.7049
_cell_angle_alpha    75.2361
_cell_angle_beta     104.764
_cell_angle_gamma    104.819

_symmetry_space_group_name_H-M    "P 1"
_symmetry_Int_Tables_number       1

loop_
  _symmetry_equiv_pos_as_xyz
  'x, y, z'

loop_
  _atom_site_type_symbol
  _atom_site_label
  _atom_site_symmetry_multiplicity
  _atom_site_fract_x
  _atom_site_fract_y
  _atom_site_fract_z
  _atom_site_occupancy
  _atom_site_charge
Co  Co1       1.0  0.00000  0.00000  0.00000  1.0000 1.090677872
Co  Co2       1.0  0.00000  0.00000  0.50000  1.0000 1.090677872
Co  Co3       1.0  0.89681  0.89681  0.25000  1.0000 1.0148692475
Co  Co4       1.0  0.10319  0.10319  0.75000  1.0000 1.0148692475
Co  Co5       1.0  0.79260  0.79732  0.49313  1.0000 1.090677872
Co  Co6       1.0  0.79732  0.79260  0.00687  1.0000 1.090677872
Co  Co7       1.0  0.20740  0.20268  0.50687  1.0000 1.090677872
Co  Co8       1.0  0.20268  0.20740  0.99313  1.0000 1.090677872
Co  Co9       1.0  0.68767  0.68767  0.75000  1.0000 1.0425232397
Co  Co10      1.0  0.31233  0.31233  0.25000  1.0000 1.0425232397
H   H1        1.0  0.14610  0.81850  0.24710  1.0000 0.1297664949
H   H2        1.0  0.81850  0.14610  0.25290  1.0000 0.1297664949
H   H3        1.0  0.85390  0.18150  0.75290  1.0000 0.1297664949
H   H4        1.0  0.18150  0.85390  0.74710  1.0000 0.1297664949
H   H5        1.0  0.39160  0.05940  0.23710  1.0000 0.1297664949
H   H6        1.0  0.05940  0.39160  0.26290  1.0000 0.1297664949
H   H7        1.0  0.60840  0.94060  0.76290  1.0000 0.1297664949
H   H8        1.0  0.94060  0.60840  0.73710  1.0000 0.1297664949
H   H9        1.0  0.15490  0.74110  0.07870  1.0000 0.121105604
H   H10       1.0  0.74110  0.15490  0.42130  1.0000 0.121105604
H   H11       1.0  0.84510  0.25890  0.92130  1.0000 0.121105604
H   H12       1.0  0.25890  0.84510  0.57870  1.0000 0.121105604
H   H13       1.0  0.15240  0.59740  0.05200  1.0000 0.121105604
H   H14       1.0  0.59740  0.15240  0.44800  1.0000 0.121105604
H   H15       1.0  0.84760  0.40260  0.94800  1.0000 0.121105604
H   H16       1.0  0.40260  0.84760  0.55200  1.0000 0.121105604
H   H17       1.0  0.39060  0.59760  0.33420  1.0000 0.1365715311
H   H18       1.0  0.59760  0.39060  0.16580  1.0000 0.1365715311
H   H19       1.0  0.60940  0.40240  0.66580  1.0000 0.1365715311
H   H20       1.0  0.40240  0.60940  0.83420  1.0000 0.1365715311
H   H21       1.0  0.39560  0.74540  0.35060  1.0000 0.1297664949
H   H22       1.0  0.74540  0.39560  0.14940  1.0000 0.1297664949
H   H23       1.0  0.60440  0.25460  0.64940  1.0000 0.1297664949
H   H24       1.0  0.25460  0.60440  0.85060  1.0000 0.1297664949
H   H25       1.0  0.39130  0.86150  0.01680  1.0000 0.121105604
H   H26       1.0  0.86150  0.39130  0.48320  1.0000 0.121105604
H   H27       1.0  0.60870  0.13850  0.98320  1.0000 0.121105604
H   H28       1.0  0.13850  0.60870  0.51680  1.0000 0.121105604
H   H29       1.0  0.52640  0.83300  0.99930  1.0000 0.121105604
H   H30       1.0  0.83300  0.52640  0.50070  1.0000 0.121105604
H   H31       1.0  0.47360  0.16700  0.00070  1.0000 0.121105604
H   H32       1.0  0.16700  0.47360  0.49930  1.0000 0.121105604
H   H33       1.0  0.65720  0.95280  0.33770  1.0000 0.1297664949
H   H34       1.0  0.95280  0.65720  0.16230  1.0000 0.1297664949
H   H35       1.0  0.34280  0.04720  0.66230  1.0000 0.1297664949
H   H36       1.0  0.04720  0.34280  0.83770  1.0000 0.1297664949
H   H37       1.0  0.52170  0.97910  0.35590  1.0000 0.121105604
H   H38       1.0  0.97910  0.52170  0.14410  1.0000 0.121105604
H   H39       1.0  0.47830  0.02090  0.64410  1.0000 0.121105604
H   H40       1.0  0.02090  0.47830  0.85590  1.0000 0.121105604
C   C1        1.0  0.19130  0.94530  0.28500  1.0000 -0.0199929979
C   C2        1.0  0.94530  0.19130  0.21500  1.0000 -0.0199929979
C   C3        1.0  0.80870  0.05470  0.71500  1.0000 -0.0199929979
C   C4        1.0  0.05470  0.80870  0.78500  1.0000 -0.0199929979
C   C5        1.0  0.19730  0.86550  0.25200  1.0000 -0.1404461368
C   C6        1.0  0.86550  0.19730  0.24800  1.0000 -0.1404461368
C   C7        1.0  0.80270  0.13450  0.74800  1.0000 -0.1404461368
C   C8        1.0  0.13450  0.80270  0.75200  1.0000 -0.1404461368
C   C9        1.0  0.27660  0.85260  0.22580  1.0000 0.032518099
C   C10       1.0  0.85260  0.27660  0.27420  1.0000 0.032518099
C   C11       1.0  0.72340  0.14740  0.77420  1.0000 0.032518099
C   C12       1.0  0.14740  0.72340  0.72580  1.0000 0.032518099
C   C13       1.0  0.35250  0.92710  0.22100  1.0000 0.032518099
C   C14       1.0  0.92710  0.35250  0.27900  1.0000 0.032518099
C   C15       1.0  0.64750  0.07290  0.77900  1.0000 0.032518099
C   C16       1.0  0.07290  0.64750  0.72100  1.0000 0.032518099
C   C17       1.0  0.34380  0.00920  0.24610  1.0000 -0.1404461368
C   C18       1.0  0.00920  0.34380  0.25390  1.0000 -0.1404461368
C   C19       1.0  0.65620  0.99080  0.75390  1.0000 -0.1404461368
C   C20       1.0  0.99080  0.65620  0.74610  1.0000 -0.1404461368
C   C21       1.0  0.26640  0.01860  0.28420  1.0000 -0.0199929979
C   C22       1.0  0.01860  0.26640  0.21580  1.0000 -0.0199929979
C   C23       1.0  0.73360  0.98140  0.71580  1.0000 -0.0199929979
C   C24       1.0  0.98140  0.73360  0.78420  1.0000 -0.0199929979
C   C25       1.0  0.26280  0.10800  0.31290  1.0000 0.5990261581
C   C26       1.0  0.10800  0.26280  0.18710  1.0000 0.5990261581
C   C27       1.0  0.73720  0.89200  0.68710  1.0000 0.5990261581
C   C28       1.0  0.89200  0.73720  0.81290  1.0000 0.5990261581
C   C29       1.0  0.10270  0.94710  0.31950  1.0000 0.5990261581
C   C30       1.0  0.94710  0.10270  0.18050  1.0000 0.5990261581
C   C31       1.0  0.89730  0.05290  0.68050  1.0000 0.5990261581
C   C32       1.0  0.05290  0.89730  0.81950  1.0000 0.5990261581
C   C33       1.0  0.27700  0.75860  0.21090  1.0000 0.06655866
C   C34       1.0  0.75860  0.27700  0.28910  1.0000 0.06655866
C   C35       1.0  0.72300  0.24140  0.78910  1.0000 0.06655866
C   C36       1.0  0.24140  0.72300  0.71090  1.0000 0.06655866
C   C37       1.0  0.20380  0.71320  0.12710  1.0000 -0.1458454198
C   C38       1.0  0.71320  0.20380  0.37290  1.0000 -0.1458454198
C   C39       1.0  0.79620  0.28680  0.87290  1.0000 -0.1458454198
C   C40       1.0  0.28680  0.79620  0.62710  1.0000 -0.1458454198
C   C41       1.0  0.20140  0.62660  0.11320  1.0000 -0.1085826411
C   C42       1.0  0.62660  0.20140  0.38680  1.0000 -0.1085826411
C   C43       1.0  0.79860  0.37340  0.88680  1.0000 -0.1085826411
C   C44       1.0  0.37340  0.79860  0.61320  1.0000 -0.1085826411
C   C45       1.0  0.27150  0.58230  0.18950  1.0000 -0.0299119251
C   C46       1.0  0.58230  0.27150  0.31050  1.0000 -0.0299119251
C   C47       1.0  0.72850  0.41770  0.81050  1.0000 -0.0299119251
C   C48       1.0  0.41770  0.72850  0.68950  1.0000 -0.0299119251
C   C49       1.0  0.34380  0.62700  0.28000  1.0000 -0.0877417503
C   C50       1.0  0.62700  0.34380  0.22000  1.0000 -0.0877417503
C   C51       1.0  0.65620  0.37300  0.72000  1.0000 -0.0877417503
C   C52       1.0  0.37300  0.65620  0.78000  1.0000 -0.0877417503
C   C53       1.0  0.34670  0.71550  0.29020  1.0000 -0.1279677106
C   C54       1.0  0.71550  0.34670  0.20980  1.0000 -0.1279677106
C   C55       1.0  0.65330  0.28450  0.70980  1.0000 -0.1279677106
C   C56       1.0  0.28450  0.65330  0.79020  1.0000 -0.1279677106
C   C57       1.0  0.44110  0.91890  0.19380  1.0000 0.06655866
C   C58       1.0  0.91890  0.44110  0.30620  1.0000 0.06655866
C   C59       1.0  0.55890  0.08110  0.80620  1.0000 0.06655866
C   C60       1.0  0.08110  0.55890  0.69380  1.0000 0.06655866
C   C61       1.0  0.44440  0.87780  0.08370  1.0000 -0.1458454198
C   C62       1.0  0.87780  0.44440  0.41630  1.0000 -0.1458454198
C   C63       1.0  0.55560  0.12220  0.91630  1.0000 -0.1458454198
C   C64       1.0  0.12220  0.55560  0.58370  1.0000 -0.1458454198
C   C65       1.0  0.52540  0.86080  0.07300  1.0000 -0.0877417503
C   C66       1.0  0.86080  0.52540  0.42700  1.0000 -0.0877417503
C   C67       1.0  0.47460  0.13920  0.92700  1.0000 -0.0877417503
C   C68       1.0  0.13920  0.47460  0.57300  1.0000 -0.0877417503
C   C69       1.0  0.60600  0.88520  0.17220  1.0000 -0.0299119251
C   C70       1.0  0.88520  0.60600  0.32780  1.0000 -0.0299119251
C   C71       1.0  0.39400  0.11480  0.82780  1.0000 -0.0299119251
C   C72       1.0  0.11480  0.39400  0.67220  1.0000 -0.0299119251
C   C73       1.0  0.60360  0.93220  0.27540  1.0000 -0.0718418966
C   C74       1.0  0.93220  0.60360  0.22460  1.0000 -0.0718418966
C   C75       1.0  0.39640  0.06780  0.72460  1.0000 -0.0718418966
C   C76       1.0  0.06780  0.39640  0.77540  1.0000 -0.0718418966
C   C77       1.0  0.52220  0.94820  0.28580  1.0000 -0.1279677106
C   C78       1.0  0.94820  0.52220  0.21420  1.0000 -0.1279677106
C   C79       1.0  0.47780  0.05180  0.71420  1.0000 -0.1279677106
C   C80       1.0  0.05180  0.47780  0.78580  1.0000 -0.1279677106
C   C81       1.0  0.26990  0.49050  0.16600  1.0000 0.5506427036
C   C82       1.0  0.49050  0.26990  0.33400  1.0000 0.5506427036
C   C83       1.0  0.73010  0.50950  0.83400  1.0000 0.5506427036
C   C84       1.0  0.50950  0.73010  0.66600  1.0000 0.5506427036
C   C85       1.0  0.69090  0.85950  0.16820  1.0000 0.5990261581
C   C86       1.0  0.85950  0.69090  0.33180  1.0000 0.5990261581
C   C87       1.0  0.30910  0.14050  0.83180  1.0000 0.5990261581
C   C88       1.0  0.14050  0.30910  0.66820  1.0000 0.5990261581
O   O1        1.0  0.03116  0.92616  0.22240  1.0000 -0.5380879743
O   O2        1.0  0.92616  0.03116  0.27760  1.0000 -0.5380879743
O   O3        1.0  0.96884  0.07384  0.77760  1.0000 -0.5380879743
O   O4        1.0  0.07384  0.96884  0.72240  1.0000 -0.5380879743
O   O5        1.0  0.10091  0.96275  0.43700  1.0000 -0.4410359292
O   O6        1.0  0.96275  0.10091  0.06300  1.0000 -0.4410359292
O   O7        1.0  0.89909  0.03725  0.56300  1.0000 -0.4410359292
O   O8        1.0  0.03725  0.89909  0.93700  1.0000 -0.4410359292
O   O9        1.0  0.24397  0.10891  0.42850  1.0000 -0.4641643121
O   O10       1.0  0.10891  0.24397  0.07150  1.0000 -0.4641643121
O   O11       1.0  0.75603  0.89109  0.57150  1.0000 -0.4641643121
O   O12       1.0  0.89109  0.75603  0.92850  1.0000 -0.4641643121
O   O13       1.0  0.28198  0.17934  0.21430  1.0000 -0.5624464779
O   O14       1.0  0.17934  0.28198  0.28570  1.0000 -0.5624464779
O   O15       1.0  0.71802  0.82066  0.78570  1.0000 -0.5624464779
O   O16       1.0  0.82066  0.71802  0.71430  1.0000 -0.5624464779
O   O17       1.0  0.21600  0.46420  0.05660  1.0000 -0.4978135778
O   O18       1.0  0.46420  0.21600  0.44340  1.0000 -0.4978135778
O   O19       1.0  0.78400  0.53580  0.94340  1.0000 -0.4978135778
O   O20       1.0  0.53580  0.78400  0.55660  1.0000 -0.4978135778
O   O21       1.0  0.32345  0.44395  0.25620  1.0000 -0.5077740802
O   O22       1.0  0.44395  0.32345  0.24380  1.0000 -0.5077740802
O   O23       1.0  0.67655  0.55605  0.74380  1.0000 -0.5077740802
O   O24       1.0  0.55605  0.67655  0.75620  1.0000 -0.5077740802
O   O25       1.0  0.69104  0.82056  0.07030  1.0000 -0.4883334591
O   O26       1.0  0.82056  0.69104  0.42970  1.0000 -0.4883334591
O   O27       1.0  0.30896  0.17944  0.92970  1.0000 -0.4883334591
O   O28       1.0  0.17944  0.30896  0.57030  1.0000 -0.4883334591
O   O29       1.0  0.76203  0.87751  0.26930  1.0000 -0.5624464779
O   O30       1.0  0.87751  0.76203  0.23070  1.0000 -0.5624464779
O   O31       1.0  0.23797  0.12249  0.73070  1.0000 -0.5624464779
O   O32       1.0  0.12249  0.23797  0.76930  1.0000 -0.5624464779
O   O33       1.0  0.92179  0.87099  0.47970  1.0000 -0.7559827371
O   O34       1.0  0.87099  0.92179  0.02030  1.0000 -0.7559827371
O   O35       1.0  0.07821  0.12901  0.52030  1.0000 -0.7559827371
O   O36       1.0  0.12901  0.07821  0.97970  1.0000 -0.7559827371
O   O37       1.0  0.65969  0.72353  0.50680  1.0000 -0.3694318338
O   O38       1.0  0.72353  0.65969  0.99320  1.0000 -0.3694318338
O   O39       1.0  0.34031  0.27647  0.49320  1.0000 -0.3694318338
O   O40       1.0  0.27647  0.34031  0.00680  1.0000 -0.3694318338
