# DDEC6 charges by PACMAN v1.1 (https://github.com/mtap-research/PACMAN-charge/)
data_2016[Tb][dia]3[FSR]1
_chemical_formula_sum              "Tb4 P4 H36 C32 N4 O36"
_cell_length_a       9.7284
_cell_length_b       10.4717
_cell_length_c       16.4594
_cell_angle_alpha    90
_cell_angle_beta     112.511
_cell_angle_gamma    90

_symmetry_space_group_name_H-M    "P 1"
_symmetry_Int_Tables_number       1

loop_
  _symmetry_equiv_pos_as_xyz
  'x, y, z'

loop_
  _atom_site_type_symbol
  _atom_site_label
  _atom_site_symmetry_multiplicity
  _atom_site_fract_x
  _atom_site_fract_y
  _atom_site_fract_z
  _atom_site_occupancy
  _atom_site_charge
Tb  Tb1       1.0  0.82127  0.10748  0.60686  1.0000 2.059869081
Tb  Tb2       1.0  0.17873  0.60748  0.89314  1.0000 2.059869081
Tb  Tb3       1.0  0.17873  0.89252  0.39314  1.0000 2.059869081
Tb  Tb4       1.0  0.82127  0.39252  0.10686  1.0000 2.059869081
P   P1        1.0  0.92511  0.85221  0.76894  1.0000 1.3856656852
P   P2        1.0  0.07489  0.35221  0.73106  1.0000 1.3856656852
P   P3        1.0  0.07489  0.14779  0.23106  1.0000 1.3856656852
P   P4        1.0  0.92511  0.64779  0.26894  1.0000 1.3856656852
H   H1        1.0  0.39130  0.88600  0.06770  1.0000 0.1419336947
H   H2        1.0  0.60870  0.38600  0.43230  1.0000 0.1419336947
H   H3        1.0  0.60870  0.11400  0.93230  1.0000 0.1419336947
H   H4        1.0  0.39130  0.61400  0.56770  1.0000 0.1419336947
H   H5        1.0  0.45010  0.10010  0.06630  1.0000 0.1327049437
H   H6        1.0  0.54990  0.60010  0.43370  1.0000 0.1327049437
H   H7        1.0  0.54990  0.89990  0.93370  1.0000 0.1327049437
H   H8        1.0  0.45010  0.39990  0.56630  1.0000 0.1327049437
H   H9        1.0  0.27630  0.23760  0.97500  1.0000 0.1419336947
H   H10       1.0  0.72370  0.73760  0.52500  1.0000 0.1419336947
H   H11       1.0  0.72370  0.76240  0.02500  1.0000 0.1419336947
H   H12       1.0  0.27630  0.26240  0.47500  1.0000 0.1419336947
H   H13       1.0  0.04440  0.16280  0.88610  1.0000 0.1600388757
H   H14       1.0  0.95560  0.66280  0.61390  1.0000 0.1600388757
H   H15       1.0  0.95560  0.83720  0.11390  1.0000 0.1600388757
H   H16       1.0  0.04440  0.33720  0.38610  1.0000 0.1600388757
H   H17       1.0  0.90710  0.86030  0.90490  1.0000 0.1785225721
H   H18       1.0  0.09290  0.36030  0.59510  1.0000 0.1785225721
H   H19       1.0  0.09290  0.13970  0.09510  1.0000 0.1785225721
H   H20       1.0  0.90710  0.63970  0.40490  1.0000 0.1785225721
H   H21       1.0  0.85790  0.99130  0.85640  1.0000 0.1600388757
H   H22       1.0  0.14210  0.49130  0.64360  1.0000 0.1600388757
H   H23       1.0  0.14210  0.00870  0.14360  1.0000 0.1600388757
H   H24       1.0  0.85790  0.50870  0.35640  1.0000 0.1600388757
H   H25       1.0  0.71330  0.83090  0.68520  1.0000 0.3771153095
H   H26       1.0  0.28670  0.33090  0.81480  1.0000 0.3771153095
H   H27       1.0  0.28670  0.16910  0.31480  1.0000 0.3771153095
H   H28       1.0  0.71330  0.66910  0.18520  1.0000 0.3771153095
H   H29       1.0  0.72030  0.22490  0.72300  1.0000 0.3971055152
H   H30       1.0  0.27970  0.72490  0.77700  1.0000 0.3971055152
H   H31       1.0  0.27970  0.77510  0.27700  1.0000 0.3971055152
H   H32       1.0  0.72030  0.27510  0.22300  1.0000 0.3971055152
H   H33       1.0  0.60550  0.12930  0.68940  1.0000 0.3971055152
H   H34       1.0  0.39450  0.62930  0.81060  1.0000 0.3971055152
H   H35       1.0  0.39450  0.87070  0.31060  1.0000 0.3971055152
H   H36       1.0  0.60550  0.37070  0.18940  1.0000 0.3971055152
C   C1        1.0  0.32160  0.94270  0.03090  1.0000 -0.0554865646
C   C2        1.0  0.67840  0.44270  0.46910  1.0000 -0.0492177156
C   C3        1.0  0.67840  0.05730  0.96910  1.0000 -0.0554865646
C   C4        1.0  0.32160  0.55730  0.53090  1.0000 -0.0554865646
C   C5        1.0  0.35660  0.07020  0.03010  1.0000 -0.1368270887
C   C6        1.0  0.64340  0.57020  0.46990  1.0000 -0.1368270887
C   C7        1.0  0.64340  0.92980  0.96990  1.0000 -0.1368270887
C   C8        1.0  0.35660  0.42980  0.53010  1.0000 -0.1368270887
C   C9        1.0  0.25360  0.15160  0.97620  1.0000 -0.0492177156
C   C10       1.0  0.74640  0.65160  0.52380  1.0000 -0.0492177156
C   C11       1.0  0.74640  0.84840  0.02380  1.0000 -0.0492177156
C   C12       1.0  0.25360  0.34840  0.47620  1.0000 -0.0492177156
C   C13       1.0  0.11470  0.10660  0.92300  1.0000 -0.1696427462
C   C14       1.0  0.88530  0.60660  0.57700  1.0000 -0.1696427462
C   C15       1.0  0.88530  0.89340  0.07700  1.0000 -0.1696427462
C   C16       1.0  0.11470  0.39340  0.42300  1.0000 -0.1696427462
C   C17       1.0  0.07930  0.97940  0.92400  1.0000 0.199496005
C   C18       1.0  0.92070  0.47940  0.57600  1.0000 0.199496005
C   C19       1.0  0.92070  0.02060  0.07600  1.0000 0.199496005
C   C20       1.0  0.07930  0.52060  0.42400  1.0000 0.199496005
C   C21       1.0  0.93230  0.92440  0.87030  1.0000 -0.6006945965
C   C22       1.0  0.06770  0.42440  0.62970  1.0000 -0.6006945965
C   C23       1.0  0.06770  0.07560  0.12970  1.0000 -0.6006945965
C   C24       1.0  0.93230  0.57560  0.37030  1.0000 -0.6006945965
C   C25       1.0  0.07160  0.03170  0.53270  1.0000 0.5076781737
C   C26       1.0  0.92840  0.53170  0.96730  1.0000 0.5076781737
C   C27       1.0  0.92840  0.96830  0.46730  1.0000 0.5076781737
C   C28       1.0  0.07160  0.46830  0.03270  1.0000 0.5076781737
C   C29       1.0  0.48230  0.06130  0.47260  1.0000 0.5076781737
C   C30       1.0  0.51770  0.56130  0.02740  1.0000 0.5076781737
C   C31       1.0  0.51770  0.93870  0.52740  1.0000 0.5076781737
C   C32       1.0  0.48230  0.43870  0.97260  1.0000 0.5076781737
N   N1        1.0  0.18540  0.90060  0.97780  1.0000 0.2723241451
N   N2        1.0  0.81460  0.40060  0.52220  1.0000 0.2723241451
N   N3        1.0  0.81460  0.09940  0.02220  1.0000 0.2723241451
N   N4        1.0  0.18540  0.59940  0.47780  1.0000 0.2723241451
O   O1        1.0  0.94000  0.95480  0.70916  1.0000 -0.8729244766
O   O2        1.0  0.06000  0.45480  0.79084  1.0000 -0.8645079431
O   O3        1.0  0.06000  0.04520  0.29084  1.0000 -0.8645079431
O   O4        1.0  0.94000  0.54520  0.20916  1.0000 -0.8645079431
O   O5        1.0  0.76510  0.79080  0.72900  1.0000 -0.6006945965
O   O6        1.0  0.23490  0.29080  0.77100  1.0000 -0.6006945965
O   O7        1.0  0.23490  0.20920  0.27100  1.0000 -0.6006945965
O   O8        1.0  0.76510  0.70920  0.22900  1.0000 -0.6006945965
O   O9        1.0  0.04040  0.74990  0.79007  1.0000 -0.8729244766
O   O10       1.0  0.95960  0.24990  0.70993  1.0000 -0.8729244766
O   O11       1.0  0.95960  0.25010  0.20993  1.0000 -0.8729244766
O   O12       1.0  0.04040  0.75010  0.29007  1.0000 -0.8729244766
O   O13       1.0  0.15420  0.77790  0.98224  1.0000 -0.5878730563
O   O14       1.0  0.84580  0.27790  0.51776  1.0000 -0.5878730563
O   O15       1.0  0.84580  0.22210  0.01776  1.0000 -0.5878730563
O   O16       1.0  0.15420  0.72210  0.48224  1.0000 -0.5878730563
O   O17       1.0  0.18570  0.02020  0.51530  1.0000 -0.6099059132
O   O18       1.0  0.81430  0.52020  0.98470  1.0000 -0.6099059132
O   O19       1.0  0.81430  0.97980  0.48470  1.0000 -0.6099059132
O   O20       1.0  0.18570  0.47980  0.01530  1.0000 -0.6099059132
O   O21       1.0  0.06260  0.08770  0.59669  1.0000 -0.5437988636
O   O22       1.0  0.93740  0.58770  0.90331  1.0000 -0.5437988636
O   O23       1.0  0.93740  0.91230  0.40331  1.0000 -0.5437988636
O   O24       1.0  0.06260  0.41230  0.09669  1.0000 -0.5437988636
O   O25       1.0  0.57620  0.14870  0.49480  1.0000 -0.5878730563
O   O26       1.0  0.42380  0.64870  0.00520  1.0000 -0.5878730563
O   O27       1.0  0.42380  0.85130  0.50520  1.0000 -0.5878730563
O   O28       1.0  0.57620  0.35130  0.99480  1.0000 -0.5878730563
O   O29       1.0  0.35930  0.06330  0.40830  1.0000 -0.6099059132
O   O30       1.0  0.64070  0.56330  0.09170  1.0000 -0.6099059132
O   O31       1.0  0.64070  0.93670  0.59170  1.0000 -0.6099059132
O   O32       1.0  0.35930  0.43670  0.90830  1.0000 -0.6099059132
O   O33       1.0  0.68350  0.17030  0.69190  1.0000 -0.729320809
O   O34       1.0  0.31650  0.67030  0.80810  1.0000 -0.729320809
O   O35       1.0  0.31650  0.82970  0.30810  1.0000 -0.729320809
O   O36       1.0  0.68350  0.32970  0.19190  1.0000 -0.729320809
