# DDEC6 charges by PACMAN v1.1 (https://github.com/mtap-research/PACMAN-charge/)
data_2016[TbCu][nan]3[FSR]1
_chemical_formula_sum              "Tb2 Cu8 H56 C72 I8 N6 O16"
_cell_length_a       9.605
_cell_length_b       16.769
_cell_length_c       21.155
_cell_angle_alpha    104.16
_cell_angle_beta     100.31
_cell_angle_gamma    97.16

_symmetry_space_group_name_H-M    "P 1"
_symmetry_Int_Tables_number       1

loop_
  _symmetry_equiv_pos_as_xyz
  'x, y, z'

loop_
  _atom_site_type_symbol
  _atom_site_label
  _atom_site_symmetry_multiplicity
  _atom_site_fract_x
  _atom_site_fract_y
  _atom_site_fract_z
  _atom_site_occupancy
  _atom_site_charge
Tb  Tb1       1.0  0.27684  0.51230  0.99710  1.0000 2.1762477513
Tb  Tb2       1.0  0.72316  0.48770  0.00290  1.0000 2.1762477513
Cu  Cu1       1.0  0.01403  0.94245  0.54044  1.0000 0.1428855787
Cu  Cu2       1.0  0.98597  0.05755  0.45956  1.0000 0.1428855787
Cu  Cu3       1.0  0.75521  0.82692  0.50169  1.0000 0.148964418
Cu  Cu4       1.0  0.24479  0.17308  0.49831  1.0000 0.148964418
Cu  Cu5       1.0  0.82035  0.94494  0.62243  1.0000 0.1579081173
Cu  Cu6       1.0  0.17965  0.05506  0.37757  1.0000 0.1579081173
Cu  Cu7       1.0  0.96195  0.81770  0.59979  1.0000 0.1323799137
Cu  Cu8       1.0  0.03805  0.18230  0.40021  1.0000 0.1323799137
H   H1        1.0  0.44600  0.83150  0.46700  1.0000 0.1104766274
H   H2        1.0  0.55400  0.16850  0.53300  1.0000 0.1104766274
H   H3        1.0  0.23920  0.75800  0.39660  1.0000 0.1323799137
H   H4        1.0  0.76080  0.24200  0.60340  1.0000 0.1323799137
H   H5        1.0  0.46720  0.60130  0.30550  1.0000 0.1323799137
H   H6        1.0  0.53280  0.39870  0.69450  1.0000 0.1323799137
H   H7        1.0  0.66830  0.67800  0.38170  1.0000 0.0996882971
H   H8        1.0  0.33170  0.32200  0.61830  1.0000 0.0996882971
H   H9        1.0  0.26960  0.60670  0.21040  1.0000 0.1200691912
H   H10       1.0  0.73040  0.39330  0.78960  1.0000 0.1200691912
H   H11       1.0  0.85460  0.49780  0.17650  1.0000 0.1200691912
H   H12       1.0  0.14540  0.50220  0.82350  1.0000 0.1200691912
H   H13       1.0  0.86000  0.54260  0.28840  1.0000 0.1104766274
H   H14       1.0  0.14000  0.45740  0.71160  1.0000 0.1104766274
H   H15       1.0  0.06760  0.62170  0.36220  1.0000 0.1200691912
H   H16       1.0  0.93240  0.37830  0.63780  1.0000 0.1200691912
H   H17       1.0  0.86690  0.11640  0.72590  1.0000 0.1104766274
H   H18       1.0  0.13310  0.88360  0.27410  1.0000 0.1104766274
H   H19       1.0  0.72940  0.20920  0.76870  1.0000 0.1200691912
H   H20       1.0  0.27060  0.79080  0.23130  1.0000 0.1200691912
H   H21       1.0  0.38010  0.04560  0.65790  1.0000 0.1200691912
H   H22       1.0  0.61990  0.95440  0.34210  1.0000 0.1200691912
H   H23       1.0  0.52470  0.95340  0.62460  1.0000 0.0996882971
H   H24       1.0  0.47530  0.04660  0.37540  1.0000 0.0996882971
H   H25       1.0  0.56920  0.26150  0.83070  1.0000 0.1104766274
H   H26       1.0  0.43080  0.73850  0.16930  1.0000 0.1104766274
H   H27       1.0  0.18250  0.33060  0.80550  1.0000 0.1104766274
H   H28       1.0  0.81750  0.66940  0.19450  1.0000 0.1104766274
H   H29       1.0  0.11500  0.23340  0.70000  1.0000 0.1104766274
H   H30       1.0  0.88500  0.76660  0.30000  1.0000 0.1104766274
H   H31       1.0  0.27130  0.14990  0.66220  1.0000 0.1104766274
H   H32       1.0  0.72870  0.85010  0.33780  1.0000 0.1104766274
H   H33       1.0  0.26310  0.80740  0.61930  1.0000 0.0996882971
H   H34       1.0  0.73690  0.19260  0.38070  1.0000 0.0996882971
H   H35       1.0  0.43500  0.74760  0.67310  1.0000 0.1323799137
H   H36       1.0  0.56500  0.25240  0.32690  1.0000 0.1323799137
H   H37       1.0  0.12750  0.62550  0.73220  1.0000 0.1200691912
H   H38       1.0  0.87250  0.37450  0.26780  1.0000 0.1200691912
H   H39       1.0  0.96440  0.68890  0.67790  1.0000 0.1104766274
H   H40       1.0  0.03560  0.31110  0.32210  1.0000 0.1104766274
H   H41       1.0  0.31450  0.63860  0.82430  1.0000 0.1200691912
H   H42       1.0  0.68550  0.36140  0.17570  1.0000 0.1200691912
H   H43       1.0  0.69110  0.55720  0.84340  1.0000 0.1200691912
H   H44       1.0  0.30890  0.44280  0.15660  1.0000 0.1200691912
H   H45       1.0  0.71720  0.58210  0.74190  1.0000 0.1104766274
H   H46       1.0  0.28280  0.41790  0.25810  1.0000 0.1104766274
H   H47       1.0  0.54340  0.63420  0.68230  1.0000 0.1200691912
H   H48       1.0  0.45660  0.36580  0.31770  1.0000 0.1200691912
H   H49       1.0  0.03300  0.36900  0.00900  1.0000 0.3990841265
H   H50       1.0  0.96700  0.63100  0.99100  1.0000 0.3990841265
H   H51       1.0  0.10600  0.32200  0.95600  1.0000 0.4108210559
H   H52       1.0  0.89400  0.67800  0.04400  1.0000 0.4108210559
H   H53       1.0  0.23000  0.70430  0.05950  1.0000 0.4108210559
H   H54       1.0  0.77000  0.29570  0.94050  1.0000 0.4108210559
H   H55       1.0  0.20500  0.69500  0.98170  1.0000 0.4108210559
H   H56       1.0  0.79500  0.30500  0.01830  1.0000 0.4108210559
C   C1        1.0  0.45010  0.78360  0.43460  1.0000 0.0699064675
C   C2        1.0  0.54990  0.21640  0.56540  1.0000 0.0699064675
C   C3        1.0  0.32560  0.74020  0.39190  1.0000 -0.1891576741
C   C4        1.0  0.67440  0.25980  0.60810  1.0000 -0.1891576741
C   C5        1.0  0.32580  0.67020  0.34170  1.0000 0.1104766274
C   C6        1.0  0.67420  0.32980  0.65830  1.0000 0.1104766274
C   C7        1.0  0.45930  0.64760  0.33850  1.0000 -0.1998856646
C   C8        1.0  0.54070  0.35240  0.66150  1.0000 -0.1998856646
C   C9        1.0  0.58020  0.69440  0.38470  1.0000 0.0806568618
C   C10       1.0  0.41980  0.30560  0.61530  1.0000 0.0806568618
C   C11       1.0  0.19180  0.62100  0.29400  1.0000 0.0587029736
C   C12       1.0  0.80820  0.37900  0.70600  1.0000 0.0587029736
C   C13       1.0  0.18770  0.59420  0.22630  1.0000 -0.1673773571
C   C14       1.0  0.81230  0.40580  0.77370  1.0000 -0.1673773571
C   C15       1.0  0.06110  0.54840  0.18140  1.0000 -0.0263337941
C   C16       1.0  0.93890  0.45160  0.81860  1.0000 -0.0263337941
C   C17       1.0  0.93850  0.52900  0.20580  1.0000 -0.1226172038
C   C18       1.0  0.06150  0.47100  0.79420  1.0000 -0.1226172038
C   C19       1.0  0.94170  0.55570  0.27250  1.0000 -0.0992319044
C   C20       1.0  0.05830  0.44430  0.72750  1.0000 -0.0992319044
C   C21       1.0  0.06700  0.60260  0.31700  1.0000 -0.1409431678
C   C22       1.0  0.93300  0.39740  0.68300  1.0000 -0.1409431678
C   C23       1.0  0.05670  0.52240  0.10790  1.0000 0.6344895716
C   C24       1.0  0.94330  0.47760  0.89210  1.0000 0.6344895716
C   C25       1.0  0.76730  0.10170  0.71280  1.0000 0.0806568618
C   C26       1.0  0.23270  0.89830  0.28720  1.0000 0.0806568618
C   C27       1.0  0.68490  0.15830  0.73840  1.0000 -0.2107224707
C   C28       1.0  0.31510  0.84170  0.26160  1.0000 -0.2107224707
C   C29       1.0  0.53470  0.13940  0.71910  1.0000 0.1200691912
C   C30       1.0  0.46530  0.86060  0.28090  1.0000 0.1200691912
C   C31       1.0  0.47900  0.06100  0.67380  1.0000 -0.1891576741
C   C32       1.0  0.52100  0.93900  0.32620  1.0000 -0.1891576741
C   C33       1.0  0.56650  0.00630  0.65230  1.0000 0.0806568618
C   C34       1.0  0.43350  0.99370  0.34770  1.0000 0.0806568618
C   C35       1.0  0.43900  0.19660  0.74330  1.0000 0.0536686703
C   C36       1.0  0.56100  0.80340  0.25670  1.0000 0.0536686703
C   C37       1.0  0.47760  0.25530  0.80460  1.0000 -0.1532674823
C   C38       1.0  0.52240  0.74470  0.19540  1.0000 -0.1532674823
C   C39       1.0  0.38210  0.30590  0.82850  1.0000 -0.0364181418
C   C40       1.0  0.61790  0.69410  0.17150  1.0000 -0.0364181418
C   C41       1.0  0.24670  0.29750  0.78990  1.0000 -0.1073425171
C   C42       1.0  0.75330  0.70250  0.21010  1.0000 -0.1073425171
C   C43       1.0  0.20580  0.23850  0.72640  1.0000 -0.0992319044
C   C44       1.0  0.79420  0.76150  0.27360  1.0000 -0.0992319044
C   C45       1.0  0.29940  0.18890  0.70380  1.0000 -0.1226172038
C   C46       1.0  0.70060  0.81110  0.29620  1.0000 -0.1226172038
C   C47       1.0  0.42490  0.36890  0.89500  1.0000 0.6419778819
C   C48       1.0  0.57510  0.63110  0.10500  1.0000 0.6419778819
C   C49       1.0  0.23440  0.76990  0.64240  1.0000 0.0996882971
C   C50       1.0  0.76560  0.23010  0.35760  1.0000 0.0996882971
C   C51       1.0  0.33930  0.73420  0.67520  1.0000 -0.1803899576
C   C52       1.0  0.66070  0.26580  0.32480  1.0000 -0.1803899576
C   C53       1.0  0.30200  0.68030  0.70980  1.0000 0.1104766274
C   C54       1.0  0.69800  0.31970  0.29020  1.0000 0.1104766274
C   C55       1.0  0.15910  0.66300  0.70970  1.0000 -0.1998856646
C   C56       1.0  0.84090  0.33700  0.29030  1.0000 -0.1998856646
C   C57       1.0  0.06070  0.70080  0.67640  1.0000 0.0806568618
C   C58       1.0  0.93930  0.29920  0.32360  1.0000 0.0806568618
C   C59       1.0  0.41220  0.64370  0.74730  1.0000 0.0699064675
C   C60       1.0  0.58780  0.35630  0.25270  1.0000 0.0699064675
C   C61       1.0  0.39580  0.62740  0.80800  1.0000 -0.1550035123
C   C62       1.0  0.60420  0.37260  0.19200  1.0000 -0.1550035123
C   C63       1.0  0.49950  0.59490  0.84390  1.0000 -0.0246078466
C   C64       1.0  0.50050  0.40510  0.15610  1.0000 -0.0246078466
C   C65       1.0  0.62050  0.57830  0.81950  1.0000 -0.0992319044
C   C66       1.0  0.37950  0.42170  0.18050  1.0000 -0.0992319044
C   C67       1.0  0.63620  0.59350  0.75840  1.0000 -0.0992319044
C   C68       1.0  0.36380  0.40650  0.24160  1.0000 -0.0992319044
C   C69       1.0  0.53260  0.62510  0.72300  1.0000 -0.1409431678
C   C70       1.0  0.46740  0.37490  0.27700  1.0000 -0.1409431678
C   C71       1.0  0.47720  0.57510  0.90700  1.0000 0.6419778819
C   C72       1.0  0.52280  0.42490  0.09300  1.0000 0.6419778819
I   I1        1.0  0.76160  0.98920  0.49996  1.0000 -0.2444161196
I   I2        1.0  0.23840  0.01080  0.50004  1.0000 -0.2444161196
I   I3        1.0  0.99071  0.77992  0.47107  1.0000 -0.2937068586
I   I4        1.0  0.00929  0.22008  0.52893  1.0000 -0.2937068586
I   I5        1.0  0.08918  0.97768  0.67472  1.0000 -0.2588000838
I   I6        1.0  0.91082  0.02232  0.32528  1.0000 -0.2588000838
I   I7        1.0  0.69498  0.78942  0.61293  1.0000 -0.3326814119
I   I8        1.0  0.30502  0.21058  0.38707  1.0000 -0.3326814119
N   N1        1.0  0.57740  0.76080  0.43260  1.0000 -0.1673773571
N   N2        1.0  0.42260  0.23920  0.56740  1.0000 -0.1673773571
N   N3        1.0  0.71060  0.02660  0.66970  1.0000 -0.1803899576
N   N4        1.0  0.28940  0.97340  0.33030  1.0000 -0.1803899576
N   N5        1.0  0.09920  0.75310  0.64270  1.0000 -0.1673773571
N   N6        1.0  0.90080  0.24690  0.35730  1.0000 -0.1673773571
O   O1        1.0  0.16960  0.54040  0.08880  1.0000 -0.6531062369
O   O2        1.0  0.83040  0.45960  0.91120  1.0000 -0.6531062369
O   O3        1.0  0.93930  0.48300  0.06930  1.0000 -0.6641703193
O   O4        1.0  0.06070  0.51700  0.93070  1.0000 -0.6641703193
O   O5        1.0  0.55160  0.37790  0.92820  1.0000 -0.6675651614
O   O6        1.0  0.44840  0.62210  0.07180  1.0000 -0.6675651614
O   O7        1.0  0.33090  0.40990  0.91300  1.0000 -0.6785696391
O   O8        1.0  0.66910  0.59010  0.08700  1.0000 -0.6785696391
O   O9        1.0  0.35920  0.58350  0.92340  1.0000 -0.6531062369
O   O10       1.0  0.64080  0.41650  0.07660  1.0000 -0.6531062369
O   O11       1.0  0.57810  0.55220  0.94060  1.0000 -0.6910091285
O   O12       1.0  0.42190  0.44780  0.05940  1.0000 -0.6910091285
O   O13       1.0  0.11590  0.38170  0.98610  1.0000 -0.8537830059
O   O14       1.0  0.88410  0.61830  0.01390  1.0000 -0.8537830059
O   O15       1.0  0.20540  0.66270  0.01550  1.0000 -0.8253611867
O   O16       1.0  0.79460  0.33730  0.98450  1.0000 -0.8253611867
