# DDEC6 charges by PACMAN v1.1 (https://github.com/mtap-research/PACMAN-charge/)
data_2016[V][bpq]3[FSR]4
_chemical_formula_sum              "V4 H16 C32 O20"
_cell_length_a       6.8055
_cell_length_b       13.4475
_cell_length_c       16.1809
_cell_angle_alpha    90
_cell_angle_beta     90
_cell_angle_gamma    90

_symmetry_space_group_name_H-M    "P 1"
_symmetry_Int_Tables_number       1

loop_
  _symmetry_equiv_pos_as_xyz
  'x, y, z'

loop_
  _atom_site_type_symbol
  _atom_site_label
  _atom_site_symmetry_multiplicity
  _atom_site_fract_x
  _atom_site_fract_y
  _atom_site_fract_z
  _atom_site_occupancy
  _atom_site_charge
V   V1        1.0  0.06454  0.23546  0.99852  1.0000 1.8090489214
V   V2        1.0  0.43546  0.76454  0.49852  1.0000 1.8090489214
V   V3        1.0  0.93546  0.73546  0.50148  1.0000 1.8090489214
V   V4        1.0  0.56454  0.26454  0.00148  1.0000 1.8090489214
H   H1        1.0  0.53310  0.54100  0.32250  1.0000 0.1355741923
H   H2        1.0  0.96690  0.45900  0.82250  1.0000 0.1355741923
H   H3        1.0  0.46690  0.04100  0.17750  1.0000 0.1355741923
H   H4        1.0  0.03310  0.95900  0.67750  1.0000 0.1355741923
H   H5        1.0  0.55320  0.43300  0.21580  1.0000 0.130131578
H   H6        1.0  0.94680  0.56700  0.71580  1.0000 0.130131578
H   H7        1.0  0.44680  0.93300  0.28420  1.0000 0.130131578
H   H8        1.0  0.05320  0.06700  0.78420  1.0000 0.130131578
H   H9        1.0  0.95010  0.50220  0.33120  1.0000 0.130131578
H   H10       1.0  0.54990  0.49780  0.83120  1.0000 0.130131578
H   H11       1.0  0.04990  0.00220  0.16880  1.0000 0.130131578
H   H12       1.0  0.45010  0.99780  0.66880  1.0000 0.130131578
H   H13       1.0  0.97120  0.39580  0.21980  1.0000 0.130131578
H   H14       1.0  0.52880  0.60420  0.71980  1.0000 0.130131578
H   H15       1.0  0.02880  0.89580  0.28020  1.0000 0.130131578
H   H16       1.0  0.47120  0.10420  0.78020  1.0000 0.130131578
C   C1        1.0  0.22430  0.60960  0.40430  1.0000 0.617082492
C   C2        1.0  0.27570  0.39040  0.90430  1.0000 0.617082492
C   C3        1.0  0.77570  0.10960  0.09570  1.0000 0.617082492
C   C4        1.0  0.72430  0.89040  0.59570  1.0000 0.617082492
C   C5        1.0  0.24020  0.53430  0.33790  1.0000 -0.0313681061
C   C6        1.0  0.25980  0.46570  0.83790  1.0000 -0.0313681061
C   C7        1.0  0.75980  0.03430  0.16210  1.0000 -0.0313681061
C   C8        1.0  0.74020  0.96570  0.66210  1.0000 -0.0313681061
C   C9        1.0  0.41920  0.51180  0.30210  1.0000 -0.0920732864
C   C10       1.0  0.08080  0.48820  0.80210  1.0000 -0.0920732864
C   C11       1.0  0.58080  0.01180  0.19790  1.0000 -0.0920732864
C   C12       1.0  0.91920  0.98820  0.69790  1.0000 -0.0920732864
C   C13       1.0  0.43100  0.44830  0.23810  1.0000 -0.1010719224
C   C14       1.0  0.06900  0.55170  0.73810  1.0000 -0.1010719224
C   C15       1.0  0.56900  0.94830  0.26190  1.0000 -0.1010719224
C   C16       1.0  0.93100  0.05170  0.76190  1.0000 -0.1010719224
C   C17       1.0  0.07140  0.48930  0.30710  1.0000 -0.1010719224
C   C18       1.0  0.42860  0.51070  0.80710  1.0000 -0.1010719224
C   C19       1.0  0.92860  0.98930  0.19290  1.0000 -0.1057469914
C   C20       1.0  0.57140  0.01070  0.69290  1.0000 -0.1010719224
C   C21       1.0  0.08450  0.42530  0.24050  1.0000 -0.0920732864
C   C22       1.0  0.41550  0.57470  0.74050  1.0000 -0.0920732864
C   C23       1.0  0.91550  0.92530  0.25950  1.0000 -0.0920732864
C   C24       1.0  0.58450  0.07470  0.75950  1.0000 -0.0920732864
C   C25       1.0  0.26230  0.40490  0.20470  1.0000 -0.0402902471
C   C26       1.0  0.23770  0.59510  0.70470  1.0000 -0.0402902471
C   C27       1.0  0.73770  0.90490  0.29530  1.0000 -0.0402902471
C   C28       1.0  0.76230  0.09510  0.79530  1.0000 -0.0402902471
C   C29       1.0  0.27690  0.34430  0.12950  1.0000 0.6122950917
C   C30       1.0  0.22310  0.65570  0.62950  1.0000 0.6122950917
C   C31       1.0  0.72310  0.84430  0.37050  1.0000 0.6122950917
C   C32       1.0  0.77690  0.15570  0.87050  1.0000 0.6122950917
O   O1        1.0  0.28350  0.18980  0.99000  1.0000 -0.7560262675
O   O2        1.0  0.21650  0.81020  0.49000  1.0000 -0.7560262675
O   O3        1.0  0.71650  0.68980  0.51000  1.0000 -0.7560262675
O   O4        1.0  0.78350  0.31020  0.01000  1.0000 -0.7560262675
O   O5        1.0  0.11570  0.31260  0.09960  1.0000 -0.589894473
O   O6        1.0  0.38430  0.68740  0.59960  1.0000 -0.589894473
O   O7        1.0  0.88430  0.81260  0.40040  1.0000 -0.589894473
O   O8        1.0  0.61570  0.18740  0.90040  1.0000 -0.589894473
O   O9        1.0  0.05640  0.63210  0.43020  1.0000 -0.589894473
O   O10       1.0  0.44360  0.36790  0.93020  1.0000 -0.589894473
O   O11       1.0  0.94360  0.13210  0.06980  1.0000 -0.589894473
O   O12       1.0  0.55640  0.86790  0.56980  1.0000 -0.589894473
O   O13       1.0  0.44280  0.32840  0.09910  1.0000 -0.589894473
O   O14       1.0  0.05720  0.67160  0.59910  1.0000 -0.589894473
O   O15       1.0  0.55720  0.82840  0.40090  1.0000 -0.589894473
O   O16       1.0  0.94280  0.17160  0.90090  1.0000 -0.589894473
O   O17       1.0  0.38450  0.64730  0.42860  1.0000 -0.5795682067
O   O18       1.0  0.11550  0.35270  0.92860  1.0000 -0.5795682067
O   O19       1.0  0.61550  0.14730  0.07140  1.0000 -0.5795682067
O   O20       1.0  0.88450  0.85270  0.57140  1.0000 -0.5795682067
