# DDEC6 charges by PACMAN v1.1 (https://github.com/mtap-research/PACMAN-charge/)
data_2016[Ni][nan]3[FSR]4
_chemical_formula_sum              "Ni6 H116 C168 N24 O28"
_cell_length_a       8.3661
_cell_length_b       29.139
_cell_length_c       18.8583
_cell_angle_alpha    90
_cell_angle_beta     94.307
_cell_angle_gamma    90

_symmetry_space_group_name_H-M    "P 1"
_symmetry_Int_Tables_number       1

loop_
  _symmetry_equiv_pos_as_xyz
  'x, y, z'

loop_
  _atom_site_type_symbol
  _atom_site_label
  _atom_site_symmetry_multiplicity
  _atom_site_fract_x
  _atom_site_fract_y
  _atom_site_fract_z
  _atom_site_occupancy
  _atom_site_charge
Ni  Ni1       1.0  0.00000  0.50000  0.50000  1.0000 0.842857416
Ni  Ni2       1.0  0.00000  0.00000  0.00000  1.0000 0.842857416
Ni  Ni3       1.0  0.97903  0.25646  0.27612  1.0000 0.70145991
Ni  Ni4       1.0  0.02097  0.75646  0.22388  1.0000 0.70145991
Ni  Ni5       1.0  0.02097  0.74354  0.72388  1.0000 0.70145991
Ni  Ni6       1.0  0.97903  0.24354  0.77612  1.0000 0.70145991
H   H1        1.0  0.89410  0.57850  0.55140  1.0000 0.3312887617
H   H2        1.0  0.10590  0.07850  0.94860  1.0000 0.3312887617
H   H3        1.0  0.10590  0.42150  0.44860  1.0000 0.3312887617
H   H4        1.0  0.89410  0.92150  0.05140  1.0000 0.3312887617
H   H5        1.0  0.06030  0.58150  0.54980  1.0000 0.3312887617
H   H6        1.0  0.93970  0.08150  0.95020  1.0000 0.3312887617
H   H7        1.0  0.93970  0.41850  0.45020  1.0000 0.3312887617
H   H8        1.0  0.06030  0.91850  0.04980  1.0000 0.3312887617
H   H9        1.0  0.41800  0.41510  0.45220  1.0000 0.1302836381
H   H10       1.0  0.58200  0.91510  0.04780  1.0000 0.1302836381
H   H11       1.0  0.58200  0.58490  0.54780  1.0000 0.1302836381
H   H12       1.0  0.41800  0.08490  0.95220  1.0000 0.1302836381
H   H13       1.0  0.49410  0.38330  0.65960  1.0000 0.1407083015
H   H14       1.0  0.50590  0.88330  0.84040  1.0000 0.1407083015
H   H15       1.0  0.50590  0.61670  0.34040  1.0000 0.1407083015
H   H16       1.0  0.49410  0.11670  0.15960  1.0000 0.1407083015
H   H17       1.0  0.21490  0.30240  0.52970  1.0000 0.1407083015
H   H18       1.0  0.78510  0.80240  0.97030  1.0000 0.1407083015
H   H19       1.0  0.78510  0.69760  0.47030  1.0000 0.1407083015
H   H20       1.0  0.21490  0.19760  0.02970  1.0000 0.1407083015
H   H21       1.0  0.69200  0.44100  0.47460  1.0000 0.1129895747
H   H22       1.0  0.30800  0.94100  0.02540  1.0000 0.1129895747
H   H23       1.0  0.30800  0.55900  0.52540  1.0000 0.1129895747
H   H24       1.0  0.69200  0.05900  0.97460  1.0000 0.1129895747
H   H25       1.0  0.79400  0.51480  0.64440  1.0000 0.1187259627
H   H26       1.0  0.20600  0.01480  0.85560  1.0000 0.1187259627
H   H27       1.0  0.20600  0.48520  0.35560  1.0000 0.1187259627
H   H28       1.0  0.79400  0.98520  0.14440  1.0000 0.1187259627
H   H29       1.0  0.56100  0.46820  0.66740  1.0000 0.1407083015
H   H30       1.0  0.43900  0.96820  0.83260  1.0000 0.1407083015
H   H31       1.0  0.43900  0.53180  0.33260  1.0000 0.1407083015
H   H32       1.0  0.56100  0.03180  0.16740  1.0000 0.1407083015
H   H33       1.0  0.07490  0.30140  0.64710  1.0000 0.1302836381
H   H34       1.0  0.92510  0.80140  0.85290  1.0000 0.1302836381
H   H35       1.0  0.92510  0.69860  0.35290  1.0000 0.1302836381
H   H36       1.0  0.07490  0.19860  0.14710  1.0000 0.1302836381
H   H37       1.0  0.53040  0.30090  0.72110  1.0000 0.1407083015
H   H38       1.0  0.46960  0.80090  0.77890  1.0000 0.1407083015
H   H39       1.0  0.46960  0.69910  0.27890  1.0000 0.1407083015
H   H40       1.0  0.53040  0.19910  0.22110  1.0000 0.1407083015
H   H41       1.0  0.37240  0.25720  0.80150  1.0000 0.1302836381
H   H42       1.0  0.62760  0.75720  0.69850  1.0000 0.1302836381
H   H43       1.0  0.62760  0.74280  0.19850  1.0000 0.1302836381
H   H44       1.0  0.37240  0.24280  0.30150  1.0000 0.1302836381
H   H45       1.0  0.12470  0.28660  0.42360  1.0000 0.1302836381
H   H46       1.0  0.87530  0.78660  0.07640  1.0000 0.1302836381
H   H47       1.0  0.87530  0.71340  0.57640  1.0000 0.1302836381
H   H48       1.0  0.12470  0.21340  0.92360  1.0000 0.1302836381
H   H49       1.0  0.14720  0.35690  0.25090  1.0000 0.1302836381
H   H50       1.0  0.85280  0.85690  0.24910  1.0000 0.1302836381
H   H51       1.0  0.85280  0.64310  0.74910  1.0000 0.1302836381
H   H52       1.0  0.14720  0.14310  0.75090  1.0000 0.1302836381
H   H53       1.0  0.29000  0.39960  0.34530  1.0000 0.1302836381
H   H54       1.0  0.71000  0.89960  0.15470  1.0000 0.1302836381
H   H55       1.0  0.71000  0.60040  0.65470  1.0000 0.1302836381
H   H56       1.0  0.29000  0.10040  0.84530  1.0000 0.1302836381
H   H57       1.0  0.20690  0.52340  0.71120  1.0000 0.1187259627
H   H58       1.0  0.79310  0.02340  0.78880  1.0000 0.1187259627
H   H59       1.0  0.79310  0.47660  0.28880  1.0000 0.1187259627
H   H60       1.0  0.20690  0.97660  0.21120  1.0000 0.1187259627
H   H61       1.0  0.27270  0.52930  0.83180  1.0000 0.1187259627
H   H62       1.0  0.72730  0.02930  0.66820  1.0000 0.1187259627
H   H63       1.0  0.72730  0.47070  0.16820  1.0000 0.1187259627
H   H64       1.0  0.27270  0.97070  0.33180  1.0000 0.1187259627
H   H65       1.0  0.22670  0.39360  0.85160  1.0000 0.1187259627
H   H66       1.0  0.77330  0.89360  0.64840  1.0000 0.1187259627
H   H67       1.0  0.77330  0.60640  0.14840  1.0000 0.1187259627
H   H68       1.0  0.22670  0.10640  0.35160  1.0000 0.1187259627
H   H69       1.0  0.16120  0.38780  0.73160  1.0000 0.1129895747
H   H70       1.0  0.83880  0.88780  0.76840  1.0000 0.1129895747
H   H71       1.0  0.83880  0.61220  0.26840  1.0000 0.1129895747
H   H72       1.0  0.16120  0.11220  0.23160  1.0000 0.1129895747
H   H73       1.0  0.18340  0.52980  0.94160  1.0000 0.1129895747
H   H74       1.0  0.81660  0.02980  0.55840  1.0000 0.1129895747
H   H75       1.0  0.81660  0.47020  0.05840  1.0000 0.1129895747
H   H76       1.0  0.18340  0.97020  0.44160  1.0000 0.1129895747
H   H77       1.0  0.34840  0.47870  0.13000  1.0000 0.1129895747
H   H78       1.0  0.65160  0.97870  0.37000  1.0000 0.1129895747
H   H79       1.0  0.65160  0.52130  0.87000  1.0000 0.1129895747
H   H80       1.0  0.34840  0.02130  0.63000  1.0000 0.1129895747
H   H81       1.0  0.38560  0.40510  0.95280  1.0000 0.1129895747
H   H82       1.0  0.61440  0.90510  0.54720  1.0000 0.1129895747
H   H83       1.0  0.61440  0.59490  0.04720  1.0000 0.1129895747
H   H84       1.0  0.38560  0.09490  0.45280  1.0000 0.1129895747
H   H85       1.0  0.36760  0.40740  0.18280  1.0000 0.1129895747
H   H86       1.0  0.63240  0.90740  0.31720  1.0000 0.1129895747
H   H87       1.0  0.63240  0.59260  0.81720  1.0000 0.1129895747
H   H88       1.0  0.36760  0.09260  0.68280  1.0000 0.1129895747
H   H89       1.0  0.52780  0.35620  0.24870  1.0000 0.1129895747
H   H90       1.0  0.47220  0.85620  0.25130  1.0000 0.1129895747
H   H91       1.0  0.47220  0.64380  0.75130  1.0000 0.1129895747
H   H92       1.0  0.52780  0.14380  0.74870  1.0000 0.1129895747
H   H93       1.0  0.77350  0.33070  0.07940  1.0000 0.1187259627
H   H94       1.0  0.22650  0.83070  0.42060  1.0000 0.1187259627
H   H95       1.0  0.22650  0.66930  0.92060  1.0000 0.1187259627
H   H96       1.0  0.77350  0.16930  0.57940  1.0000 0.1187259627
H   H97       1.0  0.61240  0.38080  0.01330  1.0000 0.1129895747
H   H98       1.0  0.38760  0.88080  0.48670  1.0000 0.1129895747
H   H99       1.0  0.38760  0.61920  0.98670  1.0000 0.1129895747
H   H100      1.0  0.61240  0.11920  0.51330  1.0000 0.1129895747
H   H101      1.0  0.38240  0.55240  0.15900  1.0000 0.1129895747
H   H102      1.0  0.61760  0.05240  0.34100  1.0000 0.1129895747
H   H103      1.0  0.61760  0.44760  0.84100  1.0000 0.1129895747
H   H104      1.0  0.38240  0.94760  0.65900  1.0000 0.1129895747
H   H105      1.0  0.32420  0.62180  0.20930  1.0000 0.1187259627
H   H106      1.0  0.67580  0.12180  0.29070  1.0000 0.1187259627
H   H107      1.0  0.67580  0.37820  0.79070  1.0000 0.1187259627
H   H108      1.0  0.32420  0.87820  0.70930  1.0000 0.1187259627
H   H109      1.0  0.98380  0.64430  0.05290  1.0000 0.1187259627
H   H110      1.0  0.01620  0.14430  0.44710  1.0000 0.1187259627
H   H111      1.0  0.01620  0.35570  0.94710  1.0000 0.1187259627
H   H112      1.0  0.98380  0.85570  0.55290  1.0000 0.1187259627
H   H113      1.0  0.03520  0.57370  0.00470  1.0000 0.1129895747
H   H114      1.0  0.96480  0.07370  0.49530  1.0000 0.1129895747
H   H115      1.0  0.96480  0.42630  0.99530  1.0000 0.1129895747
H   H116      1.0  0.03520  0.92630  0.50470  1.0000 0.1129895747
C   C1        1.0  0.40170  0.39556  0.49000  1.0000 -0.2732769891
C   C2        1.0  0.59830  0.89556  0.01000  1.0000 -0.2732769891
C   C3        1.0  0.59830  0.60444  0.51000  1.0000 -0.2732769891
C   C4        1.0  0.40170  0.10444  0.99000  1.0000 -0.2732769891
C   C5        1.0  0.47200  0.40462  0.55687  1.0000 0.2142010362
C   C6        1.0  0.52800  0.90462  0.94313  1.0000 0.2142010362
C   C7        1.0  0.52800  0.59538  0.44313  1.0000 0.2142010362
C   C8        1.0  0.47200  0.09538  0.05687  1.0000 0.2142010362
C   C9        1.0  0.44650  0.37687  0.61456  1.0000 -0.2439524761
C   C10       1.0  0.55350  0.87687  0.88544  1.0000 -0.2439524761
C   C11       1.0  0.55350  0.62313  0.38544  1.0000 -0.2439524761
C   C12       1.0  0.44650  0.12313  0.11456  1.0000 -0.2439524761
C   C13       1.0  0.34780  0.33934  0.60263  1.0000 0.2142010362
C   C14       1.0  0.65220  0.83934  0.89737  1.0000 0.2142010362
C   C15       1.0  0.65220  0.66066  0.39737  1.0000 0.2142010362
C   C16       1.0  0.34780  0.16066  0.10263  1.0000 0.2142010362
C   C17       1.0  0.27870  0.32837  0.53636  1.0000 -0.2511863734
C   C18       1.0  0.72130  0.82837  0.96364  1.0000 -0.2511863734
C   C19       1.0  0.72130  0.67163  0.46364  1.0000 -0.2511863734
C   C20       1.0  0.27870  0.17163  0.03636  1.0000 -0.2511863734
C   C21       1.0  0.30610  0.35692  0.47977  1.0000 0.1940776252
C   C22       1.0  0.69390  0.85692  0.02023  1.0000 0.1940776252
C   C23       1.0  0.69390  0.64308  0.52023  1.0000 0.1940776252
C   C24       1.0  0.30610  0.14308  0.97977  1.0000 0.1940776252
C   C25       1.0  0.68880  0.45373  0.51965  1.0000 0.102470414
C   C26       1.0  0.31120  0.95373  0.98035  1.0000 0.102470414
C   C27       1.0  0.31120  0.54627  0.48035  1.0000 0.102470414
C   C28       1.0  0.68880  0.04627  0.01965  1.0000 0.102470414
C   C29       1.0  0.74360  0.49394  0.61280  1.0000 -0.0452954813
C   C30       1.0  0.25640  0.99394  0.88720  1.0000 -0.0452954813
C   C31       1.0  0.25640  0.50606  0.38720  1.0000 -0.0452954813
C   C32       1.0  0.74360  0.00606  0.11280  1.0000 -0.0452954813
C   C33       1.0  0.61490  0.46834  0.62600  1.0000 -0.0939220951
C   C34       1.0  0.38510  0.96834  0.87400  1.0000 -0.0939220951
C   C35       1.0  0.38510  0.53166  0.37400  1.0000 -0.0939220951
C   C36       1.0  0.61490  0.03166  0.12600  1.0000 -0.0939220951
C   C37       1.0  0.16810  0.29587  0.67590  1.0000 0.1129895747
C   C38       1.0  0.83190  0.79587  0.82410  1.0000 0.1129895747
C   C39       1.0  0.83190  0.70413  0.32410  1.0000 0.1129895747
C   C40       1.0  0.16810  0.20413  0.17590  1.0000 0.1129895747
C   C41       1.0  0.42040  0.29576  0.71600  1.0000 -0.1009146932
C   C42       1.0  0.57960  0.79576  0.78400  1.0000 -0.1009146932
C   C43       1.0  0.57960  0.70424  0.28400  1.0000 -0.1009146932
C   C44       1.0  0.42040  0.20424  0.21600  1.0000 -0.1009146932
C   C45       1.0  0.33190  0.27188  0.76020  1.0000 -0.0287099788
C   C46       1.0  0.66810  0.77188  0.73980  1.0000 -0.0287099788
C   C47       1.0  0.66810  0.72812  0.23980  1.0000 -0.0287099788
C   C48       1.0  0.33190  0.22812  0.26020  1.0000 -0.0287099788
C   C49       1.0  0.14990  0.30944  0.39183  1.0000 0.1187259627
C   C50       1.0  0.85010  0.80944  0.10817  1.0000 0.1187259627
C   C51       1.0  0.85010  0.69056  0.60817  1.0000 0.1187259627
C   C52       1.0  0.14990  0.19056  0.89183  1.0000 0.1187259627
C   C53       1.0  0.16120  0.34772  0.29820  1.0000 -0.0139690067
C   C54       1.0  0.83880  0.84772  0.20180  1.0000 -0.0139690067
C   C55       1.0  0.83880  0.65228  0.70180  1.0000 -0.0139690067
C   C56       1.0  0.16120  0.15228  0.79820  1.0000 -0.0139690067
C   C57       1.0  0.24060  0.37124  0.34990  1.0000 -0.125706068
C   C58       1.0  0.75940  0.87124  0.15010  1.0000 -0.125706068
C   C59       1.0  0.75940  0.62876  0.65010  1.0000 -0.125706068
C   C60       1.0  0.24060  0.12876  0.84990  1.0000 -0.125706068
C   C61       1.0  0.17320  0.45493  0.70860  1.0000 -0.0287099788
C   C62       1.0  0.82680  0.95493  0.79140  1.0000 -0.0287099788
C   C63       1.0  0.82680  0.54507  0.29140  1.0000 -0.0287099788
C   C64       1.0  0.17320  0.04507  0.20860  1.0000 -0.0287099788
C   C65       1.0  0.20890  0.49718  0.73937  1.0000 -0.1085329724
C   C66       1.0  0.79110  0.99718  0.76063  1.0000 -0.1085329724
C   C67       1.0  0.79110  0.50282  0.26063  1.0000 -0.1085329724
C   C68       1.0  0.20890  0.00282  0.23937  1.0000 -0.1085329724
C   C69       1.0  0.24770  0.50074  0.81201  1.0000 -0.1510080702
C   C70       1.0  0.75230  0.00074  0.68799  1.0000 -0.1510080702
C   C71       1.0  0.75230  0.49926  0.18799  1.0000 -0.1510080702
C   C72       1.0  0.24770  0.99926  0.31201  1.0000 -0.1510080702
C   C73       1.0  0.24980  0.46231  0.85569  1.0000 0.0640410663
C   C74       1.0  0.75020  0.96231  0.64431  1.0000 0.0640410663
C   C75       1.0  0.75020  0.53769  0.14431  1.0000 0.0640410663
C   C76       1.0  0.24980  0.03769  0.35569  1.0000 0.0640410663
C   C77       1.0  0.22040  0.42007  0.82387  1.0000 -0.1426253921
C   C78       1.0  0.77960  0.92007  0.67613  1.0000 -0.1426253921
C   C79       1.0  0.77960  0.57993  0.17613  1.0000 -0.1426253921
C   C80       1.0  0.22040  0.07993  0.32387  1.0000 -0.1426253921
C   C81       1.0  0.18180  0.41653  0.75162  1.0000 -0.1085329724
C   C82       1.0  0.81820  0.91653  0.74838  1.0000 -0.1085329724
C   C83       1.0  0.81820  0.58347  0.24838  1.0000 -0.1085329724
C   C84       1.0  0.18180  0.08347  0.25162  1.0000 -0.1085329724
C   C85       1.0  0.28050  0.46668  0.93407  1.0000 0.0787090267
C   C86       1.0  0.71950  0.96668  0.56593  1.0000 0.0787090267
C   C87       1.0  0.71950  0.53332  0.06593  1.0000 0.0787090267
C   C88       1.0  0.28050  0.03332  0.43407  1.0000 0.0787090267
C   C89       1.0  0.23310  0.50629  0.96839  1.0000 -0.1886789979
C   C90       1.0  0.76690  0.00629  0.53161  1.0000 -0.1886789979
C   C91       1.0  0.76690  0.49371  0.03161  1.0000 -0.1886789979
C   C92       1.0  0.23310  0.99371  0.46839  1.0000 -0.1886789979
C   C93       1.0  0.25840  0.51158  0.04174  1.0000 0.0787090267
C   C94       1.0  0.74160  0.01158  0.45826  1.0000 0.0787090267
C   C95       1.0  0.74160  0.48842  0.95826  1.0000 0.0787090267
C   C96       1.0  0.25840  0.98842  0.54174  1.0000 0.0787090267
C   C97       1.0  0.33210  0.47583  0.08085  1.0000 -0.1886789979
C   C98       1.0  0.66790  0.97583  0.41915  1.0000 -0.1886789979
C   C99       1.0  0.66790  0.52417  0.91915  1.0000 -0.1886789979
C   C100      1.0  0.33210  0.02417  0.58085  1.0000 -0.1886789979
C   C101      1.0  0.38170  0.43618  0.04845  1.0000 0.0787090267
C   C102      1.0  0.61830  0.93618  0.45155  1.0000 0.0787090267
C   C103      1.0  0.61830  0.56382  0.95155  1.0000 0.0787090267
C   C104      1.0  0.38170  0.06382  0.54845  1.0000 0.0787090267
C   C105      1.0  0.35420  0.43181  0.97494  1.0000 -0.1886789979
C   C106      1.0  0.64580  0.93181  0.52506  1.0000 -0.1886789979
C   C107      1.0  0.64580  0.56819  0.02506  1.0000 -0.1886789979
C   C108      1.0  0.35420  0.06819  0.47494  1.0000 -0.1886789979
C   C109      1.0  0.47450  0.40067  0.09072  1.0000 0.0698294484
C   C110      1.0  0.52550  0.90067  0.40928  1.0000 0.0698294484
C   C111      1.0  0.52550  0.59933  0.90928  1.0000 0.0698294484
C   C112      1.0  0.47450  0.09933  0.59072  1.0000 0.0698294484
C   C113      1.0  0.44960  0.39218  0.16170  1.0000 -0.1598590507
C   C114      1.0  0.55040  0.89218  0.33830  1.0000 -0.1598590507
C   C115      1.0  0.55040  0.60782  0.83830  1.0000 -0.1598590507
C   C116      1.0  0.44960  0.10782  0.66170  1.0000 -0.1598590507
C   C117      1.0  0.54570  0.36135  0.20128  1.0000 -0.1009146932
C   C118      1.0  0.45430  0.86135  0.29872  1.0000 -0.1009146932
C   C119      1.0  0.45430  0.63865  0.79872  1.0000 -0.1009146932
C   C120      1.0  0.54570  0.13865  0.70128  1.0000 -0.1009146932
C   C121      1.0  0.66810  0.33811  0.17119  1.0000 -0.020194722
C   C122      1.0  0.33190  0.83811  0.32881  1.0000 -0.020194722
C   C123      1.0  0.33190  0.66189  0.82881  1.0000 -0.020194722
C   C124      1.0  0.66810  0.16189  0.67119  1.0000 -0.020194722
C   C125      1.0  0.69190  0.34602  0.10050  1.0000 -0.0939220951
C   C126      1.0  0.30810  0.84602  0.39950  1.0000 -0.0939220951
C   C127      1.0  0.30810  0.65398  0.89950  1.0000 -0.0939220951
C   C128      1.0  0.69190  0.15398  0.60050  1.0000 -0.0939220951
C   C129      1.0  0.59580  0.37639  0.06106  1.0000 -0.1510080702
C   C130      1.0  0.40420  0.87639  0.43894  1.0000 -0.1510080702
C   C131      1.0  0.40420  0.62361  0.93894  1.0000 -0.1510080702
C   C132      1.0  0.59580  0.12361  0.56106  1.0000 -0.1510080702
C   C133      1.0  0.77770  0.30683  0.21449  1.0000 0.5373801396
C   C134      1.0  0.22230  0.80683  0.28551  1.0000 0.5373801396
C   C135      1.0  0.22230  0.69317  0.78551  1.0000 0.5373801396
C   C136      1.0  0.77770  0.19317  0.71449  1.0000 0.5373801396
C   C137      1.0  0.21610  0.55522  0.07567  1.0000 0.0698294484
C   C138      1.0  0.78390  0.05522  0.42433  1.0000 0.0698294484
C   C139      1.0  0.78390  0.44478  0.92433  1.0000 0.0698294484
C   C140      1.0  0.21610  0.94478  0.57567  1.0000 0.0698294484
C   C141      1.0  0.30110  0.57055  0.13760  1.0000 -0.1598590507
C   C142      1.0  0.69890  0.07055  0.36240  1.0000 -0.1598590507
C   C143      1.0  0.69890  0.42945  0.86240  1.0000 -0.1598590507
C   C144      1.0  0.30110  0.92945  0.63760  1.0000 -0.1598590507
C   C145      1.0  0.26640  0.61234  0.16780  1.0000 -0.1085329724
C   C146      1.0  0.73360  0.11234  0.33220  1.0000 -0.1085329724
C   C147      1.0  0.73360  0.38766  0.83220  1.0000 -0.1085329724
C   C148      1.0  0.26640  0.88766  0.66780  1.0000 -0.1085329724
C   C149      1.0  0.14700  0.64019  0.13709  1.0000 -0.020194722
C   C150      1.0  0.85300  0.14019  0.36291  1.0000 -0.020194722
C   C151      1.0  0.85300  0.35981  0.86291  1.0000 -0.020194722
C   C152      1.0  0.14700  0.85981  0.63709  1.0000 -0.020194722
C   C153      1.0  0.06270  0.62562  0.07493  1.0000 -0.1085329724
C   C154      1.0  0.93730  0.12562  0.42507  1.0000 -0.1085329724
C   C155      1.0  0.93730  0.37438  0.92507  1.0000 -0.1085329724
C   C156      1.0  0.06270  0.87438  0.57493  1.0000 -0.1085329724
C   C157      1.0  0.09530  0.58335  0.04547  1.0000 -0.1510080702
C   C158      1.0  0.90470  0.08335  0.45453  1.0000 -0.1510080702
C   C159      1.0  0.90470  0.41665  0.95453  1.0000 -0.1510080702
C   C160      1.0  0.09530  0.91665  0.54547  1.0000 -0.1510080702
C   C161      1.0  0.10680  0.68459  0.17024  1.0000 0.5373801396
C   C162      1.0  0.89320  0.18459  0.32976  1.0000 0.5373801396
C   C163      1.0  0.89320  0.31541  0.82976  1.0000 0.5373801396
C   C164      1.0  0.10680  0.81541  0.67024  1.0000 0.5373801396
C   C165      1.0  0.11860  0.45164  0.63068  1.0000 0.5562371568
C   C166      1.0  0.88140  0.95164  0.86932  1.0000 0.5562371568
C   C167      1.0  0.88140  0.54836  0.36932  1.0000 0.5562371568
C   C168      1.0  0.11860  0.04836  0.13068  1.0000 0.5562371568
N   N1        1.0  0.78960  0.48475  0.54591  1.0000 -0.2797634422
N   N2        1.0  0.21040  0.98475  0.95409  1.0000 -0.2797634422
N   N3        1.0  0.21040  0.51525  0.45409  1.0000 -0.2797634422
N   N4        1.0  0.78960  0.01525  0.04591  1.0000 -0.2797634422
N   N5        1.0  0.57960  0.44247  0.56602  1.0000 0.0025775193
N   N6        1.0  0.42040  0.94247  0.93398  1.0000 0.0025775193
N   N7        1.0  0.42040  0.55753  0.43398  1.0000 0.0025775193
N   N8        1.0  0.57960  0.05753  0.06602  1.0000 0.0025775193
N   N9        1.0  0.17340  0.27233  0.73525  1.0000 -0.2797634422
N   N10       1.0  0.82660  0.77233  0.76475  1.0000 -0.2797634422
N   N11       1.0  0.82660  0.72767  0.26475  1.0000 -0.2797634422
N   N12       1.0  0.17340  0.22767  0.23525  1.0000 -0.2797634422
N   N13       1.0  0.31420  0.31097  0.66178  1.0000 -0.0044236284
N   N14       1.0  0.68580  0.81097  0.83822  1.0000 -0.0044236284
N   N15       1.0  0.68580  0.68903  0.33822  1.0000 -0.0044236284
N   N16       1.0  0.31420  0.18903  0.16178  1.0000 -0.0044236284
N   N17       1.0  0.10420  0.30850  0.32450  1.0000 -0.2511863734
N   N18       1.0  0.89580  0.80850  0.17550  1.0000 -0.2511863734
N   N19       1.0  0.89580  0.69150  0.67550  1.0000 -0.2511863734
N   N20       1.0  0.10420  0.19150  0.82450  1.0000 -0.2511863734
N   N21       1.0  0.23640  0.34639  0.41075  1.0000 -0.0044236284
N   N22       1.0  0.76360  0.84639  0.08925  1.0000 -0.0044236284
N   N23       1.0  0.76360  0.65361  0.58925  1.0000 -0.0044236284
N   N24       1.0  0.23640  0.15361  0.91075  1.0000 -0.0044236284
O   O1        1.0  0.12760  0.48786  0.59468  1.0000 -0.5926761373
O   O2        1.0  0.87240  0.98786  0.90532  1.0000 -0.5926761373
O   O3        1.0  0.87240  0.51214  0.40532  1.0000 -0.5926761373
O   O4        1.0  0.12760  0.01214  0.09468  1.0000 -0.5926761373
O   O5        1.0  0.06720  0.41381  0.60742  1.0000 -0.5645439967
O   O6        1.0  0.93280  0.91381  0.89258  1.0000 -0.5645439967
O   O7        1.0  0.93280  0.58619  0.39258  1.0000 -0.5645439967
O   O8        1.0  0.06720  0.08619  0.10742  1.0000 -0.5645439967
O   O9        1.0  0.89600  0.28960  0.18591  1.0000 -0.5390293096
O   O10       1.0  0.10400  0.78960  0.31409  1.0000 -0.5390293096
O   O11       1.0  0.10400  0.71040  0.81409  1.0000 -0.5390293096
O   O12       1.0  0.89600  0.21040  0.68591  1.0000 -0.5390293096
O   O13       1.0  0.75480  0.29794  0.27826  1.0000 -0.5390293096
O   O14       1.0  0.24520  0.79794  0.22174  1.0000 -0.5390293096
O   O15       1.0  0.24520  0.70206  0.72174  1.0000 -0.5390293096
O   O16       1.0  0.75480  0.20206  0.77826  1.0000 -0.5390293096
O   O17       1.0  0.01780  0.71340  0.13558  1.0000 -0.5390293096
O   O18       1.0  0.98220  0.21340  0.36442  1.0000 -0.5390293096
O   O19       1.0  0.98220  0.28660  0.86442  1.0000 -0.5390293096
O   O20       1.0  0.01780  0.78660  0.63558  1.0000 -0.5390293096
O   O21       1.0  0.15780  0.69387  0.23342  1.0000 -0.5294270261
O   O22       1.0  0.84220  0.19387  0.26658  1.0000 -0.5294270261
O   O23       1.0  0.84220  0.30613  0.76658  1.0000 -0.5294270261
O   O24       1.0  0.15780  0.80613  0.73342  1.0000 -0.5294270261
O   O25       1.0  0.97540  0.56897  0.53157  1.0000 -0.6413447454
O   O26       1.0  0.02460  0.06897  0.96843  1.0000 -0.6413447454
O   O27       1.0  0.02460  0.43103  0.46843  1.0000 -0.6413447454
O   O28       1.0  0.97540  0.93103  0.03157  1.0000 -0.6413447454
