# DDEC6 charges by PACMAN v1.1 (https://github.com/mtap-research/PACMAN-charge/)
data_2016[Cu][nan]3[FSR]15
_chemical_formula_sum              "Cu6 P8 H36 C28 O52"
_cell_length_a       16.134
_cell_length_b       16.134
_cell_length_c       4.5489
_cell_angle_alpha    90
_cell_angle_beta     90
_cell_angle_gamma    90

_symmetry_space_group_name_H-M    "P 1"
_symmetry_Int_Tables_number       1

loop_
  _symmetry_equiv_pos_as_xyz
  'x, y, z'

loop_
  _atom_site_type_symbol
  _atom_site_label
  _atom_site_symmetry_multiplicity
  _atom_site_fract_x
  _atom_site_fract_y
  _atom_site_fract_z
  _atom_site_occupancy
  _atom_site_charge
Cu  Cu1       1.0  0.53858  0.19906  0.50160  1.0000 0.7712128738
Cu  Cu2       1.0  0.46142  0.80094  0.50160  1.0000 0.7712128738
Cu  Cu3       1.0  0.80094  0.53858  0.49840  1.0000 0.7712128738
Cu  Cu4       1.0  0.19906  0.46142  0.49840  1.0000 0.7712128738
Cu  Cu5       1.0  0.00000  0.50000  0.50050  1.0000 0.8060400168
Cu  Cu6       1.0  0.50000  0.00000  0.49950  1.0000 0.8060400168
P   P1        1.0  0.66462  0.15928  0.99800  1.0000 0.9444690823
P   P2        1.0  0.33538  0.84072  0.99800  1.0000 0.9472266713
P   P3        1.0  0.84072  0.66462  0.00200  1.0000 0.9444690823
P   P4        1.0  0.15928  0.33538  0.00200  1.0000 0.9444690823
P   P5        1.0  0.88450  0.42488  0.99950  1.0000 0.9564070085
P   P6        1.0  0.11550  0.57512  0.99950  1.0000 0.9564070085
P   P7        1.0  0.57512  0.88450  0.00050  1.0000 0.9564070085
P   P8        1.0  0.42488  0.11550  0.00050  1.0000 0.9564070085
H   H1        1.0  0.44400  0.31920  0.47760  1.0000 0.3612264076
H   H2        1.0  0.55600  0.68080  0.47760  1.0000 0.3612264076
H   H3        1.0  0.68080  0.44400  0.52240  1.0000 0.3612264076
H   H4        1.0  0.31920  0.55600  0.52240  1.0000 0.3612264076
H   H5        1.0  0.48440  0.28210  0.17370  1.0000 0.3298829178
H   H6        1.0  0.51560  0.71790  0.17370  1.0000 0.3298829178
H   H7        1.0  0.71790  0.48440  0.82630  1.0000 0.3298829178
H   H8        1.0  0.28210  0.51560  0.82630  1.0000 0.3298829178
H   H9        1.0  0.65490  0.04550  0.18080  1.0000 0.3132532516
H   H10       1.0  0.34510  0.95450  0.18080  1.0000 0.3132532516
H   H11       1.0  0.95450  0.65490  0.81920  1.0000 0.3132532516
H   H12       1.0  0.04550  0.34510  0.81920  1.0000 0.3132532516
H   H13       1.0  0.75230  0.31060  0.14940  1.0000 0.0899330543
H   H14       1.0  0.24770  0.68940  0.14940  1.0000 0.0899330543
H   H15       1.0  0.68940  0.75230  0.85060  1.0000 0.0899330543
H   H16       1.0  0.31060  0.24770  0.85060  1.0000 0.0899330543
H   H17       1.0  0.95820  0.30250  0.63200  1.0000 0.10418809
H   H18       1.0  0.04180  0.69750  0.63200  1.0000 0.10418809
H   H19       1.0  0.69750  0.95820  0.36800  1.0000 0.10418809
H   H20       1.0  0.30250  0.04180  0.36800  1.0000 0.10418809
H   H21       1.0  0.79530  0.11590  0.60470  1.0000 0.1053298766
H   H22       1.0  0.20470  0.88410  0.60470  1.0000 0.1053298766
H   H23       1.0  0.88410  0.79530  0.39530  1.0000 0.1053298766
H   H24       1.0  0.11590  0.20470  0.39530  1.0000 0.1053298766
H   H25       1.0  0.91300  0.10100  0.33390  1.0000 0.1297250444
H   H26       1.0  0.08700  0.89900  0.33390  1.0000 0.1297250444
H   H27       1.0  0.89900  0.91300  0.66610  1.0000 0.1297250444
H   H28       1.0  0.10100  0.08700  0.66610  1.0000 0.1297250444
H   H29       1.0  0.94670  0.18440  0.20370  1.0000 0.1297250444
H   H30       1.0  0.05330  0.81560  0.20370  1.0000 0.1297250444
H   H31       1.0  0.81560  0.94670  0.79630  1.0000 0.1297250444
H   H32       1.0  0.18440  0.05330  0.79630  1.0000 0.1297250444
H   H33       1.0  0.99150  0.14310  0.47200  1.0000 0.1240686307
H   H34       1.0  0.00850  0.85690  0.47200  1.0000 0.1240686307
H   H35       1.0  0.85690  0.99150  0.52800  1.0000 0.1240686307
H   H36       1.0  0.14310  0.00850  0.52800  1.0000 0.1240686307
C   C1        1.0  0.76060  0.20720  0.89400  1.0000 -0.2089241689
C   C2        1.0  0.23940  0.79280  0.89400  1.0000 -0.2089241689
C   C3        1.0  0.79280  0.76060  0.10600  1.0000 -0.2089241689
C   C4        1.0  0.20720  0.23940  0.10600  1.0000 -0.2089241689
C   C5        1.0  0.78400  0.28390  0.00700  1.0000 -0.0903116057
C   C6        1.0  0.21600  0.71610  0.00700  1.0000 -0.0903116057
C   C7        1.0  0.71610  0.78400  0.99300  1.0000 -0.0903116057
C   C8        1.0  0.28390  0.21600  0.99300  1.0000 -0.0903116057
C   C9        1.0  0.85860  0.32000  0.89700  1.0000 -0.2474581818
C   C10       1.0  0.14140  0.68000  0.89700  1.0000 -0.2474581818
C   C11       1.0  0.68000  0.85860  0.10300  1.0000 -0.2396327904
C   C12       1.0  0.32000  0.14140  0.10300  1.0000 -0.2396327904
C   C13       1.0  0.90880  0.27860  0.69500  1.0000 -0.2396327904
C   C14       1.0  0.09120  0.72140  0.69500  1.0000 -0.2396327904
C   C15       1.0  0.72140  0.90880  0.30500  1.0000 -0.2396327904
C   C16       1.0  0.27860  0.09120  0.30500  1.0000 -0.2396327904
C   C17       1.0  0.88440  0.20060  0.58700  1.0000 0.1852120736
C   C18       1.0  0.11560  0.79940  0.58700  1.0000 0.1852120736
C   C19       1.0  0.79940  0.88440  0.41300  1.0000 0.1852120736
C   C20       1.0  0.20060  0.11560  0.41300  1.0000 0.1852120736
C   C21       1.0  0.81200  0.16670  0.68100  1.0000 -0.136337558
C   C22       1.0  0.18800  0.83330  0.68100  1.0000 -0.136337558
C   C23       1.0  0.83330  0.81200  0.31900  1.0000 -0.136337558
C   C24       1.0  0.16670  0.18800  0.31900  1.0000 -0.136337558
C   C25       1.0  0.93880  0.15300  0.38100  1.0000 -0.4537575564
C   C26       1.0  0.06120  0.84700  0.38100  1.0000 -0.4537575564
C   C27       1.0  0.84700  0.93880  0.61900  1.0000 -0.4537575564
C   C28       1.0  0.15300  0.06120  0.61900  1.0000 -0.4537575564
O   O1        1.0  0.47420  0.29490  0.35100  1.0000 -0.4973168394
O   O2        1.0  0.52580  0.70510  0.35100  1.0000 -0.4973168394
O   O3        1.0  0.70510  0.47420  0.64900  1.0000 -0.4973168394
O   O4        1.0  0.29490  0.52580  0.64900  1.0000 -0.4973168394
O   O5        1.0  0.69330  0.07860  0.17300  1.0000 -0.1298010835
O   O6        1.0  0.30670  0.92140  0.17300  1.0000 -0.1298010835
O   O7        1.0  0.92140  0.69330  0.82700  1.0000 -0.1298010835
O   O8        1.0  0.07860  0.30670  0.82700  1.0000 -0.1298010835
O   O9        1.0  0.61840  0.13190  0.75400  1.0000 -0.2474581818
O   O10       1.0  0.38160  0.86810  0.75400  1.0000 -0.2474581818
O   O11       1.0  0.86810  0.61840  0.24600  1.0000 -0.2474581818
O   O12       1.0  0.13190  0.38160  0.24600  1.0000 -0.2474581818
O   O13       1.0  0.62130  0.21970  0.20500  1.0000 -0.328282254
O   O14       1.0  0.37870  0.78030  0.20500  1.0000 -0.328282254
O   O15       1.0  0.78030  0.62130  0.79500  1.0000 -0.328282254
O   O16       1.0  0.21970  0.37870  0.79500  1.0000 -0.328282254
O   O17       1.0  0.96370  0.42400  0.78100  1.0000 -0.3036246746
O   O18       1.0  0.03630  0.57600  0.78100  1.0000 -0.3036246746
O   O19       1.0  0.57600  0.96370  0.21900  1.0000 -0.3036246746
O   O20       1.0  0.42400  0.03630  0.21900  1.0000 -0.3036246746
O   O21       1.0  0.90230  0.47650  0.27200  1.0000 -0.2875456086
O   O22       1.0  0.09770  0.52350  0.27200  1.0000 -0.2875456086
O   O23       1.0  0.52350  0.90230  0.72800  1.0000 -0.2875456086
O   O24       1.0  0.47650  0.09770  0.72800  1.0000 -0.2875456086
O   O25       1.0  0.81000  0.45490  0.82600  1.0000 -0.1132727249
O   O26       1.0  0.19000  0.54510  0.82600  1.0000 -0.1132727249
O   O27       1.0  0.54510  0.81000  0.17400  1.0000 -0.1132727249
O   O28       1.0  0.45490  0.19000  0.17400  1.0000 -0.1132727249
O   O29       1.0  0.62100  0.22100  0.78200  1.0000 -0.3125009021
O   O30       1.0  0.37900  0.77900  0.78200  1.0000 -0.3125009021
O   O31       1.0  0.77900  0.62100  0.21800  1.0000 -0.3125009021
O   O32       1.0  0.22100  0.37900  0.21800  1.0000 -0.3125009021
O   O33       1.0  0.60920  0.13400  0.28300  1.0000 -0.2746460756
O   O34       1.0  0.39080  0.86600  0.28300  1.0000 -0.2751608512
O   O35       1.0  0.86600  0.60920  0.71700  1.0000 -0.2746460756
O   O36       1.0  0.13400  0.39080  0.71700  1.0000 -0.2746460756
O   O37       1.0  0.69400  0.08100  0.85200  1.0000 -0.1840082179
O   O38       1.0  0.30600  0.91900  0.85200  1.0000 -0.1840082179
O   O39       1.0  0.91900  0.69400  0.14800  1.0000 -0.1850436052
O   O40       1.0  0.08100  0.30600  0.14800  1.0000 -0.1840082179
O   O41       1.0  0.80510  0.45730  0.17200  1.0000 -0.3036246746
O   O42       1.0  0.19490  0.54270  0.17200  1.0000 -0.3125009021
O   O43       1.0  0.54270  0.80510  0.82800  1.0000 -0.3036246746
O   O44       1.0  0.45730  0.19490  0.82800  1.0000 -0.3036246746
O   O45       1.0  0.90400  0.47700  0.75800  1.0000 -0.2396327904
O   O46       1.0  0.09600  0.52300  0.75800  1.0000 -0.2396327904
O   O47       1.0  0.52300  0.90400  0.24200  1.0000 -0.2396327904
O   O48       1.0  0.47700  0.09600  0.24200  1.0000 -0.2396327904
O   O49       1.0  0.96150  0.41620  0.20700  1.0000 -0.3515129706
O   O50       1.0  0.03850  0.58380  0.20700  1.0000 -0.3515129706
O   O51       1.0  0.58380  0.96150  0.79300  1.0000 -0.3515129706
O   O52       1.0  0.41620  0.03850  0.79300  1.0000 -0.3515129706
