# DDEC6 charges by PACMAN v1.1 (https://github.com/mtap-research/PACMAN-charge/)
data_2016[Zn][tfz]3[FSR]1
_chemical_formula_sum              "Zn6 H66 C70 N22 O36"
_cell_length_a       13.036
_cell_length_b       12.2948
_cell_length_c       18.7055
_cell_angle_alpha    90
_cell_angle_beta     123.019
_cell_angle_gamma    90

_symmetry_space_group_name_H-M    "P 1"
_symmetry_Int_Tables_number       1

loop_
  _symmetry_equiv_pos_as_xyz
  'x, y, z'

loop_
  _atom_site_type_symbol
  _atom_site_label
  _atom_site_symmetry_multiplicity
  _atom_site_fract_x
  _atom_site_fract_y
  _atom_site_fract_z
  _atom_site_occupancy
  _atom_site_charge
Zn  Zn1       1.0  0.40007  0.30748  0.87375  1.0000 0.8275322889
Zn  Zn2       1.0  0.59993  0.30748  0.62625  1.0000 0.8275322889
Zn  Zn3       1.0  0.59993  0.69252  0.12625  1.0000 0.8275322889
Zn  Zn4       1.0  0.40007  0.69252  0.37375  1.0000 0.8275322889
Zn  Zn5       1.0  0.50000  0.31303  0.75000  1.0000 0.9996564363
Zn  Zn6       1.0  0.50000  0.68697  0.25000  1.0000 0.9996564363
H   H1        1.0  0.36260  0.47950  0.98980  1.0000 0.144104806
H   H2        1.0  0.63740  0.47950  0.51020  1.0000 0.144104806
H   H3        1.0  0.63740  0.52050  0.01020  1.0000 0.144104806
H   H4        1.0  0.36260  0.52050  0.48980  1.0000 0.144104806
H   H5        1.0  0.39820  0.43390  0.12880  1.0000 0.144104806
H   H6        1.0  0.60180  0.43390  0.37120  1.0000 0.144104806
H   H7        1.0  0.60180  0.56610  0.87120  1.0000 0.144104806
H   H8        1.0  0.39820  0.56610  0.62880  1.0000 0.144104806
H   H9        1.0  0.47060  0.17340  0.03750  1.0000 0.1307627053
H   H10       1.0  0.52940  0.17340  0.46250  1.0000 0.1307627053
H   H11       1.0  0.52940  0.82660  0.96250  1.0000 0.1307627053
H   H12       1.0  0.47060  0.82660  0.53750  1.0000 0.1307627053
H   H13       1.0  0.44160  0.06920  0.12620  1.0000 0.147938965
H   H14       1.0  0.55840  0.06920  0.37380  1.0000 0.147938965
H   H15       1.0  0.55840  0.93080  0.87380  1.0000 0.147938965
H   H16       1.0  0.44160  0.93080  0.62620  1.0000 0.147938965
H   H17       1.0  0.50000  0.97150  0.25000  1.0000 0.1307627053
H   H18       1.0  0.50000  0.02850  0.75000  1.0000 0.1307627053
H   H19       1.0  0.24550  0.63160  0.81380  1.0000 0.1010250051
H   H20       1.0  0.75450  0.63160  0.68620  1.0000 0.1010250051
H   H21       1.0  0.75450  0.36840  0.18620  1.0000 0.1010250051
H   H22       1.0  0.24550  0.36840  0.31380  1.0000 0.1010250051
H   H23       1.0  0.12950  0.56190  0.75180  1.0000 0.1112022325
H   H24       1.0  0.87050  0.56190  0.74820  1.0000 0.1112022325
H   H25       1.0  0.87050  0.43810  0.24820  1.0000 0.1112022325
H   H26       1.0  0.12950  0.43810  0.25180  1.0000 0.1112022325
H   H27       1.0  0.18300  0.55940  0.65200  1.0000 0.147938965
H   H28       1.0  0.81700  0.55940  0.84800  1.0000 0.147938965
H   H29       1.0  0.81700  0.44060  0.34800  1.0000 0.147938965
H   H30       1.0  0.18300  0.44060  0.15200  1.0000 0.147938965
H   H31       1.0  0.29590  0.63440  0.71050  1.0000 0.1307627053
H   H32       1.0  0.70410  0.63440  0.78950  1.0000 0.1307627053
H   H33       1.0  0.70410  0.36560  0.28950  1.0000 0.1307627053
H   H34       1.0  0.29590  0.36560  0.21050  1.0000 0.1307627053
H   H35       1.0  0.76560  0.73820  0.58180  1.0000 0.0931117882
H   H36       1.0  0.23440  0.73820  0.91820  1.0000 0.0931117882
H   H37       1.0  0.23440  0.26180  0.41820  1.0000 0.0931117882
H   H38       1.0  0.76560  0.26180  0.08180  1.0000 0.0931117882
H   H39       1.0  0.76090  0.86540  0.57730  1.0000 0.1010250051
H   H40       1.0  0.23910  0.86540  0.92270  1.0000 0.1010250051
H   H41       1.0  0.23910  0.13460  0.42270  1.0000 0.1010250051
H   H42       1.0  0.76090  0.13460  0.07730  1.0000 0.1010250051
H   H43       1.0  0.78080  0.73380  0.46040  1.0000 0.147938965
H   H44       1.0  0.21920  0.73380  0.03960  1.0000 0.147938965
H   H45       1.0  0.21920  0.26620  0.53960  1.0000 0.147938965
H   H46       1.0  0.78080  0.26620  0.96040  1.0000 0.147938965
H   H47       1.0  0.77000  0.86170  0.45490  1.0000 0.147938965
H   H48       1.0  0.23000  0.86170  0.04510  1.0000 0.147938965
H   H49       1.0  0.23000  0.13830  0.54510  1.0000 0.147938965
H   H50       1.0  0.77000  0.13830  0.95490  1.0000 0.147938965
H   H51       1.0  0.10820  0.06390  0.74330  1.0000 0.1112022325
H   H52       1.0  0.89180  0.06390  0.75670  1.0000 0.1112022325
H   H53       1.0  0.89180  0.93610  0.25670  1.0000 0.1112022325
H   H54       1.0  0.10820  0.93610  0.24330  1.0000 0.1112022325
H   H55       1.0  0.23280  0.00320  0.80170  1.0000 0.1112022325
H   H56       1.0  0.76720  0.00320  0.69830  1.0000 0.1112022325
H   H57       1.0  0.76720  0.99680  0.19830  1.0000 0.1112022325
H   H58       1.0  0.23280  0.99680  0.30170  1.0000 0.1112022325
H   H59       1.0  0.14530  0.08490  0.63680  1.0000 0.147938965
H   H60       1.0  0.85470  0.08490  0.86320  1.0000 0.147938965
H   H61       1.0  0.85470  0.91510  0.36320  1.0000 0.147938965
H   H62       1.0  0.14530  0.91510  0.13680  1.0000 0.147938965
H   H63       1.0  0.26010  0.00840  0.68420  1.0000 0.1307627053
H   H64       1.0  0.73990  0.00840  0.81580  1.0000 0.1307627053
H   H65       1.0  0.73990  0.99160  0.31580  1.0000 0.1307627053
H   H66       1.0  0.26010  0.99160  0.18420  1.0000 0.1307627053
C   C1        1.0  0.38870  0.41240  0.01700  1.0000 -0.0295905654
C   C2        1.0  0.61130  0.41240  0.48300  1.0000 -0.0295905654
C   C3        1.0  0.61130  0.58760  0.98300  1.0000 -0.0295905654
C   C4        1.0  0.38870  0.58760  0.51700  1.0000 -0.0295905654
C   C5        1.0  0.40730  0.38760  0.09330  1.0000 -0.0775142933
C   C6        1.0  0.59270  0.38760  0.40670  1.0000 -0.0775142933
C   C7        1.0  0.59270  0.61240  0.90670  1.0000 -0.0775142933
C   C8        1.0  0.40730  0.61240  0.59330  1.0000 -0.0775142933
C   C9        1.0  0.44740  0.24330  0.04200  1.0000 0.1307627053
C   C10       1.0  0.55260  0.24330  0.45800  1.0000 0.1307627053
C   C11       1.0  0.55260  0.75670  0.95800  1.0000 0.1307627053
C   C12       1.0  0.44740  0.75670  0.54200  1.0000 0.1307627053
C   C13       1.0  0.47070  0.21590  0.18180  1.0000 0.3013991986
C   C14       1.0  0.52930  0.21590  0.31820  1.0000 0.3013991986
C   C15       1.0  0.52930  0.78410  0.81820  1.0000 0.3013991986
C   C16       1.0  0.47070  0.78410  0.68180  1.0000 0.3013991986
C   C17       1.0  0.46640  0.10480  0.17700  1.0000 -0.2170076694
C   C18       1.0  0.53360  0.10480  0.32300  1.0000 -0.2170076694
C   C19       1.0  0.53360  0.89520  0.82300  1.0000 -0.2170076694
C   C20       1.0  0.46640  0.89520  0.67700  1.0000 -0.2170076694
C   C21       1.0  0.50000  0.04720  0.25000  1.0000 0.0160722558
C   C22       1.0  0.50000  0.95280  0.75000  1.0000 0.0160722558
C   C23       1.0  0.17690  0.81430  0.74330  1.0000 0.5216205989
C   C24       1.0  0.82310  0.81430  0.75670  1.0000 0.5216205989
C   C25       1.0  0.82310  0.18570  0.25670  1.0000 0.5216205989
C   C26       1.0  0.17690  0.18570  0.24330  1.0000 0.5216205989
C   C27       1.0  0.99150  0.70840  0.65330  1.0000 0.5304217313
C   C28       1.0  0.00850  0.70840  0.84670  1.0000 0.5304217313
C   C29       1.0  0.00850  0.29160  0.34670  1.0000 0.5304217313
C   C30       1.0  0.99150  0.29160  0.15330  1.0000 0.5304217313
C   C31       1.0  0.98110  0.90640  0.64840  1.0000 0.5304217313
C   C32       1.0  0.01890  0.90640  0.85160  1.0000 0.5304217313
C   C33       1.0  0.01890  0.09360  0.35160  1.0000 0.5304217313
C   C34       1.0  0.98110  0.09360  0.14840  1.0000 0.5304217313
C   C35       1.0  0.18370  0.61790  0.75420  1.0000 -0.0295905654
C   C36       1.0  0.81630  0.61790  0.74580  1.0000 -0.0295905654
C   C37       1.0  0.81630  0.38210  0.24580  1.0000 -0.0295905654
C   C38       1.0  0.18370  0.38210  0.25420  1.0000 -0.0295905654
C   C39       1.0  0.24500  0.57710  0.71080  1.0000 -0.3551608945
C   C40       1.0  0.75500  0.57710  0.78920  1.0000 -0.3542608346
C   C41       1.0  0.75500  0.42290  0.28920  1.0000 -0.3542608346
C   C42       1.0  0.24500  0.42290  0.21080  1.0000 -0.3551608945
C   C43       1.0  0.32270  0.47800  0.75390  1.0000 0.6571060394
C   C44       1.0  0.67730  0.47800  0.74610  1.0000 0.6571060394
C   C45       1.0  0.67730  0.52200  0.24610  1.0000 0.6571060394
C   C46       1.0  0.32270  0.52200  0.25390  1.0000 0.6571060394
C   C47       1.0  0.79500  0.80160  0.56720  1.0000 -0.0365184049
C   C48       1.0  0.20500  0.80160  0.93280  1.0000 -0.0365184049
C   C49       1.0  0.20500  0.19840  0.43280  1.0000 -0.0365184049
C   C50       1.0  0.79500  0.19840  0.06720  1.0000 -0.0365184049
C   C51       1.0  0.74740  0.79650  0.47240  1.0000 -0.3434051301
C   C52       1.0  0.25260  0.79650  0.02760  1.0000 -0.3434051301
C   C53       1.0  0.25260  0.20350  0.52760  1.0000 -0.3434051301
C   C54       1.0  0.74740  0.20350  0.97240  1.0000 -0.3434051301
C   C55       1.0  0.61020  0.78750  0.42620  1.0000 0.6374610637
C   C56       1.0  0.38980  0.78750  0.07380  1.0000 0.6374610637
C   C57       1.0  0.38980  0.21250  0.57380  1.0000 0.6374610637
C   C58       1.0  0.61020  0.21250  0.92620  1.0000 0.6374610637
C   C59       1.0  0.16510  0.01330  0.74320  1.0000 -0.0295905654
C   C60       1.0  0.83490  0.01330  0.75680  1.0000 -0.0295905654
C   C61       1.0  0.83490  0.98670  0.25680  1.0000 -0.0295905654
C   C62       1.0  0.16510  0.98670  0.24320  1.0000 -0.0295905654
C   C63       1.0  0.21340  0.06260  0.69250  1.0000 -0.3542608346
C   C64       1.0  0.78660  0.06260  0.80750  1.0000 -0.3542608346
C   C65       1.0  0.78660  0.93740  0.30750  1.0000 -0.3542608346
C   C66       1.0  0.21340  0.93740  0.19250  1.0000 -0.3542608346
C   C67       1.0  0.29380  0.15990  0.73870  1.0000 0.6571060394
C   C68       1.0  0.70620  0.15990  0.76130  1.0000 0.6571060394
C   C69       1.0  0.70620  0.84010  0.26130  1.0000 0.6571060394
C   C70       1.0  0.29380  0.84010  0.23870  1.0000 0.6571060394
N   N1        1.0  0.41520  0.32000  0.98500  1.0000 -0.2885201003
N   N2        1.0  0.58480  0.32000  0.51500  1.0000 -0.2885201003
N   N3        1.0  0.58480  0.68000  0.01500  1.0000 -0.2885201003
N   N4        1.0  0.41520  0.68000  0.48500  1.0000 -0.2885201003
N   N5        1.0  0.44250  0.27940  0.10840  1.0000 -0.0137055178
N   N6        1.0  0.55750  0.27940  0.39160  1.0000 -0.0137055178
N   N7        1.0  0.55750  0.72060  0.89160  1.0000 -0.0137055178
N   N8        1.0  0.44250  0.72060  0.60840  1.0000 -0.0137055178
N   N9        1.0  0.50000  0.27130  0.25000  1.0000 -0.3779809798
N   N10       1.0  0.50000  0.72870  0.75000  1.0000 -0.3779809798
N   N11       1.0  0.11340  0.71720  0.71590  1.0000 -0.2436927881
N   N12       1.0  0.88660  0.71720  0.78410  1.0000 -0.2436927881
N   N13       1.0  0.88660  0.28280  0.28410  1.0000 -0.2436927881
N   N14       1.0  0.11340  0.28280  0.21590  1.0000 -0.2436927881
N   N15       1.0  0.92790  0.80570  0.62380  1.0000 -0.2458373036
N   N16       1.0  0.07210  0.80570  0.87620  1.0000 -0.2458373036
N   N17       1.0  0.07210  0.19430  0.37620  1.0000 -0.2458373036
N   N18       1.0  0.92790  0.19430  0.12380  1.0000 -0.2436927881
N   N19       1.0  0.10380  0.90930  0.70920  1.0000 -0.2436927881
N   N20       1.0  0.89620  0.90930  0.79080  1.0000 -0.2436927881
N   N21       1.0  0.89620  0.09070  0.29080  1.0000 -0.2436927881
N   N22       1.0  0.10380  0.09070  0.20920  1.0000 -0.2436927881
O   O1        1.0  0.37380  0.43280  0.72170  1.0000 -0.5633011486
O   O2        1.0  0.62620  0.43280  0.77830  1.0000 -0.5633011486
O   O3        1.0  0.62620  0.56720  0.27830  1.0000 -0.5633011486
O   O4        1.0  0.37380  0.56720  0.22170  1.0000 -0.5633011486
O   O5        1.0  0.32950  0.44790  0.82070  1.0000 -0.5382711317
O   O6        1.0  0.67050  0.44790  0.67930  1.0000 -0.5382711317
O   O7        1.0  0.67050  0.55210  0.17930  1.0000 -0.5382711317
O   O8        1.0  0.32950  0.55210  0.32070  1.0000 -0.5382711317
O   O9        1.0  0.55180  0.85530  0.43640  1.0000 -0.5121897931
O   O10       1.0  0.44820  0.85530  0.06360  1.0000 -0.5121897931
O   O11       1.0  0.44820  0.14470  0.56360  1.0000 -0.5121897931
O   O12       1.0  0.55180  0.14470  0.93640  1.0000 -0.5121897931
O   O13       1.0  0.55860  0.69820  0.38140  1.0000 -0.6078464414
O   O14       1.0  0.44140  0.69820  0.11860  1.0000 -0.6078464414
O   O15       1.0  0.44140  0.30180  0.61860  1.0000 -0.6078464414
O   O16       1.0  0.55860  0.30180  0.88140  1.0000 -0.6078464414
O   O17       1.0  0.37030  0.18990  0.72080  1.0000 -0.5940902556
O   O18       1.0  0.62970  0.18990  0.77920  1.0000 -0.5940902556
O   O19       1.0  0.62970  0.81010  0.27920  1.0000 -0.5940902556
O   O20       1.0  0.37030  0.81010  0.22080  1.0000 -0.5940902556
O   O21       1.0  0.27910  0.20540  0.79310  1.0000 -0.5382711317
O   O22       1.0  0.72090  0.20540  0.70690  1.0000 -0.5382711317
O   O23       1.0  0.72090  0.79460  0.20690  1.0000 -0.5382711317
O   O24       1.0  0.27910  0.79460  0.29310  1.0000 -0.5382711317
O   O25       1.0  0.28500  0.81920  0.79380  1.0000 -0.4571262176
O   O26       1.0  0.71500  0.81920  0.70620  1.0000 -0.4571262176
O   O27       1.0  0.71500  0.18080  0.20620  1.0000 -0.4571262176
O   O28       1.0  0.28500  0.18080  0.29380  1.0000 -0.4571262176
O   O29       1.0  0.94200  0.62160  0.62810  1.0000 -0.451724055
O   O30       1.0  0.05800  0.62160  0.87190  1.0000 -0.451724055
O   O31       1.0  0.05800  0.37840  0.37190  1.0000 -0.451724055
O   O32       1.0  0.94200  0.37840  0.12810  1.0000 -0.451724055
O   O33       1.0  0.92270  0.98890  0.61850  1.0000 -0.4571262176
O   O34       1.0  0.07730  0.98890  0.88150  1.0000 -0.4571262176
O   O35       1.0  0.07730  0.01110  0.38150  1.0000 -0.4571262176
O   O36       1.0  0.92270  0.01110  0.11850  1.0000 -0.4571262176
