# DDEC6 charges by PACMAN v1.1 (https://github.com/mtap-research/PACMAN-charge/)
data_2016[Dy][pcu]3[FSR]2
_chemical_formula_sum              "Dy4 H32 C48 N12 O36"
_cell_length_a       10.1414
_cell_length_b       17.3983
_cell_length_c       11.3646
_cell_angle_alpha    90
_cell_angle_beta     110.085
_cell_angle_gamma    90

_symmetry_space_group_name_H-M    "P 1"
_symmetry_Int_Tables_number       1

loop_
  _symmetry_equiv_pos_as_xyz
  'x, y, z'

loop_
  _atom_site_type_symbol
  _atom_site_label
  _atom_site_symmetry_multiplicity
  _atom_site_fract_x
  _atom_site_fract_y
  _atom_site_fract_z
  _atom_site_occupancy
  _atom_site_charge
Dy  Dy1       1.0  0.49053  0.49296  0.31872  1.0000 2.0152239032
Dy  Dy2       1.0  0.50947  0.99296  0.18128  1.0000 2.0152239032
Dy  Dy3       1.0  0.50947  0.50704  0.68128  1.0000 2.0152239032
Dy  Dy4       1.0  0.49053  0.00704  0.81872  1.0000 2.0152239032
H   H1        1.0  0.82490  0.62550  0.47480  1.0000 0.139965111
H   H2        1.0  0.17510  0.12550  0.02520  1.0000 0.139965111
H   H3        1.0  0.17510  0.37450  0.52520  1.0000 0.139965111
H   H4        1.0  0.82490  0.87450  0.97480  1.0000 0.139965111
H   H5        1.0  0.40140  0.28480  0.86350  1.0000 0.1501152865
H   H6        1.0  0.59860  0.78480  0.63650  1.0000 0.1501152865
H   H7        1.0  0.59860  0.71520  0.13650  1.0000 0.1501152865
H   H8        1.0  0.40140  0.21520  0.36350  1.0000 0.1501152865
H   H9        1.0  0.01780  0.50980  0.20880  1.0000 0.1585250697
H   H10       1.0  0.98220  0.00980  0.29120  1.0000 0.1585250697
H   H11       1.0  0.98220  0.49020  0.79120  1.0000 0.1585250697
H   H12       1.0  0.01780  0.99020  0.70880  1.0000 0.1585250697
H   H13       1.0  0.59000  0.18400  0.19650  1.0000 0.1585250697
H   H14       1.0  0.41000  0.68400  0.30350  1.0000 0.1585250697
H   H15       1.0  0.41000  0.81600  0.80350  1.0000 0.1585250697
H   H16       1.0  0.59000  0.31600  0.69650  1.0000 0.1585250697
H   H17       1.0  0.06390  0.60750  0.54010  1.0000 0.139965111
H   H18       1.0  0.93610  0.10750  0.95990  1.0000 0.139965111
H   H19       1.0  0.93610  0.39250  0.45990  1.0000 0.139965111
H   H20       1.0  0.06390  0.89250  0.04010  1.0000 0.139965111
H   H21       1.0  0.64560  0.30330  0.28650  1.0000 0.139965111
H   H22       1.0  0.35440  0.80330  0.21350  1.0000 0.139965111
H   H23       1.0  0.35440  0.69670  0.71350  1.0000 0.139965111
H   H24       1.0  0.64560  0.19670  0.78650  1.0000 0.139965111
H   H25       1.0  0.77970  0.52360  0.15340  1.0000 0.1327061482
H   H26       1.0  0.22030  0.02360  0.34660  1.0000 0.1327061482
H   H27       1.0  0.22030  0.47640  0.84660  1.0000 0.1327061482
H   H28       1.0  0.77970  0.97640  0.65340  1.0000 0.1327061482
H   H29       1.0  0.45090  0.40270  0.96010  1.0000 0.139965111
H   H30       1.0  0.54910  0.90270  0.53990  1.0000 0.139965111
H   H31       1.0  0.54910  0.59730  0.03990  1.0000 0.139965111
H   H32       1.0  0.45090  0.09730  0.46010  1.0000 0.139965111
C   C1        1.0  0.86470  0.60060  0.42270  1.0000 -0.0450695627
C   C2        1.0  0.13530  0.10060  0.07730  1.0000 -0.0450695627
C   C3        1.0  0.13530  0.39940  0.57730  1.0000 -0.0450695627
C   C4        1.0  0.86470  0.89940  0.92270  1.0000 -0.044296781
C   C5        1.0  0.46270  0.14330  0.95720  1.0000 0.6112718261
C   C6        1.0  0.53730  0.64330  0.54280  1.0000 0.6112718261
C   C7        1.0  0.53730  0.85670  0.04280  1.0000 0.6112718261
C   C8        1.0  0.46270  0.35670  0.45720  1.0000 0.6112718261
C   C9        1.0  0.44890  0.28790  0.94940  1.0000 -0.1276568923
C   C10       1.0  0.55110  0.78790  0.55060  1.0000 -0.1276568923
C   C11       1.0  0.55110  0.71210  0.05060  1.0000 -0.1276568923
C   C12       1.0  0.44890  0.21210  0.44940  1.0000 -0.1276568923
C   C13       1.0  0.98000  0.53160  0.26490  1.0000 -0.1179293864
C   C14       1.0  0.02000  0.03160  0.23510  1.0000 -0.1179293864
C   C15       1.0  0.02000  0.46840  0.73510  1.0000 -0.1179293864
C   C16       1.0  0.98000  0.96840  0.76490  1.0000 -0.1179293864
C   C17       1.0  0.56240  0.22790  0.14740  1.0000 -0.1276568923
C   C18       1.0  0.43760  0.72790  0.35260  1.0000 -0.1276568923
C   C19       1.0  0.43760  0.77210  0.85260  1.0000 -0.1276568923
C   C20       1.0  0.56240  0.27210  0.64740  1.0000 -0.1276568923
C   C21       1.0  0.00750  0.59040  0.46130  1.0000 -0.1363904946
C   C22       1.0  0.99250  0.09040  0.03870  1.0000 -0.1363904946
C   C23       1.0  0.99250  0.40960  0.53870  1.0000 -0.1363904946
C   C24       1.0  0.00750  0.90960  0.96130  1.0000 -0.1363904946
C   C25       1.0  0.22360  0.53760  0.42590  1.0000 0.6284920402
C   C26       1.0  0.77640  0.03760  0.07410  1.0000 0.6284920402
C   C27       1.0  0.77640  0.46240  0.57410  1.0000 0.6284920402
C   C28       1.0  0.22360  0.96240  0.92590  1.0000 0.6284920402
C   C29       1.0  0.06820  0.55450  0.38290  1.0000 -0.0091184624
C   C30       1.0  0.93180  0.05450  0.11710  1.0000 -0.0091184624
C   C31       1.0  0.93180  0.44550  0.61710  1.0000 -0.0091184624
C   C32       1.0  0.06820  0.94550  0.88290  1.0000 -0.0091184624
C   C33       1.0  0.59490  0.29900  0.20140  1.0000 -0.0281187095
C   C34       1.0  0.40510  0.79900  0.29860  1.0000 -0.0281187095
C   C35       1.0  0.40510  0.70100  0.79860  1.0000 -0.0281187095
C   C36       1.0  0.59490  0.20100  0.70140  1.0000 -0.0281187095
C   C37       1.0  0.48860  0.22090  0.02040  1.0000 0.0114512512
C   C38       1.0  0.51140  0.72090  0.47960  1.0000 0.0114512512
C   C39       1.0  0.51140  0.77910  0.97960  1.0000 0.0114512512
C   C40       1.0  0.48860  0.27910  0.52040  1.0000 0.0114512512
C   C41       1.0  0.83820  0.54080  0.23120  1.0000 -0.0281187095
C   C42       1.0  0.16180  0.04080  0.26880  1.0000 -0.0281187095
C   C43       1.0  0.16180  0.45920  0.76880  1.0000 -0.0281187095
C   C44       1.0  0.83820  0.95920  0.73120  1.0000 -0.0281187095
C   C45       1.0  0.48030  0.35810  0.00690  1.0000 -0.0091184624
C   C46       1.0  0.51970  0.85810  0.49310  1.0000 -0.0091184624
C   C47       1.0  0.51970  0.64190  0.99310  1.0000 -0.0091184624
C   C48       1.0  0.48030  0.14190  0.50690  1.0000 -0.0091184624
N   N1        1.0  0.26900  0.53040  0.09210  1.0000 0.7016241379
N   N2        1.0  0.73100  0.03040  0.40790  1.0000 0.7016241379
N   N3        1.0  0.73100  0.46960  0.90790  1.0000 0.7016241379
N   N4        1.0  0.26900  0.96960  0.59210  1.0000 0.7016241379
N   N5        1.0  0.55320  0.36314  0.13040  1.0000 0.3427011199
N   N6        1.0  0.44680  0.86314  0.36960  1.0000 0.3427011199
N   N7        1.0  0.44680  0.63686  0.86960  1.0000 0.3427011199
N   N8        1.0  0.55320  0.13686  0.63040  1.0000 0.3427011199
N   N9        1.0  0.78200  0.57480  0.30980  1.0000 0.333048401
N   N10       1.0  0.21800  0.07480  0.19020  1.0000 0.333048401
N   N11       1.0  0.21800  0.42520  0.69020  1.0000 0.333048401
N   N12       1.0  0.78200  0.92520  0.80980  1.0000 0.333048401
O   O1        1.0  0.27170  0.51421  0.34430  1.0000 -0.6361668878
O   O2        1.0  0.72830  0.01421  0.15570  1.0000 -0.6361668878
O   O3        1.0  0.72830  0.48579  0.65570  1.0000 -0.6361668878
O   O4        1.0  0.27170  0.98579  0.84430  1.0000 -0.6361668878
O   O5        1.0  0.29720  0.46135  0.12060  1.0000 -0.4754040115
O   O6        1.0  0.70280  0.96135  0.37940  1.0000 -0.4745066337
O   O7        1.0  0.70280  0.53865  0.87940  1.0000 -0.4745066337
O   O8        1.0  0.29720  0.03865  0.62060  1.0000 -0.4745066337
O   O9        1.0  0.29130  0.54708  0.54130  1.0000 -0.6629035794
O   O10       1.0  0.70870  0.04708  0.95870  1.0000 -0.6629035794
O   O11       1.0  0.70870  0.45292  0.45870  1.0000 -0.6629035794
O   O12       1.0  0.29130  0.95292  0.04130  1.0000 -0.6629035794
O   O13       1.0  0.64330  0.58257  0.27490  1.0000 -0.5977814816
O   O14       1.0  0.35670  0.08257  0.22510  1.0000 -0.5977814816
O   O15       1.0  0.35670  0.41743  0.72510  1.0000 -0.5977814816
O   O16       1.0  0.64330  0.91743  0.77490  1.0000 -0.5977814816
O   O17       1.0  0.58810  0.43202  0.18310  1.0000 -0.6128738993
O   O18       1.0  0.41190  0.93202  0.31690  1.0000 -0.6128738993
O   O19       1.0  0.41190  0.56798  0.81690  1.0000 -0.6128738993
O   O20       1.0  0.58810  0.06798  0.68310  1.0000 -0.6128738993
O   O21       1.0  0.43960  0.13926  0.84260  1.0000 -0.5899557941
O   O22       1.0  0.56040  0.63926  0.65740  1.0000 -0.5899557941
O   O23       1.0  0.56040  0.86074  0.15740  1.0000 -0.5899557941
O   O24       1.0  0.43960  0.36074  0.34260  1.0000 -0.5899557941
O   O25       1.0  0.47390  0.08416  0.02520  1.0000 -0.7184569411
O   O26       1.0  0.52610  0.58416  0.47480  1.0000 -0.7184569411
O   O27       1.0  0.52610  0.91584  0.97480  1.0000 -0.7184569411
O   O28       1.0  0.47390  0.41584  0.52520  1.0000 -0.7184569411
O   O29       1.0  0.35360  0.58174  0.15590  1.0000 -0.5184431695
O   O30       1.0  0.64640  0.08174  0.34410  1.0000 -0.5184431695
O   O31       1.0  0.64640  0.41826  0.84410  1.0000 -0.5184431695
O   O32       1.0  0.35360  0.91826  0.65590  1.0000 -0.5184431695
O   O33       1.0  0.16300  0.54820  0.00420  1.0000 -0.3632475905
O   O34       1.0  0.83700  0.04820  0.49580  1.0000 -0.3632475905
O   O35       1.0  0.83700  0.45180  0.99580  1.0000 -0.3632475905
O   O36       1.0  0.16300  0.95180  0.50420  1.0000 -0.3632475905
