# DDEC6 charges by PACMAN v1.1 (https://github.com/mtap-research/PACMAN-charge/)
data_2016[Co][nan]3[FSR]30
_chemical_formula_sum              "Co3 H36 C48 N10 O8"
_cell_length_a       11.583
_cell_length_b       11.74
_cell_length_c       13.638
_cell_angle_alpha    76.28
_cell_angle_beta     75.52
_cell_angle_gamma    65.567

_symmetry_space_group_name_H-M    "P 1"
_symmetry_Int_Tables_number       1

loop_
  _symmetry_equiv_pos_as_xyz
  'x, y, z'

loop_
  _atom_site_type_symbol
  _atom_site_label
  _atom_site_symmetry_multiplicity
  _atom_site_fract_x
  _atom_site_fract_y
  _atom_site_fract_z
  _atom_site_occupancy
  _atom_site_charge
Co  Co1       1.0  0.00000  0.00000  0.50000  1.0000 0.7117009423
Co  Co2       1.0  0.00000  0.50000  0.50000  1.0000 0.8994727693
Co  Co3       1.0  0.50000  0.50000  0.50000  1.0000 0.7117009423
H   H1        1.0  0.43270  0.66130  0.29510  1.0000 0.1109125231
H   H2        1.0  0.56730  0.33870  0.70490  1.0000 0.1109125231
H   H3        1.0  0.48900  0.67010  0.12310  1.0000 0.1288011228
H   H4        1.0  0.51100  0.32990  0.87690  1.0000 0.1288011228
H   H5        1.0  0.60610  0.57560  0.97390  1.0000 0.1195392416
H   H6        1.0  0.39390  0.42440  0.02610  1.0000 0.1195392416
H   H7        1.0  0.02550  0.28850  0.68860  1.0000 0.1109125231
H   H8        1.0  0.97450  0.71150  0.31140  1.0000 0.1109125231
H   H9        1.0  0.93490  0.25410  0.85690  1.0000 0.1195392416
H   H10       1.0  0.06510  0.74590  0.14310  1.0000 0.1195392416
H   H11       1.0  0.75010  0.61410  0.64410  1.0000 0.1195392416
H   H12       1.0  0.24990  0.38590  0.35590  1.0000 0.1195392416
H   H13       1.0  0.63160  0.30770  0.33790  1.0000 0.1109125231
H   H14       1.0  0.36840  0.69230  0.66210  1.0000 0.1109125231
H   H15       1.0  0.65230  0.59300  0.81060  1.0000 0.1288011228
H   H16       1.0  0.34770  0.40700  0.18940  1.0000 0.1195392416
H   H17       1.0  0.77090  0.32930  0.00340  1.0000 0.1195392416
H   H18       1.0  0.22910  0.67070  0.99660  1.0000 0.1195392416
H   H19       1.0  0.42880  0.82540  0.48120  1.0000 0.1551303825
H   H20       1.0  0.57120  0.17460  0.51880  1.0000 0.1551303825
H   H21       1.0  0.31390  0.94320  0.44150  1.0000 0.1491612754
H   H22       1.0  0.68610  0.05680  0.55850  1.0000 0.1491612754
H   H23       1.0  0.40810  0.84620  0.36800  1.0000 0.1491612754
H   H24       1.0  0.59190  0.15380  0.63200  1.0000 0.1491612754
H   H25       1.0  0.69990  0.30750  0.16890  1.0000 0.1288011228
H   H26       1.0  0.30010  0.69250  0.83110  1.0000 0.1288011228
H   H27       1.0  0.87300  0.02550  0.02680  1.0000 0.1195392416
H   H28       1.0  0.12700  0.97450  0.97320  1.0000 0.1195392416
H   H29       1.0  0.79860  0.02940  0.36710  1.0000 0.1109125231
H   H30       1.0  0.20140  0.97060  0.63290  1.0000 0.1109125231
H   H31       1.0  0.78270  0.03320  0.20620  1.0000 0.137396076
H   H32       1.0  0.21730  0.96680  0.79380  1.0000 0.137396076
H   H33       1.0  0.15330  0.99450  0.11860  1.0000 0.1288011228
H   H34       1.0  0.84670  0.00550  0.88140  1.0000 0.1288011228
H   H35       1.0  0.15610  0.00680  0.28260  1.0000 0.1195392416
H   H36       1.0  0.84390  0.99320  0.71740  1.0000 0.1195392416
C   C1        1.0  0.25120  0.48320  0.53860  1.0000 0.5495419464
C   C2        1.0  0.74880  0.51680  0.46140  1.0000 0.5495419464
C   C3        1.0  0.97730  0.75990  0.53020  1.0000 0.5437783859
C   C4        1.0  0.02270  0.24010  0.46980  1.0000 0.5437783859
C   C5        1.0  0.22660  0.62100  0.51080  1.0000 -0.0121936194
C   C6        1.0  0.77340  0.37900  0.48920  1.0000 -0.0121936194
C   C7        1.0  0.11620  0.73040  0.51060  1.0000 -0.0299311877
C   C8        1.0  0.88380  0.26960  0.48940  1.0000 -0.0299311877
C   C9        1.0  0.48910  0.58740  0.26930  1.0000 0.0790582801
C   C10       1.0  0.51090  0.41260  0.73070  1.0000 0.0790582801
C   C11       1.0  0.60100  0.48810  0.12500  1.0000 0.137396076
C   C12       1.0  0.39900  0.51190  0.87500  1.0000 0.137396076
C   C13       1.0  0.52150  0.59370  0.16550  1.0000 -0.2097580516
C   C14       1.0  0.47850  0.40630  0.83450  1.0000 -0.2097580516
C   C15       1.0  0.64560  0.49870  0.01340  1.0000 -0.1364760512
C   C16       1.0  0.35440  0.50130  0.98660  1.0000 -0.1364760512
C   C17       1.0  0.28290  0.78150  0.47030  1.0000 0.3784954212
C   C18       1.0  0.71710  0.21850  0.52970  1.0000 0.3784954212
C   C19       1.0  0.94930  0.35110  0.71340  1.0000 0.099818725
C   C20       1.0  0.05070  0.64890  0.28660  1.0000 0.099818725
C   C21       1.0  0.89680  0.33000  0.81570  1.0000 -0.2097580516
C   C22       1.0  0.10320  0.67000  0.18430  1.0000 -0.2097580516
C   C23       1.0  0.78860  0.54110  0.68800  1.0000 0.0790582801
C   C24       1.0  0.21140  0.45890  0.31200  1.0000 0.0790582801
C   C25       1.0  0.60450  0.38390  0.29410  1.0000 0.0625243596
C   C26       1.0  0.39550  0.61610  0.70590  1.0000 0.0625243596
C   C27       1.0  0.72970  0.53030  0.78780  1.0000 -0.1904007793
C   C28       1.0  0.27030  0.46970  0.21220  1.0000 -0.1904007793
C   C29       1.0  0.78840  0.42240  0.85520  1.0000 0.1491612754
C   C30       1.0  0.21160  0.57760  0.14480  1.0000 0.1491612754
C   C31       1.0  0.73660  0.40840  0.96490  1.0000 -0.1507276708
C   C32       1.0  0.26340  0.59160  0.03510  1.0000 -0.1507276708
C   C33       1.0  0.36560  0.85550  0.43740  1.0000 -0.5028538742
C   C34       1.0  0.63440  0.14450  0.56260  1.0000 -0.5028538742
C   C35       1.0  0.64310  0.38270  0.19270  1.0000 -0.2097580516
C   C36       1.0  0.35690  0.61730  0.80730  1.0000 -0.2097580516
C   C37       1.0  0.95380  0.01070  0.03900  1.0000 -0.1599478015
C   C38       1.0  0.04620  0.98930  0.96100  1.0000 -0.1599478015
C   C39       1.0  0.87030  0.02350  0.31610  1.0000 0.0494339595
C   C40       1.0  0.12970  0.97650  0.68390  1.0000 0.0494339595
C   C41       1.0  0.86070  0.02490  0.21990  1.0000 -0.1904007793
C   C42       1.0  0.13930  0.97510  0.78010  1.0000 -0.1904007793
C   C43       1.0  0.95990  0.01460  0.14370  1.0000 0.137396076
C   C44       1.0  0.04010  0.98540  0.85630  1.0000 0.137396076
C   C45       1.0  0.08010  0.00390  0.16860  1.0000 -0.2097580516
C   C46       1.0  0.91990  0.99610  0.83140  1.0000 -0.2097580516
C   C47       1.0  0.08170  0.00800  0.26740  1.0000 0.0899789891
C   C48       1.0  0.91830  0.99200  0.73260  1.0000 0.0899789891
N   N1        1.0  0.33210  0.65280  0.48680  1.0000 -0.3978271821
N   N2        1.0  0.66790  0.34720  0.51320  1.0000 -0.3978271821
N   N3        1.0  0.15470  0.82980  0.48620  1.0000 -0.3735366204
N   N4        1.0  0.84530  0.17020  0.51380  1.0000 -0.3735366204
N   N5        1.0  0.89920  0.45310  0.64870  1.0000 -0.2455504873
N   N6        1.0  0.10080  0.54690  0.35130  1.0000 -0.2455504873
N   N7        1.0  0.53100  0.48640  0.33440  1.0000 -0.2097580516
N   N8        1.0  0.46900  0.51360  0.66560  1.0000 -0.2097580516
N   N9        1.0  0.98190  0.01370  0.34330  1.0000 -0.2345202603
N   N10       1.0  0.01810  0.98630  0.65670  1.0000 -0.235478107
O   O1        1.0  0.36880  0.40890  0.53740  1.0000 -0.5275296011
O   O2        1.0  0.63120  0.59110  0.46260  1.0000 -0.5275296011
O   O3        1.0  0.92910  0.68190  0.53070  1.0000 -0.5275296011
O   O4        1.0  0.07090  0.31810  0.46930  1.0000 -0.5275296011
O   O5        1.0  0.90580  0.87490  0.53830  1.0000 -0.5231629053
O   O6        1.0  0.09420  0.12510  0.46170  1.0000 -0.5231629053
O   O7        1.0  0.16090  0.44520  0.56220  1.0000 -0.5275296011
O   O8        1.0  0.83910  0.55480  0.43780  1.0000 -0.5275296011
