# DDEC6 charges by PACMAN v1.1 (https://github.com/mtap-research/PACMAN-charge/)
data_2016[Co][nan]3[FSR]22
_chemical_formula_sum              "Co16 H156 C252 S4 N48 O40 F12"
_cell_length_a       23.7773
_cell_length_b       23.7773
_cell_length_c       23.7773
_cell_angle_alpha    90
_cell_angle_beta     90
_cell_angle_gamma    90

_symmetry_space_group_name_H-M    "P 1"
_symmetry_Int_Tables_number       1

loop_
  _symmetry_equiv_pos_as_xyz
  'x, y, z'

loop_
  _atom_site_type_symbol
  _atom_site_label
  _atom_site_symmetry_multiplicity
  _atom_site_fract_x
  _atom_site_fract_y
  _atom_site_fract_z
  _atom_site_occupancy
  _atom_site_charge
Co  Co1       1.0  0.01127  0.51127  0.98873  1.0000 1.0413048923
Co  Co2       1.0  0.48873  0.48873  0.48873  1.0000 1.0413048923
Co  Co3       1.0  0.98873  0.01127  0.51127  1.0000 1.0413048923
Co  Co4       1.0  0.51127  0.98873  0.01127  1.0000 1.0413048923
Co  Co5       1.0  0.00660  0.55986  0.86587  1.0000 0.9072391997
Co  Co6       1.0  0.49340  0.44014  0.36587  1.0000 0.9072391997
Co  Co7       1.0  0.99340  0.05986  0.63413  1.0000 0.9072391997
Co  Co8       1.0  0.50660  0.94014  0.13413  1.0000 0.9072391997
Co  Co9       1.0  0.86587  0.00660  0.55986  1.0000 0.9072391997
Co  Co10      1.0  0.36587  0.49340  0.44014  1.0000 0.9072391997
Co  Co11      1.0  0.63413  0.99340  0.05986  1.0000 0.9072391997
Co  Co12      1.0  0.13413  0.50660  0.94014  1.0000 0.9072391997
Co  Co13      1.0  0.55986  0.86587  0.00660  1.0000 0.9072391997
Co  Co14      1.0  0.44014  0.36587  0.49340  1.0000 0.9072391997
Co  Co15      1.0  0.05986  0.63413  0.99340  1.0000 0.9072391997
Co  Co16      1.0  0.94014  0.13413  0.50660  1.0000 0.9072391997
H   H1        1.0  0.83960  0.43290  0.98200  1.0000 0.1333997309
H   H2        1.0  0.66040  0.56710  0.48200  1.0000 0.1333997309
H   H3        1.0  0.16040  0.93290  0.51800  1.0000 0.1333997309
H   H4        1.0  0.33960  0.06710  0.01800  1.0000 0.1333997309
H   H5        1.0  0.98200  0.83960  0.43290  1.0000 0.1333997309
H   H6        1.0  0.48200  0.66040  0.56710  1.0000 0.1333997309
H   H7        1.0  0.51800  0.16040  0.93290  1.0000 0.1333997309
H   H8        1.0  0.01800  0.33960  0.06710  1.0000 0.1333997309
H   H9        1.0  0.43290  0.98200  0.83960  1.0000 0.1333997309
H   H10       1.0  0.56710  0.48200  0.66040  1.0000 0.1333997309
H   H11       1.0  0.93290  0.51800  0.16040  1.0000 0.1333997309
H   H12       1.0  0.06710  0.01800  0.33960  1.0000 0.1333997309
H   H13       1.0  0.75420  0.39120  0.96160  1.0000 0.1119347883
H   H14       1.0  0.74580  0.60880  0.46160  1.0000 0.1119347883
H   H15       1.0  0.24580  0.89120  0.53840  1.0000 0.1119347883
H   H16       1.0  0.25420  0.10880  0.03840  1.0000 0.1119347883
H   H17       1.0  0.96160  0.75420  0.39120  1.0000 0.1119347883
H   H18       1.0  0.46160  0.74580  0.60880  1.0000 0.1119347883
H   H19       1.0  0.53840  0.24580  0.89120  1.0000 0.1119347883
H   H20       1.0  0.03840  0.25420  0.10880  1.0000 0.1119347883
H   H21       1.0  0.39120  0.96160  0.75420  1.0000 0.1119347883
H   H22       1.0  0.60880  0.46160  0.74580  1.0000 0.1119347883
H   H23       1.0  0.89120  0.53840  0.24580  1.0000 0.1119347883
H   H24       1.0  0.10880  0.03840  0.25420  1.0000 0.1119347883
H   H25       1.0  0.77250  0.43530  0.79950  1.0000 0.1119347883
H   H26       1.0  0.72750  0.56470  0.29950  1.0000 0.1119347883
H   H27       1.0  0.22750  0.93530  0.70050  1.0000 0.1119347883
H   H28       1.0  0.27250  0.06470  0.20050  1.0000 0.1119347883
H   H29       1.0  0.79950  0.77250  0.43530  1.0000 0.1119347883
H   H30       1.0  0.29950  0.72750  0.56470  1.0000 0.1119347883
H   H31       1.0  0.70050  0.22750  0.93530  1.0000 0.1119347883
H   H32       1.0  0.20050  0.27250  0.06470  1.0000 0.1119347883
H   H33       1.0  0.43530  0.79950  0.77250  1.0000 0.1119347883
H   H34       1.0  0.56470  0.29950  0.72750  1.0000 0.1119347883
H   H35       1.0  0.93530  0.70050  0.22750  1.0000 0.1119347883
H   H36       1.0  0.06470  0.20050  0.27250  1.0000 0.1119347883
H   H37       1.0  0.85840  0.47640  0.82050  1.0000 0.1168075007
H   H38       1.0  0.64160  0.52360  0.32050  1.0000 0.1168075007
H   H39       1.0  0.14160  0.97640  0.67950  1.0000 0.1168075007
H   H40       1.0  0.35840  0.02360  0.17950  1.0000 0.1168075007
H   H41       1.0  0.82050  0.85840  0.47640  1.0000 0.1168075007
H   H42       1.0  0.32050  0.64160  0.52360  1.0000 0.1168075007
H   H43       1.0  0.67950  0.14160  0.97640  1.0000 0.1168075007
H   H44       1.0  0.17950  0.35840  0.02360  1.0000 0.1168075007
H   H45       1.0  0.47640  0.82050  0.85840  1.0000 0.1168075007
H   H46       1.0  0.52360  0.32050  0.64160  1.0000 0.1168075007
H   H47       1.0  0.97640  0.67950  0.14160  1.0000 0.1168075007
H   H48       1.0  0.02360  0.17950  0.35840  1.0000 0.1168075007
H   H49       1.0  0.68060  0.42550  0.79600  1.0000 0.1119347883
H   H50       1.0  0.81940  0.57450  0.29600  1.0000 0.1119347883
H   H51       1.0  0.31940  0.92550  0.70400  1.0000 0.1119347883
H   H52       1.0  0.18060  0.07450  0.20400  1.0000 0.1119347883
H   H53       1.0  0.79600  0.68060  0.42550  1.0000 0.1119347883
H   H54       1.0  0.29600  0.81940  0.57450  1.0000 0.1119347883
H   H55       1.0  0.70400  0.31940  0.92550  1.0000 0.1119347883
H   H56       1.0  0.20400  0.18060  0.07450  1.0000 0.1119347883
H   H57       1.0  0.42550  0.79600  0.68060  1.0000 0.1119347883
H   H58       1.0  0.57450  0.29600  0.81940  1.0000 0.1119347883
H   H59       1.0  0.92550  0.70400  0.31940  1.0000 0.1119347883
H   H60       1.0  0.07450  0.20400  0.18060  1.0000 0.1119347883
H   H61       1.0  0.96280  0.47220  0.78270  1.0000 0.1119347883
H   H62       1.0  0.53720  0.52780  0.28270  1.0000 0.1119347883
H   H63       1.0  0.03720  0.97220  0.71730  1.0000 0.1119347883
H   H64       1.0  0.46280  0.02780  0.21730  1.0000 0.1119347883
H   H65       1.0  0.78270  0.96280  0.47220  1.0000 0.1119347883
H   H66       1.0  0.28270  0.53720  0.52780  1.0000 0.1119347883
H   H67       1.0  0.71730  0.03720  0.97220  1.0000 0.1119347883
H   H68       1.0  0.21730  0.46280  0.02780  1.0000 0.1119347883
H   H69       1.0  0.47220  0.78270  0.96280  1.0000 0.1119347883
H   H70       1.0  0.52780  0.28270  0.53720  1.0000 0.1119347883
H   H71       1.0  0.97220  0.71730  0.03720  1.0000 0.1119347883
H   H72       1.0  0.02780  0.21730  0.46280  1.0000 0.1119347883
H   H73       1.0  0.98810  0.42370  0.70290  1.0000 0.1365284961
H   H74       1.0  0.51190  0.57630  0.20290  1.0000 0.1365284961
H   H75       1.0  0.01190  0.92370  0.79710  1.0000 0.1365284961
H   H76       1.0  0.48810  0.07630  0.29710  1.0000 0.1365284961
H   H77       1.0  0.70290  0.98810  0.42370  1.0000 0.1365284961
H   H78       1.0  0.20290  0.51190  0.57630  1.0000 0.1365284961
H   H79       1.0  0.79710  0.01190  0.92370  1.0000 0.1365284961
H   H80       1.0  0.29710  0.48810  0.07630  1.0000 0.1365284961
H   H81       1.0  0.42370  0.70290  0.98810  1.0000 0.1365284961
H   H82       1.0  0.57630  0.20290  0.51190  1.0000 0.1365284961
H   H83       1.0  0.92370  0.79710  0.01190  1.0000 0.1365284961
H   H84       1.0  0.07630  0.29710  0.48810  1.0000 0.1365284961
H   H85       1.0  0.13230  0.50800  0.70260  1.0000 0.1365284961
H   H86       1.0  0.36770  0.49200  0.20260  1.0000 0.1365284961
H   H87       1.0  0.86770  0.00800  0.79740  1.0000 0.1365284961
H   H88       1.0  0.63230  0.99200  0.29740  1.0000 0.1365284961
H   H89       1.0  0.70260  0.13230  0.50800  1.0000 0.1365284961
H   H90       1.0  0.20260  0.36770  0.49200  1.0000 0.1365284961
H   H91       1.0  0.79740  0.86770  0.00800  1.0000 0.1365284961
H   H92       1.0  0.29740  0.63230  0.99200  1.0000 0.1365284961
H   H93       1.0  0.50800  0.70260  0.13230  1.0000 0.1365284961
H   H94       1.0  0.49200  0.20260  0.36770  1.0000 0.1365284961
H   H95       1.0  0.00800  0.79740  0.86770  1.0000 0.1365284961
H   H96       1.0  0.99200  0.29740  0.63230  1.0000 0.1365284961
H   H97       1.0  0.10020  0.55720  0.77960  1.0000 0.1119347883
H   H98       1.0  0.39980  0.44280  0.27960  1.0000 0.1119347883
H   H99       1.0  0.89980  0.05720  0.72040  1.0000 0.1119347883
H   H100      1.0  0.60020  0.94280  0.22040  1.0000 0.1119347883
H   H101      1.0  0.77960  0.10020  0.55720  1.0000 0.1119347883
H   H102      1.0  0.27960  0.39980  0.44280  1.0000 0.1119347883
H   H103      1.0  0.72040  0.89980  0.05720  1.0000 0.1119347883
H   H104      1.0  0.22040  0.60020  0.94280  1.0000 0.1119347883
H   H105      1.0  0.55720  0.77960  0.10020  1.0000 0.1119347883
H   H106      1.0  0.44280  0.27960  0.39980  1.0000 0.1119347883
H   H107      1.0  0.05720  0.72040  0.89980  1.0000 0.1119347883
H   H108      1.0  0.94280  0.22040  0.60020  1.0000 0.1119347883
H   H109      1.0  0.98800  0.65330  0.77370  1.0000 0.1168075007
H   H110      1.0  0.51200  0.34670  0.27370  1.0000 0.1168075007
H   H111      1.0  0.01200  0.15330  0.72630  1.0000 0.1168075007
H   H112      1.0  0.48800  0.84670  0.22630  1.0000 0.1168075007
H   H113      1.0  0.77370  0.98800  0.65330  1.0000 0.1168075007
H   H114      1.0  0.27370  0.51200  0.34670  1.0000 0.1168075007
H   H115      1.0  0.72630  0.01200  0.15330  1.0000 0.1168075007
H   H116      1.0  0.22630  0.48800  0.84670  1.0000 0.1168075007
H   H117      1.0  0.65330  0.77370  0.98800  1.0000 0.1168075007
H   H118      1.0  0.34670  0.27370  0.51200  1.0000 0.1168075007
H   H119      1.0  0.15330  0.72630  0.01200  1.0000 0.1168075007
H   H120      1.0  0.84670  0.22630  0.48800  1.0000 0.1168075007
H   H121      1.0  0.93200  0.73030  0.75810  1.0000 0.1365284961
H   H122      1.0  0.56800  0.26970  0.25810  1.0000 0.1365284961
H   H123      1.0  0.06800  0.23030  0.74190  1.0000 0.1365284961
H   H124      1.0  0.43200  0.76970  0.24190  1.0000 0.1365284961
H   H125      1.0  0.75810  0.93200  0.73030  1.0000 0.1365284961
H   H126      1.0  0.25810  0.56800  0.26970  1.0000 0.1365284961
H   H127      1.0  0.74190  0.06800  0.23030  1.0000 0.1365284961
H   H128      1.0  0.24190  0.43200  0.76970  1.0000 0.1365284961
H   H129      1.0  0.73030  0.75810  0.93200  1.0000 0.1365284961
H   H130      1.0  0.26970  0.25810  0.56800  1.0000 0.1365284961
H   H131      1.0  0.23030  0.74190  0.06800  1.0000 0.1365284961
H   H132      1.0  0.76970  0.24190  0.43200  1.0000 0.1365284961
H   H133      1.0  0.83890  0.68370  0.89130  1.0000 0.1365284961
H   H134      1.0  0.66110  0.31630  0.39130  1.0000 0.1365284961
H   H135      1.0  0.16110  0.18370  0.60870  1.0000 0.1365284961
H   H136      1.0  0.33890  0.81630  0.10870  1.0000 0.1365284961
H   H137      1.0  0.89130  0.83890  0.68370  1.0000 0.1365284961
H   H138      1.0  0.39130  0.66110  0.31630  1.0000 0.1365284961
H   H139      1.0  0.60870  0.16110  0.18370  1.0000 0.1365284961
H   H140      1.0  0.10870  0.33890  0.81630  1.0000 0.1365284961
H   H141      1.0  0.68370  0.89130  0.83890  1.0000 0.1365284961
H   H142      1.0  0.31630  0.39130  0.66110  1.0000 0.1365284961
H   H143      1.0  0.18370  0.60870  0.16110  1.0000 0.1365284961
H   H144      1.0  0.81630  0.10870  0.33890  1.0000 0.1365284961
H   H145      1.0  0.89730  0.60810  0.90320  1.0000 0.1168075007
H   H146      1.0  0.60270  0.39190  0.40320  1.0000 0.1168075007
H   H147      1.0  0.10270  0.10810  0.59680  1.0000 0.1168075007
H   H148      1.0  0.39730  0.89190  0.09680  1.0000 0.1168075007
H   H149      1.0  0.90320  0.89730  0.60810  1.0000 0.1168075007
H   H150      1.0  0.40320  0.60270  0.39190  1.0000 0.1168075007
H   H151      1.0  0.59680  0.10270  0.10810  1.0000 0.1168075007
H   H152      1.0  0.09680  0.39730  0.89190  1.0000 0.1168075007
H   H153      1.0  0.60810  0.90320  0.89730  1.0000 0.1168075007
H   H154      1.0  0.39190  0.40320  0.60270  1.0000 0.1168075007
H   H155      1.0  0.10810  0.59680  0.10270  1.0000 0.1168075007
H   H156      1.0  0.89190  0.09680  0.39730  1.0000 0.1168075007
C   C1        1.0  0.91442  0.48498  0.91549  1.0000 0.5822805822
C   C2        1.0  0.58558  0.51502  0.41549  1.0000 0.5822805822
C   C3        1.0  0.08558  0.98498  0.58451  1.0000 0.5822805822
C   C4        1.0  0.41442  0.01502  0.08451  1.0000 0.5822805822
C   C5        1.0  0.91549  0.91442  0.48498  1.0000 0.5822805822
C   C6        1.0  0.41549  0.58558  0.51502  1.0000 0.5822805822
C   C7        1.0  0.58451  0.08558  0.98498  1.0000 0.5822805822
C   C8        1.0  0.08451  0.41442  0.01502  1.0000 0.5822805822
C   C9        1.0  0.48498  0.91549  0.91442  1.0000 0.5822805822
C   C10       1.0  0.51502  0.41549  0.58558  1.0000 0.5822805822
C   C11       1.0  0.98498  0.58451  0.08558  1.0000 0.5822805822
C   C12       1.0  0.01502  0.08451  0.41442  1.0000 0.5822805822
C   C13       1.0  0.85791  0.45891  0.90327  1.0000 -0.0335296631
C   C14       1.0  0.64209  0.54109  0.40327  1.0000 -0.0335296631
C   C15       1.0  0.14209  0.95891  0.59673  1.0000 -0.0335296631
C   C16       1.0  0.35791  0.04109  0.09673  1.0000 -0.0335296631
C   C17       1.0  0.90327  0.85791  0.45891  1.0000 -0.0335296631
C   C18       1.0  0.40327  0.64209  0.54109  1.0000 -0.0335296631
C   C19       1.0  0.59673  0.14209  0.95891  1.0000 -0.0335296631
C   C20       1.0  0.09673  0.35791  0.04109  1.0000 -0.0335296631
C   C21       1.0  0.45891  0.90327  0.85791  1.0000 -0.0335296631
C   C22       1.0  0.54109  0.40327  0.64209  1.0000 -0.0335296631
C   C23       1.0  0.95891  0.59673  0.14209  1.0000 -0.0335296631
C   C24       1.0  0.04109  0.09673  0.35791  1.0000 -0.0335296631
C   C25       1.0  0.82630  0.43330  0.94521  1.0000 -0.0929745488
C   C26       1.0  0.67370  0.56670  0.44521  1.0000 -0.0929745488
C   C27       1.0  0.17370  0.93330  0.55479  1.0000 -0.0929745488
C   C28       1.0  0.32630  0.06670  0.05479  1.0000 -0.0929745488
C   C29       1.0  0.94521  0.82630  0.43330  1.0000 -0.0929745488
C   C30       1.0  0.44521  0.67370  0.56670  1.0000 -0.0929745488
C   C31       1.0  0.55479  0.17370  0.93330  1.0000 -0.0929745488
C   C32       1.0  0.05479  0.32630  0.06670  1.0000 -0.0929745488
C   C33       1.0  0.43330  0.94521  0.82630  1.0000 -0.0929745488
C   C34       1.0  0.56670  0.44521  0.67370  1.0000 -0.0929745488
C   C35       1.0  0.93330  0.55479  0.17370  1.0000 -0.0929745488
C   C36       1.0  0.06670  0.05479  0.32630  1.0000 -0.0929745488
C   C37       1.0  0.77470  0.40810  0.93290  1.0000 -0.1548462898
C   C38       1.0  0.72530  0.59190  0.43290  1.0000 -0.1548462898
C   C39       1.0  0.22530  0.90810  0.56710  1.0000 -0.1564847342
C   C40       1.0  0.27470  0.09190  0.06710  1.0000 -0.1548462898
C   C41       1.0  0.93290  0.77470  0.40810  1.0000 -0.1548462898
C   C42       1.0  0.43290  0.72530  0.59190  1.0000 -0.1548462898
C   C43       1.0  0.56710  0.22530  0.90810  1.0000 -0.1548462898
C   C44       1.0  0.06710  0.27470  0.09190  1.0000 -0.1564847342
C   C45       1.0  0.40810  0.93290  0.77470  1.0000 -0.1548462898
C   C46       1.0  0.59190  0.43290  0.72530  1.0000 -0.1548462898
C   C47       1.0  0.90810  0.56710  0.22530  1.0000 -0.1548462898
C   C48       1.0  0.09190  0.06710  0.27470  1.0000 -0.1548462898
C   C49       1.0  0.75360  0.40800  0.87860  1.0000 0.067701879
C   C50       1.0  0.74640  0.59200  0.37860  1.0000 0.067701879
C   C51       1.0  0.24640  0.90800  0.62140  1.0000 0.067701879
C   C52       1.0  0.25360  0.09200  0.12140  1.0000 0.067701879
C   C53       1.0  0.87860  0.75360  0.40800  1.0000 0.067701879
C   C54       1.0  0.37860  0.74640  0.59200  1.0000 0.067701879
C   C55       1.0  0.62140  0.24640  0.90800  1.0000 0.067701879
C   C56       1.0  0.12140  0.25360  0.09200  1.0000 0.067701879
C   C57       1.0  0.40800  0.87860  0.75360  1.0000 0.067701879
C   C58       1.0  0.59200  0.37860  0.74640  1.0000 0.067701879
C   C59       1.0  0.90800  0.62140  0.24640  1.0000 0.067701879
C   C60       1.0  0.09200  0.12140  0.25360  1.0000 0.067701879
C   C61       1.0  0.78590  0.43450  0.83620  1.0000 -0.1564847342
C   C62       1.0  0.71410  0.56550  0.33620  1.0000 -0.1564847342
C   C63       1.0  0.21410  0.93450  0.66380  1.0000 -0.1564847342
C   C64       1.0  0.28590  0.06550  0.16380  1.0000 -0.1564847342
C   C65       1.0  0.83620  0.78590  0.43450  1.0000 -0.1564847342
C   C66       1.0  0.33620  0.71410  0.56550  1.0000 -0.1564847342
C   C67       1.0  0.66380  0.21410  0.93450  1.0000 -0.1564847342
C   C68       1.0  0.16380  0.28590  0.06550  1.0000 -0.1564847342
C   C69       1.0  0.43450  0.83620  0.78590  1.0000 -0.1564847342
C   C70       1.0  0.56550  0.33620  0.71410  1.0000 -0.1564847342
C   C71       1.0  0.93450  0.66380  0.21410  1.0000 -0.1564847342
C   C72       1.0  0.06550  0.16380  0.28590  1.0000 -0.1564847342
C   C73       1.0  0.83750  0.45940  0.84890  1.0000 -0.104190785
C   C74       1.0  0.66250  0.54060  0.34890  1.0000 -0.104190785
C   C75       1.0  0.16250  0.95940  0.65110  1.0000 -0.104190785
C   C76       1.0  0.33750  0.04060  0.15110  1.0000 -0.104190785
C   C77       1.0  0.84890  0.83750  0.45940  1.0000 -0.104190785
C   C78       1.0  0.34890  0.66250  0.54060  1.0000 -0.104190785
C   C79       1.0  0.65110  0.16250  0.95940  1.0000 -0.104190785
C   C80       1.0  0.15110  0.33750  0.04060  1.0000 -0.104190785
C   C81       1.0  0.45940  0.84890  0.83750  1.0000 -0.104190785
C   C82       1.0  0.54060  0.34890  0.66250  1.0000 -0.104190785
C   C83       1.0  0.95940  0.65110  0.16250  1.0000 -0.104190785
C   C84       1.0  0.04060  0.15110  0.33750  1.0000 -0.104190785
C   C85       1.0  0.70078  0.37790  0.86340  1.0000 0.0794719123
C   C86       1.0  0.79922  0.62210  0.36340  1.0000 0.0794719123
C   C87       1.0  0.29922  0.87790  0.63660  1.0000 0.0794719123
C   C88       1.0  0.20078  0.12210  0.13660  1.0000 0.0794719123
C   C89       1.0  0.86340  0.70078  0.37790  1.0000 0.0794719123
C   C90       1.0  0.36340  0.79922  0.62210  1.0000 0.0794719123
C   C91       1.0  0.63660  0.29922  0.87790  1.0000 0.0794719123
C   C92       1.0  0.13660  0.20078  0.12210  1.0000 0.0794719123
C   C93       1.0  0.37790  0.86340  0.70078  1.0000 0.0794719123
C   C94       1.0  0.62210  0.36340  0.79922  1.0000 0.0794719123
C   C95       1.0  0.87790  0.63660  0.29922  1.0000 0.0794719123
C   C96       1.0  0.12210  0.13660  0.20078  1.0000 0.0794719123
C   C97       1.0  0.66960  0.39390  0.81640  1.0000 -0.2051294945
C   C98       1.0  0.83040  0.60610  0.31640  1.0000 -0.2051294945
C   C99       1.0  0.33040  0.89390  0.68360  1.0000 -0.2051294945
C   C100      1.0  0.16960  0.10610  0.18360  1.0000 -0.2051294945
C   C101      1.0  0.81640  0.66960  0.39390  1.0000 -0.2051294945
C   C102      1.0  0.31640  0.83040  0.60610  1.0000 -0.2051294945
C   C103      1.0  0.68360  0.33040  0.89390  1.0000 -0.2051294945
C   C104      1.0  0.18360  0.16960  0.10610  1.0000 -0.2051294945
C   C105      1.0  0.39390  0.81640  0.66960  1.0000 -0.2051294945
C   C106      1.0  0.60610  0.31640  0.83040  1.0000 -0.2051294945
C   C107      1.0  0.89390  0.68360  0.33040  1.0000 -0.2051294945
C   C108      1.0  0.10610  0.18360  0.16960  1.0000 -0.2051294945
C   C109      1.0  0.99710  0.48040  0.76580  1.0000 0.0794719123
C   C110      1.0  0.50290  0.51960  0.26580  1.0000 0.0794719123
C   C111      1.0  0.00290  0.98040  0.73420  1.0000 0.0794719123
C   C112      1.0  0.49710  0.01960  0.23420  1.0000 0.0794719123
C   C113      1.0  0.76580  0.99710  0.48040  1.0000 0.0794719123
C   C114      1.0  0.26580  0.50290  0.51960  1.0000 0.0794719123
C   C115      1.0  0.73420  0.00290  0.98040  1.0000 0.0794719123
C   C116      1.0  0.23420  0.49710  0.01960  1.0000 0.0794719123
C   C117      1.0  0.48040  0.76580  0.99710  1.0000 0.0794719123
C   C118      1.0  0.51960  0.26580  0.50290  1.0000 0.0794719123
C   C119      1.0  0.98040  0.73420  0.00290  1.0000 0.0794719123
C   C120      1.0  0.01960  0.23420  0.49710  1.0000 0.0794719123
C   C121      1.0  0.01240  0.45020  0.71840  1.0000 -0.1684162743
C   C122      1.0  0.48760  0.54980  0.21840  1.0000 -0.1684162743
C   C123      1.0  0.98760  0.95020  0.78160  1.0000 -0.1684162743
C   C124      1.0  0.51240  0.04980  0.28160  1.0000 -0.1684162743
C   C125      1.0  0.71840  0.01240  0.45020  1.0000 -0.1684162743
C   C126      1.0  0.21840  0.48760  0.54980  1.0000 -0.1684162743
C   C127      1.0  0.78160  0.98760  0.95020  1.0000 -0.1684162743
C   C128      1.0  0.28160  0.51240  0.04980  1.0000 -0.1684162743
C   C129      1.0  0.45020  0.71840  0.01240  1.0000 -0.1684162743
C   C130      1.0  0.54980  0.21840  0.48760  1.0000 -0.1684162743
C   C131      1.0  0.95020  0.78160  0.98760  1.0000 -0.1684162743
C   C132      1.0  0.04980  0.28160  0.51240  1.0000 -0.1684162743
C   C133      1.0  0.06365  0.45992  0.69468  1.0000 0.055131866
C   C134      1.0  0.43635  0.54008  0.19468  1.0000 0.055131866
C   C135      1.0  0.93635  0.95992  0.80532  1.0000 0.0545533471
C   C136      1.0  0.56365  0.04008  0.30532  1.0000 0.055131866
C   C137      1.0  0.69468  0.06365  0.45992  1.0000 0.0545533471
C   C138      1.0  0.19468  0.43635  0.54008  1.0000 0.055131866
C   C139      1.0  0.80532  0.93635  0.95992  1.0000 0.055131866
C   C140      1.0  0.30532  0.56365  0.04008  1.0000 0.055131866
C   C141      1.0  0.45992  0.69468  0.06365  1.0000 0.055131866
C   C142      1.0  0.54008  0.19468  0.43635  1.0000 0.0545533471
C   C143      1.0  0.95992  0.80532  0.93635  1.0000 0.055131866
C   C144      1.0  0.04008  0.30532  0.56365  1.0000 0.055131866
C   C145      1.0  0.09700  0.50020  0.71770  1.0000 -0.1684162743
C   C146      1.0  0.40300  0.49980  0.21770  1.0000 -0.1684162743
C   C147      1.0  0.90300  0.00020  0.78230  1.0000 -0.1684162743
C   C148      1.0  0.59700  0.99980  0.28230  1.0000 -0.1684162743
C   C149      1.0  0.71770  0.09700  0.50020  1.0000 -0.1684162743
C   C150      1.0  0.21770  0.40300  0.49980  1.0000 -0.1684162743
C   C151      1.0  0.78230  0.90300  0.00020  1.0000 -0.1684162743
C   C152      1.0  0.28230  0.59700  0.99980  1.0000 -0.1684162743
C   C153      1.0  0.50020  0.71770  0.09700  1.0000 -0.1684162743
C   C154      1.0  0.49980  0.21770  0.40300  1.0000 -0.1684162743
C   C155      1.0  0.00020  0.78230  0.90300  1.0000 -0.1684162743
C   C156      1.0  0.99980  0.28230  0.59700  1.0000 -0.1684162743
C   C157      1.0  0.07730  0.52930  0.76440  1.0000 0.1000000522
C   C158      1.0  0.42270  0.47070  0.26440  1.0000 0.1000000522
C   C159      1.0  0.92270  0.02930  0.73560  1.0000 0.1000000522
C   C160      1.0  0.57730  0.97070  0.23560  1.0000 0.1000000522
C   C161      1.0  0.76440  0.07730  0.52930  1.0000 0.1000000522
C   C162      1.0  0.26440  0.42270  0.47070  1.0000 0.1000000522
C   C163      1.0  0.73560  0.92270  0.02930  1.0000 0.1000000522
C   C164      1.0  0.23560  0.57730  0.97070  1.0000 0.1000000522
C   C165      1.0  0.52930  0.76440  0.07730  1.0000 0.1000000522
C   C166      1.0  0.47070  0.26440  0.42270  1.0000 0.1000000522
C   C167      1.0  0.02930  0.73560  0.92270  1.0000 0.1000000522
C   C168      1.0  0.97070  0.23560  0.57730  1.0000 0.1000000522
C   C169      1.0  0.08337  0.42720  0.64384  1.0000 0.3583296299
C   C170      1.0  0.41663  0.57280  0.14384  1.0000 0.3583296299
C   C171      1.0  0.91663  0.92720  0.85616  1.0000 0.3583296299
C   C172      1.0  0.58337  0.07280  0.35616  1.0000 0.3583296299
C   C173      1.0  0.64384  0.08337  0.42720  1.0000 0.3583296299
C   C174      1.0  0.14384  0.41663  0.57280  1.0000 0.3583296299
C   C175      1.0  0.85616  0.91663  0.92720  1.0000 0.3583296299
C   C176      1.0  0.35616  0.58337  0.07280  1.0000 0.3583296299
C   C177      1.0  0.42720  0.64384  0.08337  1.0000 0.3583296299
C   C178      1.0  0.57280  0.14384  0.41663  1.0000 0.3583296299
C   C179      1.0  0.92720  0.85616  0.91663  1.0000 0.3583296299
C   C180      1.0  0.07280  0.35616  0.58337  1.0000 0.3583296299
C   C181      1.0  0.95779  0.65970  0.79774  1.0000 0.1000000522
C   C182      1.0  0.54221  0.34030  0.29774  1.0000 0.1000000522
C   C183      1.0  0.04221  0.15970  0.70226  1.0000 0.1000000522
C   C184      1.0  0.45779  0.84030  0.20226  1.0000 0.1000000522
C   C185      1.0  0.79774  0.95779  0.65970  1.0000 0.1000000522
C   C186      1.0  0.29774  0.54221  0.34030  1.0000 0.1000000522
C   C187      1.0  0.70226  0.04221  0.15970  1.0000 0.1000000522
C   C188      1.0  0.20226  0.45779  0.84030  1.0000 0.1000000522
C   C189      1.0  0.65970  0.79774  0.95779  1.0000 0.1000000522
C   C190      1.0  0.34030  0.29774  0.54221  1.0000 0.1000000522
C   C191      1.0  0.15970  0.70226  0.04221  1.0000 0.1000000522
C   C192      1.0  0.84030  0.20226  0.45779  1.0000 0.1000000522
C   C193      1.0  0.92409  0.70590  0.78770  1.0000 -0.177401302
C   C194      1.0  0.57591  0.29410  0.28770  1.0000 -0.177401302
C   C195      1.0  0.07591  0.20590  0.71230  1.0000 -0.177401302
C   C196      1.0  0.42409  0.79410  0.21230  1.0000 -0.177401302
C   C197      1.0  0.78770  0.92409  0.70590  1.0000 -0.177401302
C   C198      1.0  0.28770  0.57591  0.29410  1.0000 -0.177401302
C   C199      1.0  0.71230  0.07591  0.20590  1.0000 -0.177401302
C   C200      1.0  0.21230  0.42409  0.79410  1.0000 -0.177401302
C   C201      1.0  0.70590  0.78770  0.92409  1.0000 -0.177401302
C   C202      1.0  0.29410  0.28770  0.57591  1.0000 -0.177401302
C   C203      1.0  0.20590  0.71230  0.07591  1.0000 -0.177401302
C   C204      1.0  0.79410  0.21230  0.42409  1.0000 -0.177401302
C   C205      1.0  0.87823  0.71513  0.82252  1.0000 0.055131866
C   C206      1.0  0.62177  0.28487  0.32252  1.0000 0.055131866
C   C207      1.0  0.12177  0.21513  0.67748  1.0000 0.055131866
C   C208      1.0  0.37823  0.78487  0.17748  1.0000 0.055131866
C   C209      1.0  0.82252  0.87823  0.71513  1.0000 0.055131866
C   C210      1.0  0.32252  0.62177  0.28487  1.0000 0.055131866
C   C211      1.0  0.67748  0.12177  0.21513  1.0000 0.055131866
C   C212      1.0  0.17748  0.37823  0.78487  1.0000 0.055131866
C   C213      1.0  0.71513  0.82252  0.87823  1.0000 0.055131866
C   C214      1.0  0.28487  0.32252  0.62177  1.0000 0.055131866
C   C215      1.0  0.21513  0.67748  0.12177  1.0000 0.055131866
C   C216      1.0  0.78487  0.17748  0.37823  1.0000 0.055131866
C   C217      1.0  0.86890  0.67810  0.86680  1.0000 -0.1684162743
C   C218      1.0  0.63110  0.32190  0.36680  1.0000 -0.1684162743
C   C219      1.0  0.13110  0.17810  0.63320  1.0000 -0.1684162743
C   C220      1.0  0.36890  0.82190  0.13320  1.0000 -0.1684162743
C   C221      1.0  0.86680  0.86890  0.67810  1.0000 -0.1684162743
C   C222      1.0  0.36680  0.63110  0.32190  1.0000 -0.1684162743
C   C223      1.0  0.63320  0.13110  0.17810  1.0000 -0.1684162743
C   C224      1.0  0.13320  0.36890  0.82190  1.0000 -0.1684162743
C   C225      1.0  0.67810  0.86680  0.86890  1.0000 -0.1684162743
C   C226      1.0  0.32190  0.36680  0.63110  1.0000 -0.1684162743
C   C227      1.0  0.17810  0.63320  0.13110  1.0000 -0.1684162743
C   C228      1.0  0.82190  0.13320  0.36890  1.0000 -0.1684162743
C   C229      1.0  0.90440  0.63310  0.87400  1.0000 0.0897083237
C   C230      1.0  0.59560  0.36690  0.37400  1.0000 0.0897083237
C   C231      1.0  0.09560  0.13310  0.62600  1.0000 0.0897083237
C   C232      1.0  0.40440  0.86690  0.12600  1.0000 0.0897083237
C   C233      1.0  0.87400  0.90440  0.63310  1.0000 0.0897083237
C   C234      1.0  0.37400  0.59560  0.36690  1.0000 0.0897083237
C   C235      1.0  0.62600  0.09560  0.13310  1.0000 0.0897083237
C   C236      1.0  0.12600  0.40440  0.86690  1.0000 0.0897083237
C   C237      1.0  0.63310  0.87400  0.90440  1.0000 0.0897083237
C   C238      1.0  0.36690  0.37400  0.59560  1.0000 0.0897083237
C   C239      1.0  0.13310  0.62600  0.09560  1.0000 0.0897083237
C   C240      1.0  0.86690  0.12600  0.40440  1.0000 0.0897083237
C   C241      1.0  0.83979  0.76400  0.81312  1.0000 0.3583296299
C   C242      1.0  0.66021  0.23600  0.31312  1.0000 0.3583296299
C   C243      1.0  0.16021  0.26400  0.68688  1.0000 0.3583296299
C   C244      1.0  0.33979  0.73600  0.18688  1.0000 0.3583296299
C   C245      1.0  0.81312  0.83979  0.76400  1.0000 0.3583296299
C   C246      1.0  0.31312  0.66021  0.23600  1.0000 0.3583296299
C   C247      1.0  0.68688  0.16021  0.26400  1.0000 0.3583296299
C   C248      1.0  0.18688  0.33979  0.73600  1.0000 0.3583296299
C   C249      1.0  0.76400  0.81312  0.83979  1.0000 0.3583296299
C   C250      1.0  0.23600  0.31312  0.66021  1.0000 0.3583296299
C   C251      1.0  0.26400  0.68688  0.16021  1.0000 0.3583296299
C   C252      1.0  0.73600  0.18688  0.33979  1.0000 0.3583296299
S   S1        1.0  0.12508  0.62508  0.87492  1.0000 1.4101685941
S   S2        1.0  0.37492  0.37492  0.37492  1.0000 1.4101685941
S   S3        1.0  0.87492  0.12508  0.62508  1.0000 1.4101685941
S   S4        1.0  0.62508  0.87492  0.12508  1.0000 1.4101685941
N   N1        1.0  0.02861  0.52006  0.78827  1.0000 -0.2234497793
N   N2        1.0  0.47139  0.47994  0.28827  1.0000 -0.2234497793
N   N3        1.0  0.97139  0.02006  0.71173  1.0000 -0.2234497793
N   N4        1.0  0.52861  0.97994  0.21173  1.0000 -0.2234497793
N   N5        1.0  0.78827  0.02861  0.52006  1.0000 -0.2234497793
N   N6        1.0  0.28827  0.47139  0.47994  1.0000 -0.2234497793
N   N7        1.0  0.71173  0.97139  0.02006  1.0000 -0.2234497793
N   N8        1.0  0.21173  0.52861  0.97994  1.0000 -0.2234497793
N   N9        1.0  0.52006  0.78827  0.02861  1.0000 -0.2234497793
N   N10       1.0  0.47994  0.28827  0.47139  1.0000 -0.2234497793
N   N11       1.0  0.02006  0.71173  0.97139  1.0000 -0.2234497793
N   N12       1.0  0.97994  0.21173  0.52861  1.0000 -0.2234497793
N   N13       1.0  0.12904  0.44663  0.61791  1.0000 -0.3914024062
N   N14       1.0  0.37096  0.55337  0.11791  1.0000 -0.3914024062
N   N15       1.0  0.87096  0.94663  0.88209  1.0000 -0.3914024062
N   N16       1.0  0.62904  0.05337  0.38209  1.0000 -0.3914024062
N   N17       1.0  0.61791  0.12904  0.44663  1.0000 -0.3914024062
N   N18       1.0  0.11791  0.37096  0.55337  1.0000 -0.3914024062
N   N19       1.0  0.88209  0.87096  0.94663  1.0000 -0.3914024062
N   N20       1.0  0.38209  0.62904  0.05337  1.0000 -0.3914024062
N   N21       1.0  0.44663  0.61791  0.12904  1.0000 -0.3914024062
N   N22       1.0  0.55337  0.11791  0.37096  1.0000 -0.3914024062
N   N23       1.0  0.94663  0.88209  0.87096  1.0000 -0.3914024062
N   N24       1.0  0.05337  0.38209  0.62904  1.0000 -0.3914024062
N   N25       1.0  0.94940  0.62347  0.84020  1.0000 -0.2312696591
N   N26       1.0  0.55060  0.37653  0.34020  1.0000 -0.2312696591
N   N27       1.0  0.05060  0.12347  0.65980  1.0000 -0.2312696591
N   N28       1.0  0.44940  0.87653  0.15980  1.0000 -0.2312696591
N   N29       1.0  0.84020  0.94940  0.62347  1.0000 -0.2312696591
N   N30       1.0  0.34020  0.55060  0.37653  1.0000 -0.2312696591
N   N31       1.0  0.65980  0.05060  0.12347  1.0000 -0.2312696591
N   N32       1.0  0.15980  0.44940  0.87653  1.0000 -0.2312696591
N   N33       1.0  0.62347  0.84020  0.94940  1.0000 -0.2312696591
N   N34       1.0  0.37653  0.34020  0.55060  1.0000 -0.2312696591
N   N35       1.0  0.12347  0.65980  0.05060  1.0000 -0.2312696591
N   N36       1.0  0.87653  0.15980  0.44940  1.0000 -0.2312696591
N   N37       1.0  0.79712  0.77029  0.85017  1.0000 -0.3914024062
N   N38       1.0  0.70288  0.22971  0.35017  1.0000 -0.3914024062
N   N39       1.0  0.20288  0.27029  0.64983  1.0000 -0.3914024062
N   N40       1.0  0.29712  0.72971  0.14983  1.0000 -0.3914024062
N   N41       1.0  0.85017  0.79712  0.77029  1.0000 -0.3914024062
N   N42       1.0  0.35017  0.70288  0.22971  1.0000 -0.3914024062
N   N43       1.0  0.64983  0.20288  0.27029  1.0000 -0.3914024062
N   N44       1.0  0.14983  0.29712  0.72971  1.0000 -0.3914024062
N   N45       1.0  0.77029  0.85017  0.79712  1.0000 -0.3914024062
N   N46       1.0  0.22971  0.35017  0.70288  1.0000 -0.3914024062
N   N47       1.0  0.27029  0.64983  0.20288  1.0000 -0.3914024062
N   N48       1.0  0.72971  0.14983  0.29712  1.0000 -0.3914024062
O   O1        1.0  0.06759  0.61959  0.85001  1.0000 -0.694593066
O   O2        1.0  0.43241  0.38041  0.35001  1.0000 -0.694593066
O   O3        1.0  0.93241  0.11959  0.64999  1.0000 -0.694593066
O   O4        1.0  0.56759  0.88041  0.14999  1.0000 -0.694593066
O   O5        1.0  0.85001  0.06759  0.61959  1.0000 -0.694593066
O   O6        1.0  0.35001  0.43241  0.38041  1.0000 -0.694593066
O   O7        1.0  0.64999  0.93241  0.11959  1.0000 -0.694593066
O   O8        1.0  0.14999  0.56759  0.88041  1.0000 -0.694593066
O   O9        1.0  0.61959  0.85001  0.06759  1.0000 -0.694593066
O   O10       1.0  0.38041  0.35001  0.43241  1.0000 -0.694593066
O   O11       1.0  0.11959  0.64999  0.93241  1.0000 -0.694593066
O   O12       1.0  0.88041  0.14999  0.56759  1.0000 -0.694593066
O   O13       1.0  0.16031  0.66031  0.83969  1.0000 -0.5978505254
O   O14       1.0  0.33969  0.33969  0.33969  1.0000 -0.5978505254
O   O15       1.0  0.83969  0.16031  0.66031  1.0000 -0.5978505254
O   O16       1.0  0.66031  0.83969  0.16031  1.0000 -0.5978505254
O   O17       1.0  0.93396  0.48137  0.96457  1.0000 -0.5338014305
O   O18       1.0  0.56604  0.51863  0.46457  1.0000 -0.5338014305
O   O19       1.0  0.06604  0.98137  0.53543  1.0000 -0.5338014305
O   O20       1.0  0.43396  0.01863  0.03543  1.0000 -0.5338014305
O   O21       1.0  0.96457  0.93396  0.48137  1.0000 -0.5338014305
O   O22       1.0  0.46457  0.56604  0.51863  1.0000 -0.5338014305
O   O23       1.0  0.53543  0.06604  0.98137  1.0000 -0.5338014305
O   O24       1.0  0.03543  0.43396  0.01863  1.0000 -0.5338014305
O   O25       1.0  0.48137  0.96457  0.93396  1.0000 -0.5338014305
O   O26       1.0  0.51863  0.46457  0.56604  1.0000 -0.5338014305
O   O27       1.0  0.98137  0.53543  0.06604  1.0000 -0.5338014305
O   O28       1.0  0.01863  0.03543  0.43396  1.0000 -0.5338014305
O   O29       1.0  0.93827  0.50866  0.87430  1.0000 -0.5841941923
O   O30       1.0  0.56173  0.49134  0.37430  1.0000 -0.5841941923
O   O31       1.0  0.06173  0.00866  0.62570  1.0000 -0.5841941923
O   O32       1.0  0.43827  0.99134  0.12570  1.0000 -0.5841941923
O   O33       1.0  0.87430  0.93827  0.50866  1.0000 -0.5841941923
O   O34       1.0  0.37430  0.56173  0.49134  1.0000 -0.5841941923
O   O35       1.0  0.62570  0.06173  0.00866  1.0000 -0.5841941923
O   O36       1.0  0.12570  0.43827  0.99134  1.0000 -0.5841941923
O   O37       1.0  0.50866  0.87430  0.93827  1.0000 -0.5841941923
O   O38       1.0  0.49134  0.37430  0.56173  1.0000 -0.5841941923
O   O39       1.0  0.00866  0.62570  0.06173  1.0000 -0.5841941923
O   O40       1.0  0.99134  0.12570  0.43827  1.0000 -0.5841941923
F   F1        1.0  0.99821  0.58925  0.94788  1.0000 -0.5599451006
F   F2        1.0  0.50179  0.41075  0.44788  1.0000 -0.5599451006
F   F3        1.0  0.00179  0.08925  0.55212  1.0000 -0.5599451006
F   F4        1.0  0.49821  0.91075  0.05212  1.0000 -0.5599451006
F   F5        1.0  0.94788  0.99821  0.58925  1.0000 -0.5599451006
F   F6        1.0  0.44788  0.50179  0.41075  1.0000 -0.5599451006
F   F7        1.0  0.55212  0.00179  0.08925  1.0000 -0.5599451006
F   F8        1.0  0.05212  0.49821  0.91075  1.0000 -0.5599451006
F   F9        1.0  0.58925  0.94788  0.99821  1.0000 -0.5599451006
F   F10       1.0  0.41075  0.44788  0.50179  1.0000 -0.5599451006
F   F11       1.0  0.08925  0.55212  0.00179  1.0000 -0.5599451006
F   F12       1.0  0.91075  0.05212  0.49821  1.0000 -0.5599451006
