# DDEC6 charges by PACMAN v1.1 (https://github.com/mtap-research/PACMAN-charge/)
data_2016[ZnCo][qnb]3[FSR]1
_chemical_formula_sum              "Zn12 Co6 H156 C144 N18 O84"
_cell_length_a       18.389
_cell_length_b       18.389
_cell_length_c       17.969
_cell_angle_alpha    90
_cell_angle_beta     90
_cell_angle_gamma    120

_symmetry_space_group_name_H-M    "P 1"
_symmetry_Int_Tables_number       1

loop_
  _symmetry_equiv_pos_as_xyz
  'x, y, z'

loop_
  _atom_site_type_symbol
  _atom_site_label
  _atom_site_symmetry_multiplicity
  _atom_site_fract_x
  _atom_site_fract_y
  _atom_site_fract_z
  _atom_site_occupancy
  _atom_site_charge
Zn  Zn1       1.0  0.75691  0.65858  0.33316  1.0000 0.8948383445
Zn  Zn2       1.0  0.34142  0.09833  0.33316  1.0000 0.8948383445
Zn  Zn3       1.0  0.90167  0.24309  0.33316  1.0000 0.8948383445
Zn  Zn4       1.0  0.24309  0.34142  0.83316  1.0000 0.8948383445
Zn  Zn5       1.0  0.65858  0.90167  0.83316  1.0000 0.8948383445
Zn  Zn6       1.0  0.09833  0.75691  0.83316  1.0000 0.8962695713
Zn  Zn7       1.0  0.34142  0.24309  0.83316  1.0000 0.8948383445
Zn  Zn8       1.0  0.90167  0.65858  0.83316  1.0000 0.8948383445
Zn  Zn9       1.0  0.75691  0.09833  0.83316  1.0000 0.8948383445
Zn  Zn10      1.0  0.65858  0.75691  0.33316  1.0000 0.8962695713
Zn  Zn11      1.0  0.09833  0.34142  0.33316  1.0000 0.8962695713
Zn  Zn12      1.0  0.24309  0.90167  0.33316  1.0000 0.8948383445
Co  Co1       1.0  0.65066  0.65066  0.17540  1.0000 1.0180749411
Co  Co2       1.0  0.34934  0.00000  0.17540  1.0000 1.0180749411
Co  Co3       1.0  0.00000  0.34934  0.17540  1.0000 1.0180749411
Co  Co4       1.0  0.34934  0.34934  0.67540  1.0000 1.0180749411
Co  Co5       1.0  0.65066  0.00000  0.67540  1.0000 1.0180749411
Co  Co6       1.0  0.00000  0.65066  0.67540  1.0000 1.0180749411
H   H1        1.0  0.73000  0.73000  0.02910  1.0000 0.1000141367
H   H2        1.0  0.27000  0.00000  0.02910  1.0000 0.1000141367
H   H3        1.0  0.00000  0.27000  0.02910  1.0000 0.1000141367
H   H4        1.0  0.27000  0.27000  0.52910  1.0000 0.1000141367
H   H5        1.0  0.73000  0.00000  0.52910  1.0000 0.1000141367
H   H6        1.0  0.00000  0.73000  0.52910  1.0000 0.1000141367
H   H7        1.0  0.57890  0.48250  0.09980  1.0000 0.1187284454
H   H8        1.0  0.51750  0.09640  0.09980  1.0000 0.1187284454
H   H9        1.0  0.90360  0.42110  0.09980  1.0000 0.1187284454
H   H10       1.0  0.42110  0.51750  0.59980  1.0000 0.1187284454
H   H11       1.0  0.48250  0.90360  0.59980  1.0000 0.1187284454
H   H12       1.0  0.09640  0.57890  0.59980  1.0000 0.1142744511
H   H13       1.0  0.51750  0.42110  0.59980  1.0000 0.1142744511
H   H14       1.0  0.90360  0.48250  0.59980  1.0000 0.1187284454
H   H15       1.0  0.57890  0.09640  0.59980  1.0000 0.1187284454
H   H16       1.0  0.48250  0.57890  0.09980  1.0000 0.1187284454
H   H17       1.0  0.09640  0.51750  0.09980  1.0000 0.1187284454
H   H18       1.0  0.42110  0.90360  0.09980  1.0000 0.1187284454
H   H19       1.0  0.84430  0.71760  0.55130  1.0000 0.1187284454
H   H20       1.0  0.28240  0.12670  0.55130  1.0000 0.1187284454
H   H21       1.0  0.87330  0.15570  0.55130  1.0000 0.1187284454
H   H22       1.0  0.15570  0.28240  0.05130  1.0000 0.1187284454
H   H23       1.0  0.71760  0.87330  0.05130  1.0000 0.1187284454
H   H24       1.0  0.12670  0.84430  0.05130  1.0000 0.1187284454
H   H25       1.0  0.28240  0.15570  0.05130  1.0000 0.1187284454
H   H26       1.0  0.87330  0.71760  0.05130  1.0000 0.1187284454
H   H27       1.0  0.84430  0.12670  0.05130  1.0000 0.1187284454
H   H28       1.0  0.71760  0.84430  0.55130  1.0000 0.1187284454
H   H29       1.0  0.12670  0.28240  0.55130  1.0000 0.1187284454
H   H30       1.0  0.15570  0.87330  0.55130  1.0000 0.1187284454
H   H31       1.0  0.80210  0.44750  0.37750  1.0000 0.1187284454
H   H32       1.0  0.55250  0.35460  0.37750  1.0000 0.1187284454
H   H33       1.0  0.64540  0.19790  0.37750  1.0000 0.1187284454
H   H34       1.0  0.19790  0.55250  0.87750  1.0000 0.1187284454
H   H35       1.0  0.44750  0.64540  0.87750  1.0000 0.1187284454
H   H36       1.0  0.35460  0.80210  0.87750  1.0000 0.1187284454
H   H37       1.0  0.55250  0.19790  0.87750  1.0000 0.1187284454
H   H38       1.0  0.64540  0.44750  0.87750  1.0000 0.1187284454
H   H39       1.0  0.80210  0.35460  0.87750  1.0000 0.1187284454
H   H40       1.0  0.44750  0.80210  0.37750  1.0000 0.1187284454
H   H41       1.0  0.35460  0.55250  0.37750  1.0000 0.1187284454
H   H42       1.0  0.19790  0.64540  0.37750  1.0000 0.1187284454
H   H43       1.0  0.71830  0.71830  0.84410  1.0000 0.13854459
H   H44       1.0  0.28170  0.00000  0.84410  1.0000 0.13854459
H   H45       1.0  0.00000  0.28170  0.84410  1.0000 0.13854459
H   H46       1.0  0.28170  0.28170  0.34410  1.0000 0.13854459
H   H47       1.0  0.71830  0.00000  0.34410  1.0000 0.13854459
H   H48       1.0  0.00000  0.71830  0.34410  1.0000 0.13854459
H   H49       1.0  0.73670  0.78640  0.90630  1.0000 0.13854459
H   H50       1.0  0.21360  0.95030  0.90630  1.0000 0.13854459
H   H51       1.0  0.04970  0.26330  0.90630  1.0000 0.13854459
H   H52       1.0  0.26330  0.21360  0.40630  1.0000 0.13854459
H   H53       1.0  0.78640  0.04970  0.40630  1.0000 0.13854459
H   H54       1.0  0.95030  0.73670  0.40630  1.0000 0.13854459
H   H55       1.0  0.21360  0.26330  0.40630  1.0000 0.13854459
H   H56       1.0  0.04970  0.78640  0.40630  1.0000 0.13854459
H   H57       1.0  0.73670  0.95030  0.40630  1.0000 0.13854459
H   H58       1.0  0.78640  0.73670  0.90630  1.0000 0.13854459
H   H59       1.0  0.95030  0.21360  0.90630  1.0000 0.13854459
H   H60       1.0  0.26330  0.04970  0.90630  1.0000 0.13854459
H   H61       1.0  0.59860  0.59860  0.85820  1.0000 0.13854459
H   H62       1.0  0.40140  0.00000  0.85820  1.0000 0.13854459
H   H63       1.0  0.00000  0.40140  0.85820  1.0000 0.13854459
H   H64       1.0  0.40140  0.40140  0.35820  1.0000 0.13854459
H   H65       1.0  0.59860  0.00000  0.35820  1.0000 0.13854459
H   H66       1.0  0.00000  0.59860  0.35820  1.0000 0.13854459
H   H67       1.0  0.59510  0.54530  0.92880  1.0000 0.13854459
H   H68       1.0  0.45470  0.04980  0.92880  1.0000 0.13854459
H   H69       1.0  0.95020  0.40490  0.92880  1.0000 0.13854459
H   H70       1.0  0.40490  0.45470  0.42880  1.0000 0.13854459
H   H71       1.0  0.54530  0.95020  0.42880  1.0000 0.13854459
H   H72       1.0  0.04980  0.59510  0.42880  1.0000 0.13854459
H   H73       1.0  0.45470  0.40490  0.42880  1.0000 0.13854459
H   H74       1.0  0.95020  0.54530  0.42880  1.0000 0.13854459
H   H75       1.0  0.59510  0.04980  0.42880  1.0000 0.13854459
H   H76       1.0  0.54530  0.59510  0.92880  1.0000 0.13854459
H   H77       1.0  0.04980  0.45470  0.92880  1.0000 0.13854459
H   H78       1.0  0.40490  0.95020  0.92880  1.0000 0.13854459
H   H79       1.0  0.46920  0.27840  0.08900  1.0000 0.13854459
H   H80       1.0  0.72160  0.19080  0.08900  1.0000 0.13854459
H   H81       1.0  0.80920  0.53080  0.08900  1.0000 0.13854459
H   H82       1.0  0.53080  0.72160  0.58900  1.0000 0.13854459
H   H83       1.0  0.27840  0.80920  0.58900  1.0000 0.13854459
H   H84       1.0  0.19080  0.46920  0.58900  1.0000 0.13854459
H   H85       1.0  0.72160  0.53080  0.58900  1.0000 0.13854459
H   H86       1.0  0.80920  0.27840  0.58900  1.0000 0.13854459
H   H87       1.0  0.46920  0.19080  0.58900  1.0000 0.13854459
H   H88       1.0  0.27840  0.46920  0.08900  1.0000 0.13854459
H   H89       1.0  0.19080  0.72160  0.08900  1.0000 0.13854459
H   H90       1.0  0.53080  0.80920  0.08900  1.0000 0.13854459
H   H91       1.0  0.44590  0.34820  0.06950  1.0000 0.1282920194
H   H92       1.0  0.65180  0.09770  0.06950  1.0000 0.1282920194
H   H93       1.0  0.90230  0.55410  0.06950  1.0000 0.1282920194
H   H94       1.0  0.55410  0.65180  0.56950  1.0000 0.1282920194
H   H95       1.0  0.34820  0.90230  0.56950  1.0000 0.1282920194
H   H96       1.0  0.09770  0.44590  0.56950  1.0000 0.1282920194
H   H97       1.0  0.65180  0.55410  0.56950  1.0000 0.1282920194
H   H98       1.0  0.90230  0.34820  0.56950  1.0000 0.1282920194
H   H99       1.0  0.44590  0.09770  0.56950  1.0000 0.1282920194
H   H100      1.0  0.34820  0.44590  0.06950  1.0000 0.1282920194
H   H101      1.0  0.09770  0.65180  0.06950  1.0000 0.1282920194
H   H102      1.0  0.55410  0.90230  0.06950  1.0000 0.1282920194
H   H103      1.0  0.52710  0.35280  0.03450  1.0000 0.13854459
H   H104      1.0  0.64720  0.17430  0.03450  1.0000 0.13854459
H   H105      1.0  0.82570  0.47290  0.03450  1.0000 0.13854459
H   H106      1.0  0.47290  0.64720  0.53450  1.0000 0.13854459
H   H107      1.0  0.35280  0.82570  0.53450  1.0000 0.13854459
H   H108      1.0  0.17430  0.52710  0.53450  1.0000 0.13854459
H   H109      1.0  0.64720  0.47290  0.53450  1.0000 0.13854459
H   H110      1.0  0.82570  0.35280  0.53450  1.0000 0.13854459
H   H111      1.0  0.52710  0.17430  0.53450  1.0000 0.13854459
H   H112      1.0  0.35280  0.52710  0.03450  1.0000 0.13854459
H   H113      1.0  0.17430  0.64720  0.03450  1.0000 0.13854459
H   H114      1.0  0.47290  0.82570  0.03450  1.0000 0.13854459
H   H115      1.0  0.46390  0.27890  0.18800  1.0000 0.13854459
H   H116      1.0  0.72110  0.18500  0.18800  1.0000 0.13854459
H   H117      1.0  0.81500  0.53610  0.18800  1.0000 0.13854459
H   H118      1.0  0.53610  0.72110  0.68800  1.0000 0.13854459
H   H119      1.0  0.27890  0.81500  0.68800  1.0000 0.13854459
H   H120      1.0  0.18500  0.46390  0.68800  1.0000 0.13854459
H   H121      1.0  0.72110  0.53610  0.68800  1.0000 0.13854459
H   H122      1.0  0.81500  0.27890  0.68800  1.0000 0.13854459
H   H123      1.0  0.46390  0.18500  0.68800  1.0000 0.13854459
H   H124      1.0  0.27890  0.46390  0.18800  1.0000 0.13854459
H   H125      1.0  0.18500  0.72110  0.18800  1.0000 0.13854459
H   H126      1.0  0.53610  0.81500  0.18800  1.0000 0.13854459
H   H127      1.0  0.52350  0.34870  0.24550  1.0000 0.13854459
H   H128      1.0  0.65130  0.17480  0.24550  1.0000 0.13854459
H   H129      1.0  0.82520  0.47650  0.24550  1.0000 0.13854459
H   H130      1.0  0.47650  0.65130  0.74550  1.0000 0.13854459
H   H131      1.0  0.34870  0.82520  0.74550  1.0000 0.13854459
H   H132      1.0  0.17480  0.52350  0.74550  1.0000 0.13854459
H   H133      1.0  0.65130  0.47650  0.74550  1.0000 0.13854459
H   H134      1.0  0.82520  0.34870  0.74550  1.0000 0.13854459
H   H135      1.0  0.52350  0.17480  0.74550  1.0000 0.13854459
H   H136      1.0  0.34870  0.52350  0.24550  1.0000 0.13854459
H   H137      1.0  0.17480  0.65130  0.24550  1.0000 0.13854459
H   H138      1.0  0.47650  0.82520  0.24550  1.0000 0.13854459
H   H139      1.0  0.44620  0.35190  0.21020  1.0000 0.1282920194
H   H140      1.0  0.64810  0.09430  0.21020  1.0000 0.1282920194
H   H141      1.0  0.90570  0.55380  0.21020  1.0000 0.1282920194
H   H142      1.0  0.55380  0.64810  0.71020  1.0000 0.1282920194
H   H143      1.0  0.35190  0.90570  0.71020  1.0000 0.1282920194
H   H144      1.0  0.09430  0.44620  0.71020  1.0000 0.1282920194
H   H145      1.0  0.64810  0.55380  0.71020  1.0000 0.1282920194
H   H146      1.0  0.90570  0.35190  0.71020  1.0000 0.1282920194
H   H147      1.0  0.44620  0.09430  0.71020  1.0000 0.1282920194
H   H148      1.0  0.35190  0.44620  0.21020  1.0000 0.1282920194
H   H149      1.0  0.09430  0.64810  0.21020  1.0000 0.1282920194
H   H150      1.0  0.55380  0.90570  0.21020  1.0000 0.1282920194
H   H151      1.0  0.81525  0.81525  0.74300  1.0000 0.1187284454
H   H152      1.0  0.18475  0.00000  0.74300  1.0000 0.1187284454
H   H153      1.0  0.00000  0.18475  0.74300  1.0000 0.1187284454
H   H154      1.0  0.18475  0.18475  0.24300  1.0000 0.1187284454
H   H155      1.0  0.81525  0.00000  0.24300  1.0000 0.1187284454
H   H156      1.0  0.00000  0.81525  0.24300  1.0000 0.1187284454
C   C1        1.0  0.76020  0.76020  0.46040  1.0000 0.5727134858
C   C2        1.0  0.23980  0.00000  0.46040  1.0000 0.5727134858
C   C3        1.0  0.00000  0.23980  0.46040  1.0000 0.5727134858
C   C4        1.0  0.23980  0.23980  0.96040  1.0000 0.5727134858
C   C5        1.0  0.76020  0.00000  0.96040  1.0000 0.5727134858
C   C6        1.0  0.00000  0.76020  0.96040  1.0000 0.5727134858
C   C7        1.0  0.69170  0.50370  0.37070  1.0000 0.5127273514
C   C8        1.0  0.49630  0.18800  0.37070  1.0000 0.5127273514
C   C9        1.0  0.81200  0.30830  0.37070  1.0000 0.5127273514
C   C10       1.0  0.30830  0.49630  0.87070  1.0000 0.5127273514
C   C11       1.0  0.50370  0.81200  0.87070  1.0000 0.5127273514
C   C12       1.0  0.18800  0.69170  0.87070  1.0000 0.5127273514
C   C13       1.0  0.49630  0.30830  0.87070  1.0000 0.5127273514
C   C14       1.0  0.81200  0.50370  0.87070  1.0000 0.5127273514
C   C15       1.0  0.69170  0.18800  0.87070  1.0000 0.5127273514
C   C16       1.0  0.50370  0.69170  0.37070  1.0000 0.5127273514
C   C17       1.0  0.18800  0.49630  0.37070  1.0000 0.5127273514
C   C18       1.0  0.30830  0.81200  0.37070  1.0000 0.5127273514
C   C19       1.0  0.77800  0.77800  0.53940  1.0000 -0.0587239158
C   C20       1.0  0.22200  0.00000  0.53940  1.0000 -0.0587239158
C   C21       1.0  0.00000  0.22200  0.53940  1.0000 -0.0587239158
C   C22       1.0  0.22200  0.22200  0.03940  1.0000 -0.0587239158
C   C23       1.0  0.77800  0.00000  0.03940  1.0000 -0.0587239158
C   C24       1.0  0.00000  0.77800  0.03940  1.0000 -0.0587239158
C   C25       1.0  0.67750  0.41320  0.37700  1.0000 -0.0033677143
C   C26       1.0  0.58680  0.26430  0.37700  1.0000 -0.0033677143
C   C27       1.0  0.73570  0.32250  0.37700  1.0000 -0.0033677143
C   C28       1.0  0.32250  0.58680  0.87700  1.0000 -0.0033677143
C   C29       1.0  0.41320  0.73570  0.87700  1.0000 -0.0033677143
C   C30       1.0  0.26430  0.67750  0.87700  1.0000 -0.0033677143
C   C31       1.0  0.58680  0.32250  0.87700  1.0000 -0.0033677143
C   C32       1.0  0.73570  0.41320  0.87700  1.0000 -0.0033677143
C   C33       1.0  0.67750  0.26430  0.87700  1.0000 -0.0033677143
C   C34       1.0  0.41320  0.67750  0.37700  1.0000 -0.0033677143
C   C35       1.0  0.26430  0.58680  0.37700  1.0000 -0.0033677143
C   C36       1.0  0.32250  0.73570  0.37700  1.0000 -0.0033677143
C   C37       1.0  0.68120  0.68120  0.01350  1.0000 0.2916609808
C   C38       1.0  0.31880  0.00000  0.01350  1.0000 0.2916609808
C   C39       1.0  0.00000  0.31880  0.01350  1.0000 0.2916609808
C   C40       1.0  0.31880  0.31880  0.51350  1.0000 0.2916609808
C   C41       1.0  0.68120  0.00000  0.51350  1.0000 0.2916609808
C   C42       1.0  0.00000  0.68120  0.51350  1.0000 0.2916609808
C   C43       1.0  0.57900  0.46310  0.14800  1.0000 0.2733984902
C   C44       1.0  0.53690  0.11590  0.14800  1.0000 0.2733984902
C   C45       1.0  0.88410  0.42100  0.14800  1.0000 0.2733984902
C   C46       1.0  0.42100  0.53690  0.64800  1.0000 0.2733984902
C   C47       1.0  0.46310  0.88410  0.64800  1.0000 0.2733984902
C   C48       1.0  0.11590  0.57900  0.64800  1.0000 0.2733984902
C   C49       1.0  0.53690  0.42100  0.64800  1.0000 0.2733984902
C   C50       1.0  0.88410  0.46310  0.64800  1.0000 0.2733984902
C   C51       1.0  0.57900  0.11590  0.64800  1.0000 0.2733984902
C   C52       1.0  0.46310  0.57900  0.14800  1.0000 0.2733984902
C   C53       1.0  0.11590  0.53690  0.14800  1.0000 0.2733984902
C   C54       1.0  0.42100  0.88410  0.14800  1.0000 0.2733984902
C   C55       1.0  0.82210  0.74630  0.57760  1.0000 -0.0916905966
C   C56       1.0  0.25370  0.07580  0.57760  1.0000 -0.0916905966
C   C57       1.0  0.92420  0.17790  0.57760  1.0000 -0.0916905966
C   C58       1.0  0.17790  0.25370  0.07760  1.0000 -0.0916905966
C   C59       1.0  0.74630  0.92420  0.07760  1.0000 -0.0916905966
C   C60       1.0  0.07580  0.82210  0.07760  1.0000 -0.0916905966
C   C61       1.0  0.25370  0.17790  0.07760  1.0000 -0.0916905966
C   C62       1.0  0.92420  0.74630  0.07760  1.0000 -0.0916905966
C   C63       1.0  0.82210  0.07580  0.07760  1.0000 -0.0916905966
C   C64       1.0  0.74630  0.82210  0.57760  1.0000 -0.0916905966
C   C65       1.0  0.07580  0.25370  0.57760  1.0000 -0.0916905966
C   C66       1.0  0.17790  0.92420  0.57760  1.0000 -0.0916905966
C   C67       1.0  0.74740  0.40100  0.37720  1.0000 -0.1222318844
C   C68       1.0  0.59900  0.34640  0.37720  1.0000 -0.1222318844
C   C69       1.0  0.65360  0.25260  0.37720  1.0000 -0.1222318844
C   C70       1.0  0.25260  0.59900  0.87720  1.0000 -0.1222318844
C   C71       1.0  0.40100  0.65360  0.87720  1.0000 -0.1222318844
C   C72       1.0  0.34640  0.74740  0.87720  1.0000 -0.1222318844
C   C73       1.0  0.59900  0.25260  0.87720  1.0000 -0.1222318844
C   C74       1.0  0.65360  0.40100  0.87720  1.0000 -0.1222318844
C   C75       1.0  0.74740  0.34640  0.87720  1.0000 -0.1222318844
C   C76       1.0  0.40100  0.74740  0.37720  1.0000 -0.1222318844
C   C77       1.0  0.34640  0.59900  0.37720  1.0000 -0.1222318844
C   C78       1.0  0.25260  0.65360  0.37720  1.0000 -0.1222318844
C   C79       1.0  0.83350  0.75660  0.65400  1.0000 -0.0490354983
C   C80       1.0  0.24340  0.07690  0.65400  1.0000 -0.0490354983
C   C81       1.0  0.92310  0.16650  0.65400  1.0000 -0.0490354983
C   C82       1.0  0.16650  0.24340  0.15400  1.0000 -0.0490354983
C   C83       1.0  0.75660  0.92310  0.15400  1.0000 -0.0490354983
C   C84       1.0  0.07690  0.83350  0.15400  1.0000 -0.0490354983
C   C85       1.0  0.24340  0.16650  0.15400  1.0000 -0.0490354983
C   C86       1.0  0.92310  0.75660  0.15400  1.0000 -0.0490354983
C   C87       1.0  0.83350  0.07690  0.15400  1.0000 -0.0490354983
C   C88       1.0  0.75660  0.83350  0.65400  1.0000 -0.0490354983
C   C89       1.0  0.07690  0.24340  0.65400  1.0000 -0.0490354983
C   C90       1.0  0.16650  0.92310  0.65400  1.0000 -0.0490354983
C   C91       1.0  0.73300  0.73300  0.89600  1.0000 -0.3370512014
C   C92       1.0  0.26700  0.00000  0.89600  1.0000 -0.3370512014
C   C93       1.0  0.00000  0.26700  0.89600  1.0000 -0.3370512014
C   C94       1.0  0.26700  0.26700  0.39600  1.0000 -0.3370512014
C   C95       1.0  0.73300  0.00000  0.39600  1.0000 -0.3370512014
C   C96       1.0  0.00000  0.73300  0.39600  1.0000 -0.3370512014
C   C97       1.0  0.59600  0.59600  0.91200  1.0000 -0.3079618797
C   C98       1.0  0.40400  0.00000  0.91200  1.0000 -0.3079618797
C   C99       1.0  0.00000  0.40400  0.91200  1.0000 -0.3079618797
C   C100      1.0  0.40400  0.40400  0.41200  1.0000 -0.3079618797
C   C101      1.0  0.59600  0.00000  0.41200  1.0000 -0.3079618797
C   C102      1.0  0.00000  0.59600  0.41200  1.0000 -0.3079618797
C   C103      1.0  0.49200  0.33800  0.07800  1.0000 -0.3678828389
C   C104      1.0  0.66200  0.15400  0.07800  1.0000 -0.3678828389
C   C105      1.0  0.84600  0.50800  0.07800  1.0000 -0.3678828389
C   C106      1.0  0.50800  0.66200  0.57800  1.0000 -0.3678828389
C   C107      1.0  0.33800  0.84600  0.57800  1.0000 -0.3678828389
C   C108      1.0  0.15400  0.49200  0.57800  1.0000 -0.3678828389
C   C109      1.0  0.66200  0.50800  0.57800  1.0000 -0.3678828389
C   C110      1.0  0.84600  0.33800  0.57800  1.0000 -0.3678828389
C   C111      1.0  0.49200  0.15400  0.57800  1.0000 -0.3678828389
C   C112      1.0  0.33800  0.49200  0.07800  1.0000 -0.3678828389
C   C113      1.0  0.15400  0.66200  0.07800  1.0000 -0.3678828389
C   C114      1.0  0.50800  0.84600  0.07800  1.0000 -0.3678828389
C   C115      1.0  0.49000  0.33800  0.20100  1.0000 -0.3482203767
C   C116      1.0  0.66200  0.15200  0.20100  1.0000 -0.3482203767
C   C117      1.0  0.84800  0.51000  0.20100  1.0000 -0.3482203767
C   C118      1.0  0.51000  0.66200  0.70100  1.0000 -0.3482203767
C   C119      1.0  0.33800  0.84800  0.70100  1.0000 -0.3482203767
C   C120      1.0  0.15200  0.49000  0.70100  1.0000 -0.3482203767
C   C121      1.0  0.66200  0.51000  0.70100  1.0000 -0.3482203767
C   C122      1.0  0.84800  0.33800  0.70100  1.0000 -0.3482203767
C   C123      1.0  0.49000  0.15200  0.70100  1.0000 -0.3482203767
C   C124      1.0  0.33800  0.49000  0.20100  1.0000 -0.3482203767
C   C125      1.0  0.15200  0.66200  0.20100  1.0000 -0.3482203767
C   C126      1.0  0.51000  0.84800  0.20100  1.0000 -0.3482203767
C   C127      1.0  0.80370  0.80370  0.69210  1.0000 -0.1105916262
C   C128      1.0  0.19630  0.00000  0.69210  1.0000 -0.1105916262
C   C129      1.0  0.00000  0.19630  0.69210  1.0000 -0.1105916262
C   C130      1.0  0.19630  0.19630  0.19210  1.0000 -0.1105916262
C   C131      1.0  0.80370  0.00000  0.19210  1.0000 -0.1105916262
C   C132      1.0  0.00000  0.80370  0.19210  1.0000 -0.1105916262
C   C133      1.0  0.87700  0.72180  0.69680  1.0000 0.5727134858
C   C134      1.0  0.27820  0.15520  0.69680  1.0000 0.5727134858
C   C135      1.0  0.84480  0.12300  0.69680  1.0000 0.5727134858
C   C136      1.0  0.12300  0.27820  0.19680  1.0000 0.5727134858
C   C137      1.0  0.72180  0.84480  0.19680  1.0000 0.5727134858
C   C138      1.0  0.15520  0.87700  0.19680  1.0000 0.5727134858
C   C139      1.0  0.27820  0.12300  0.19680  1.0000 0.5727134858
C   C140      1.0  0.84480  0.72180  0.19680  1.0000 0.5727134858
C   C141      1.0  0.87700  0.15520  0.19680  1.0000 0.5727134858
C   C142      1.0  0.72180  0.87700  0.69680  1.0000 0.5727134858
C   C143      1.0  0.15520  0.27820  0.69680  1.0000 0.5727134858
C   C144      1.0  0.12300  0.84480  0.69680  1.0000 0.5727134858
N   N1        1.0  0.66860  0.66860  0.94270  1.0000 0.0199238855
N   N2        1.0  0.33140  0.00000  0.94270  1.0000 0.0199238855
N   N3        1.0  0.00000  0.33140  0.94270  1.0000 0.0199238855
N   N4        1.0  0.33140  0.33140  0.44270  1.0000 0.0199238855
N   N5        1.0  0.66860  0.00000  0.44270  1.0000 0.0199238855
N   N6        1.0  0.00000  0.66860  0.44270  1.0000 0.0199238855
N   N7        1.0  0.54100  0.38740  0.14170  1.0000 0.0447554751
N   N8        1.0  0.61260  0.15360  0.14170  1.0000 0.0447554751
N   N9        1.0  0.84640  0.45900  0.14170  1.0000 0.0447554751
N   N10       1.0  0.45900  0.61260  0.64170  1.0000 0.0447554751
N   N11       1.0  0.38740  0.84640  0.64170  1.0000 0.0447554751
N   N12       1.0  0.15360  0.54100  0.64170  1.0000 0.0447554751
N   N13       1.0  0.61260  0.45900  0.64170  1.0000 0.0447554751
N   N14       1.0  0.84640  0.38740  0.64170  1.0000 0.0447554751
N   N15       1.0  0.54100  0.15360  0.64170  1.0000 0.0447554751
N   N16       1.0  0.38740  0.54100  0.14170  1.0000 0.0447554751
N   N17       1.0  0.15360  0.61260  0.14170  1.0000 0.0447554751
N   N18       1.0  0.45900  0.84640  0.14170  1.0000 0.0447554751
O   O1        1.0  0.65710  0.65710  0.29210  1.0000 -0.7100226716
O   O2        1.0  0.34290  0.00000  0.29210  1.0000 -0.7100226716
O   O3        1.0  0.00000  0.34290  0.29210  1.0000 -0.7100226716
O   O4        1.0  0.34290  0.34290  0.79210  1.0000 -0.715108423
O   O5        1.0  0.65710  0.00000  0.79210  1.0000 -0.715108423
O   O6        1.0  0.00000  0.65710  0.79210  1.0000 -0.7100226716
O   O7        1.0  0.78770  0.71860  0.42930  1.0000 -0.5160639867
O   O8        1.0  0.28140  0.06910  0.42930  1.0000 -0.5160639867
O   O9        1.0  0.93090  0.21230  0.42930  1.0000 -0.5160639867
O   O10       1.0  0.21230  0.28140  0.92930  1.0000 -0.5160639867
O   O11       1.0  0.71860  0.93090  0.92930  1.0000 -0.5160639867
O   O12       1.0  0.06910  0.78770  0.92930  1.0000 -0.5160639867
O   O13       1.0  0.28140  0.21230  0.92930  1.0000 -0.5160639867
O   O14       1.0  0.93090  0.71860  0.92930  1.0000 -0.5160639867
O   O15       1.0  0.78770  0.06910  0.92930  1.0000 -0.5160639867
O   O16       1.0  0.71860  0.78770  0.42930  1.0000 -0.5160639867
O   O17       1.0  0.06910  0.28140  0.42930  1.0000 -0.5160639867
O   O18       1.0  0.21230  0.93090  0.42930  1.0000 -0.5160639867
O   O19       1.0  0.76030  0.55680  0.34990  1.0000 -0.492741253
O   O20       1.0  0.44320  0.20350  0.34990  1.0000 -0.492741253
O   O21       1.0  0.79650  0.23970  0.34990  1.0000 -0.492741253
O   O22       1.0  0.23970  0.44320  0.84990  1.0000 -0.492741253
O   O23       1.0  0.55680  0.79650  0.84990  1.0000 -0.492741253
O   O24       1.0  0.20350  0.76030  0.84990  1.0000 -0.492741253
O   O25       1.0  0.44320  0.23970  0.84990  1.0000 -0.492741253
O   O26       1.0  0.79650  0.55680  0.84990  1.0000 -0.492741253
O   O27       1.0  0.76030  0.20350  0.84990  1.0000 -0.492741253
O   O28       1.0  0.55680  0.76030  0.34990  1.0000 -0.492741253
O   O29       1.0  0.20350  0.44320  0.34990  1.0000 -0.492741253
O   O30       1.0  0.23970  0.79650  0.34990  1.0000 -0.492741253
O   O31       1.0  0.87990  0.72900  0.76690  1.0000 -0.5160639867
O   O32       1.0  0.27100  0.15090  0.76690  1.0000 -0.5160639867
O   O33       1.0  0.84910  0.12010  0.76690  1.0000 -0.5160639867
O   O34       1.0  0.12010  0.27100  0.26690  1.0000 -0.5160639867
O   O35       1.0  0.72900  0.84910  0.26690  1.0000 -0.5160639867
O   O36       1.0  0.15090  0.87990  0.26690  1.0000 -0.5160639867
O   O37       1.0  0.27100  0.12010  0.26690  1.0000 -0.5160639867
O   O38       1.0  0.84910  0.72900  0.26690  1.0000 -0.5160639867
O   O39       1.0  0.87990  0.15090  0.26690  1.0000 -0.5160639867
O   O40       1.0  0.72900  0.87990  0.76690  1.0000 -0.5160639867
O   O41       1.0  0.15090  0.27100  0.76690  1.0000 -0.5160639867
O   O42       1.0  0.12010  0.84910  0.76690  1.0000 -0.5160639867
O   O43       1.0  0.63370  0.63370  0.06190  1.0000 -0.5116994963
O   O44       1.0  0.36630  0.00000  0.06190  1.0000 -0.5116994963
O   O45       1.0  0.00000  0.36630  0.06190  1.0000 -0.5116994963
O   O46       1.0  0.36630  0.36630  0.56190  1.0000 -0.5116994963
O   O47       1.0  0.63370  0.00000  0.56190  1.0000 -0.5116994963
O   O48       1.0  0.00000  0.63370  0.56190  1.0000 -0.5116994963
O   O49       1.0  0.61540  0.52640  0.18410  1.0000 -0.4007993674
O   O50       1.0  0.47360  0.08900  0.18410  1.0000 -0.4007993674
O   O51       1.0  0.91100  0.38460  0.18410  1.0000 -0.4007993674
O   O52       1.0  0.38460  0.47360  0.68410  1.0000 -0.4007993674
O   O53       1.0  0.52640  0.91100  0.68410  1.0000 -0.4007993674
O   O54       1.0  0.08900  0.61540  0.68410  1.0000 -0.4007993674
O   O55       1.0  0.47360  0.38460  0.68410  1.0000 -0.4007993674
O   O56       1.0  0.91100  0.52640  0.68410  1.0000 -0.4007993674
O   O57       1.0  0.61540  0.08900  0.68410  1.0000 -0.4007993674
O   O58       1.0  0.52640  0.61540  0.18410  1.0000 -0.4007993674
O   O59       1.0  0.08900  0.47360  0.18410  1.0000 -0.4007993674
O   O60       1.0  0.38460  0.91100  0.18410  1.0000 -0.4007993674
O   O61       1.0  0.90700  0.68440  0.66270  1.0000 -0.5532165453
O   O62       1.0  0.31560  0.22260  0.66270  1.0000 -0.5532165453
O   O63       1.0  0.77740  0.09300  0.66270  1.0000 -0.5532165453
O   O64       1.0  0.09300  0.31560  0.16270  1.0000 -0.5532165453
O   O65       1.0  0.68440  0.77740  0.16270  1.0000 -0.5532165453
O   O66       1.0  0.22260  0.90700  0.16270  1.0000 -0.5532165453
O   O67       1.0  0.31560  0.09300  0.16270  1.0000 -0.5532165453
O   O68       1.0  0.77740  0.68440  0.16270  1.0000 -0.5532165453
O   O69       1.0  0.90700  0.22260  0.16270  1.0000 -0.5532165453
O   O70       1.0  0.68440  0.90700  0.66270  1.0000 -0.5532165453
O   O71       1.0  0.22260  0.31560  0.66270  1.0000 -0.5532165453
O   O72       1.0  0.09300  0.77740  0.66270  1.0000 -0.5532165453
O   O73       1.0  0.63110  0.51300  0.38090  1.0000 -0.4610009949
O   O74       1.0  0.48700  0.11810  0.38090  1.0000 -0.4610009949
O   O75       1.0  0.88190  0.36890  0.38090  1.0000 -0.4610009949
O   O76       1.0  0.36890  0.48700  0.88090  1.0000 -0.4610009949
O   O77       1.0  0.51300  0.88190  0.88090  1.0000 -0.4610009949
O   O78       1.0  0.11810  0.63110  0.88090  1.0000 -0.4610009949
O   O79       1.0  0.48700  0.36890  0.88090  1.0000 -0.4610009949
O   O80       1.0  0.88190  0.51300  0.88090  1.0000 -0.4610009949
O   O81       1.0  0.63110  0.11810  0.88090  1.0000 -0.4610009949
O   O82       1.0  0.51300  0.63110  0.38090  1.0000 -0.4610009949
O   O83       1.0  0.11810  0.48700  0.38090  1.0000 -0.4610009949
O   O84       1.0  0.36890  0.88190  0.38090  1.0000 -0.4610009949
