# DDEC6 charges by PACMAN v1.1 (https://github.com/mtap-research/PACMAN-charge/)
data_2016[Mn][nan]3[FSR]4
_chemical_formula_sum              "Mn3 H24 C38 N12 O8"
_cell_length_a       11.6714
_cell_length_b       11.9186
_cell_length_c       12.1094
_cell_angle_alpha    65.096
_cell_angle_beta     79.897
_cell_angle_gamma    72.275

_symmetry_space_group_name_H-M    "P 1"
_symmetry_Int_Tables_number       1

loop_
  _symmetry_equiv_pos_as_xyz
  'x, y, z'

loop_
  _atom_site_type_symbol
  _atom_site_label
  _atom_site_symmetry_multiplicity
  _atom_site_fract_x
  _atom_site_fract_y
  _atom_site_fract_z
  _atom_site_occupancy
  _atom_site_charge
Mn  Mn1       1.0  0.00000  0.00000  0.00000  1.0000 0.720110439
Mn  Mn2       1.0  0.00000  0.50000  0.50000  1.0000 0.720110439
Mn  Mn3       1.0  0.00000  0.00000  0.50000  1.0000 0.9045140671
H   H1        1.0  0.26480  0.81890  0.04330  1.0000 0.1084866765
H   H2        1.0  0.73520  0.18110  0.95670  1.0000 0.1084866765
H   H3        1.0  0.45990  0.81490  0.03950  1.0000 0.1298957276
H   H4        1.0  0.54010  0.18510  0.96050  1.0000 0.1298957276
H   H5        1.0  0.35920  0.18500  0.97170  1.0000 0.1298957276
H   H6        1.0  0.64080  0.81500  0.02830  1.0000 0.1298957276
H   H7        1.0  0.16660  0.18000  0.96900  1.0000 0.1084866765
H   H8        1.0  0.83340  0.82000  0.03100  1.0000 0.1084866765
H   H9        1.0  0.75940  0.47510  0.65540  1.0000 0.1084866765
H   H10       1.0  0.24060  0.52490  0.34460  1.0000 0.1084866765
H   H11       1.0  0.55730  0.56370  0.65410  1.0000 0.1298957276
H   H12       1.0  0.44270  0.43630  0.34590  1.0000 0.1298957276
H   H13       1.0  0.59210  0.71400  0.29040  1.0000 0.1298957276
H   H14       1.0  0.40790  0.28600  0.70960  1.0000 0.1298957276
H   H15       1.0  0.79370  0.61720  0.30530  1.0000 0.101382904
H   H16       1.0  0.20630  0.38280  0.69470  1.0000 0.101382904
H   H17       1.0  0.36230  0.60230  0.62830  1.0000 0.1198175627
H   H18       1.0  0.63770  0.39770  0.37170  1.0000 0.1198175627
H   H19       1.0  0.16810  0.72330  0.62760  1.0000 0.1198175627
H   H20       1.0  0.83190  0.27670  0.37240  1.0000 0.1198175627
H   H21       1.0  0.23000  0.98250  0.31380  1.0000 0.1084866765
H   H22       1.0  0.77000  0.01750  0.68620  1.0000 0.1084866765
H   H23       1.0  0.42630  0.86850  0.30520  1.0000 0.1298957276
H   H24       1.0  0.57370  0.13150  0.69480  1.0000 0.1298957276
C   C1        1.0  0.97900  0.88800  0.27310  1.0000 -0.0476759055
C   C2        1.0  0.02100  0.11200  0.72690  1.0000 -0.0476759055
C   C3        1.0  0.97410  0.78280  0.37730  1.0000 -0.0264051265
C   C4        1.0  0.02590  0.21720  0.62270  1.0000 -0.0264051265
C   C5        1.0  0.95970  0.02920  0.23780  1.0000 0.5815302956
C   C6        1.0  0.04030  0.97080  0.76220  1.0000 0.5815302956
C   C7        1.0  0.94430  0.75780  0.51160  1.0000 0.5707254934
C   C8        1.0  0.05570  0.24220  0.48840  1.0000 0.5707254934
C   C9        1.0  0.28370  0.89500  0.02700  1.0000 0.08031787
C   C10       1.0  0.71630  0.10500  0.97300  1.0000 0.08031787
C   C11       1.0  0.40160  0.89200  0.02500  1.0000 -0.2160604221
C   C12       1.0  0.59840  0.10800  0.97500  1.0000 -0.2160604221
C   C13       1.0  0.43630  0.00070  0.00220  1.0000 0.101382904
C   C14       1.0  0.56370  0.99930  0.99780  1.0000 0.101382904
C   C15       1.0  0.34340  0.10840  0.98440  1.0000 -0.2160604221
C   C16       1.0  0.65660  0.89160  0.01560  1.0000 -0.2160604221
C   C17       1.0  0.22690  0.10400  0.98510  1.0000 0.08031787
C   C18       1.0  0.77310  0.89600  0.01490  1.0000 0.08031787
C   C19       1.0  0.72510  0.52540  0.58050  1.0000 0.0858378785
C   C20       1.0  0.27490  0.47460  0.41950  1.0000 0.0858378785
C   C21       1.0  0.60310  0.57830  0.58070  1.0000 -0.1993044147
C   C22       1.0  0.39690  0.42170  0.41930  1.0000 -0.1993044147
C   C23       1.0  0.54850  0.65310  0.47180  1.0000 0.1084866765
C   C24       1.0  0.45150  0.34690  0.52820  1.0000 0.1084866765
C   C25       1.0  0.62370  0.66630  0.36680  1.0000 -0.2078573453
C   C26       1.0  0.37630  0.33370  0.63320  1.0000 -0.2078573453
C   C27       1.0  0.74540  0.60830  0.37670  1.0000 0.08031787
C   C28       1.0  0.25460  0.39170  0.62330  1.0000 0.08031787
C   C29       1.0  0.41910  0.72320  0.46740  1.0000 0.101382904
C   C30       1.0  0.58090  0.27680  0.53260  1.0000 0.101382904
C   C31       1.0  0.33790  0.68030  0.56340  1.0000 -0.1942557467
C   C32       1.0  0.66210  0.31970  0.43660  1.0000 -0.1942557467
C   C33       1.0  0.22130  0.75350  0.56230  1.0000 0.08031787
C   C34       1.0  0.77870  0.24650  0.43770  1.0000 0.08031787
C   C35       1.0  0.25700  0.90540  0.37880  1.0000 0.101382904
C   C36       1.0  0.74300  0.09460  0.62120  1.0000 0.101382904
C   C37       1.0  0.37590  0.83720  0.37300  1.0000 -0.2078573453
C   C38       1.0  0.62410  0.16280  0.62700  1.0000 -0.2078573453
N   N1        1.0  0.01060  0.84510  0.18010  1.0000 -0.1993044147
N   N2        1.0  0.98940  0.15490  0.81990  1.0000 -0.1993044147
N   N3        1.0  0.02430  0.72010  0.22740  1.0000 -0.0922237558
N   N4        1.0  0.97570  0.27990  0.77260  1.0000 -0.0922237558
N   N5        1.0  0.00350  0.68080  0.34690  1.0000 -0.1993044147
N   N6        1.0  0.99650  0.31920  0.65310  1.0000 -0.1993044147
N   N7        1.0  0.19490  0.99960  0.00710  1.0000 -0.1993044147
N   N8        1.0  0.80510  0.00040  0.99290  1.0000 -0.1993044147
N   N9        1.0  0.79710  0.54110  0.48120  1.0000 -0.2078573453
N   N10       1.0  0.20290  0.45890  0.51880  1.0000 -0.2078573453
N   N11       1.0  0.18050  0.86780  0.47050  1.0000 -0.225132264
N   N12       1.0  0.81950  0.13220  0.52950  1.0000 -0.225132264
O   O1        1.0  0.94760  0.09590  0.12550  1.0000 -0.5314722133
O   O2        1.0  0.05240  0.90410  0.87450  1.0000 -0.5314722133
O   O3        1.0  0.95800  0.07240  0.31440  1.0000 -0.5314722133
O   O4        1.0  0.04200  0.92760  0.68560  1.0000 -0.5314722133
O   O5        1.0  0.94950  0.64310  0.58060  1.0000 -0.5314722133
O   O6        1.0  0.05050  0.35690  0.41940  1.0000 -0.5314722133
O   O7        1.0  0.91320  0.84890  0.54490  1.0000 -0.5357914043
O   O8        1.0  0.08680  0.15110  0.45510  1.0000 -0.5357914043
