# DDEC6 charges by PACMAN v1.1 (https://github.com/mtap-research/PACMAN-charge/)
data_2016[Co][nan]3[FSR]27
_chemical_formula_sum              "Co12 H120 C204 S24 O60"
_cell_length_a       19.3867
_cell_length_b       19.3867
_cell_length_c       20.8268
_cell_angle_alpha    90
_cell_angle_beta     90
_cell_angle_gamma    120

_symmetry_space_group_name_H-M    "P 1"
_symmetry_Int_Tables_number       1

loop_
  _symmetry_equiv_pos_as_xyz
  'x, y, z'

loop_
  _atom_site_type_symbol
  _atom_site_label
  _atom_site_symmetry_multiplicity
  _atom_site_fract_x
  _atom_site_fract_y
  _atom_site_fract_z
  _atom_site_occupancy
  _atom_site_charge
Co  Co1       1.0  0.63199  0.27354  0.31056  1.0000 1.0562981864
Co  Co2       1.0  0.72646  0.35845  0.64389  1.0000 1.0562981864
Co  Co3       1.0  0.64155  0.36801  0.97723  1.0000 1.0562981864
Co  Co4       1.0  0.36801  0.72646  0.81056  1.0000 1.0562981864
Co  Co5       1.0  0.27354  0.64155  0.14389  1.0000 1.0562981864
Co  Co6       1.0  0.35845  0.63199  0.47723  1.0000 1.0562981864
Co  Co7       1.0  0.56752  0.28741  0.14465  1.0000 0.9636988341
Co  Co8       1.0  0.71259  0.28011  0.47798  1.0000 0.9636988341
Co  Co9       1.0  0.71989  0.43248  0.81132  1.0000 0.9636988341
Co  Co10      1.0  0.43248  0.71259  0.64465  1.0000 0.9636988341
Co  Co11      1.0  0.28741  0.71989  0.97798  1.0000 0.9636988341
Co  Co12      1.0  0.28011  0.56752  0.31132  1.0000 0.9636988341
H   H1        1.0  0.06250  0.66310  0.16870  1.0000 0.1193075935
H   H2        1.0  0.33690  0.39940  0.50203  1.0000 0.1193075935
H   H3        1.0  0.60060  0.93750  0.83537  1.0000 0.1193075935
H   H4        1.0  0.93750  0.33690  0.66870  1.0000 0.1193075935
H   H5        1.0  0.66310  0.60060  0.00203  1.0000 0.1193075935
H   H6        1.0  0.39940  0.06250  0.33537  1.0000 0.1193075935
H   H7        1.0  0.96610  0.70050  0.18500  1.0000 0.1193075935
H   H8        1.0  0.29950  0.26560  0.51833  1.0000 0.1193075935
H   H9        1.0  0.73440  0.03390  0.85167  1.0000 0.1193075935
H   H10       1.0  0.03390  0.29950  0.68500  1.0000 0.1193075935
H   H11       1.0  0.70050  0.73440  0.01833  1.0000 0.1193075935
H   H12       1.0  0.26560  0.96610  0.35167  1.0000 0.1193075935
H   H13       1.0  0.08080  0.87990  0.05680  1.0000 0.1193075935
H   H14       1.0  0.12010  0.20090  0.39013  1.0000 0.1193075935
H   H15       1.0  0.79910  0.91920  0.72347  1.0000 0.1193075935
H   H16       1.0  0.91920  0.12010  0.55680  1.0000 0.1193075935
H   H17       1.0  0.87990  0.79910  0.89013  1.0000 0.1193075935
H   H18       1.0  0.20090  0.08080  0.22347  1.0000 0.1193075935
H   H19       1.0  0.17460  0.83960  0.03980  1.0000 0.1193075935
H   H20       1.0  0.16040  0.33500  0.37313  1.0000 0.1193075935
H   H21       1.0  0.66500  0.82540  0.70647  1.0000 0.1193075935
H   H22       1.0  0.82540  0.16040  0.53980  1.0000 0.1193075935
H   H23       1.0  0.83960  0.66500  0.87313  1.0000 0.1193075935
H   H24       1.0  0.33500  0.17460  0.20647  1.0000 0.1193075935
H   H25       1.0  0.65960  0.54610  0.18970  1.0000 0.1193075935
H   H26       1.0  0.45390  0.11350  0.52303  1.0000 0.1193075935
H   H27       1.0  0.88650  0.34040  0.85637  1.0000 0.1193075935
H   H28       1.0  0.34040  0.45390  0.68970  1.0000 0.1193075935
H   H29       1.0  0.54610  0.88650  0.02303  1.0000 0.1193075935
H   H30       1.0  0.11350  0.65960  0.35637  1.0000 0.1193075935
H   H31       1.0  0.74130  0.68340  0.19280  1.0000 0.1099198465
H   H32       1.0  0.31660  0.05790  0.52613  1.0000 0.1099198465
H   H33       1.0  0.94210  0.25870  0.85947  1.0000 0.1099198465
H   H34       1.0  0.25870  0.31660  0.69280  1.0000 0.1099198465
H   H35       1.0  0.68340  0.94210  0.02613  1.0000 0.1099198465
H   H36       1.0  0.05790  0.74130  0.35947  1.0000 0.1099198465
H   H37       1.0  0.88240  0.66870  0.05680  1.0000 0.1193075935
H   H38       1.0  0.33130  0.21370  0.39013  1.0000 0.1193075935
H   H39       1.0  0.78630  0.11760  0.72347  1.0000 0.1193075935
H   H40       1.0  0.11760  0.33130  0.55680  1.0000 0.1193075935
H   H41       1.0  0.66870  0.78630  0.89013  1.0000 0.1193075935
H   H42       1.0  0.21370  0.88240  0.22347  1.0000 0.1193075935
H   H43       1.0  0.80000  0.53060  0.05360  1.0000 0.1099198465
H   H44       1.0  0.46940  0.26940  0.38693  1.0000 0.1099198465
H   H45       1.0  0.73060  0.20000  0.72027  1.0000 0.1099198465
H   H46       1.0  0.20000  0.46940  0.55360  1.0000 0.1099198465
H   H47       1.0  0.53060  0.73060  0.88693  1.0000 0.1099198465
H   H48       1.0  0.26940  0.80000  0.22027  1.0000 0.1099198465
H   H49       1.0  0.78640  0.26980  0.24230  1.0000 0.1193075935
H   H50       1.0  0.73020  0.51660  0.57563  1.0000 0.1193075935
H   H51       1.0  0.48340  0.21360  0.90897  1.0000 0.1193075935
H   H52       1.0  0.21360  0.73020  0.74230  1.0000 0.1193075935
H   H53       1.0  0.26980  0.48340  0.07563  1.0000 0.1193075935
H   H54       1.0  0.51660  0.78640  0.40897  1.0000 0.1193075935
H   H55       1.0  0.87340  0.21850  0.24020  1.0000 0.1193075935
H   H56       1.0  0.78150  0.65490  0.57353  1.0000 0.1193075935
H   H57       1.0  0.34510  0.12660  0.90687  1.0000 0.1193075935
H   H58       1.0  0.12660  0.78150  0.74020  1.0000 0.1193075935
H   H59       1.0  0.21850  0.34510  0.07353  1.0000 0.1193075935
H   H60       1.0  0.65490  0.87340  0.40687  1.0000 0.1193075935
H   H61       1.0  0.74120  0.06530  0.09840  1.0000 0.1099198465
H   H62       1.0  0.93470  0.67590  0.43173  1.0000 0.1099198465
H   H63       1.0  0.32410  0.25880  0.76507  1.0000 0.1099198465
H   H64       1.0  0.25880  0.93470  0.59840  1.0000 0.1099198465
H   H65       1.0  0.06530  0.32410  0.93173  1.0000 0.1099198465
H   H66       1.0  0.67590  0.74120  0.26507  1.0000 0.1099198465
H   H67       1.0  0.65610  0.11790  0.09920  1.0000 0.1193075935
H   H68       1.0  0.88210  0.53820  0.43253  1.0000 0.1193075935
H   H69       1.0  0.46180  0.34390  0.76587  1.0000 0.1193075935
H   H70       1.0  0.34390  0.88210  0.59920  1.0000 0.1193075935
H   H71       1.0  0.11790  0.46180  0.93253  1.0000 0.1193075935
H   H72       1.0  0.53820  0.65610  0.26587  1.0000 0.1193075935
H   H73       1.0  0.15960  0.35350  0.26260  1.0000 0.1193075935
H   H74       1.0  0.64650  0.80610  0.59593  1.0000 0.1193075935
H   H75       1.0  0.19390  0.84040  0.92927  1.0000 0.1193075935
H   H76       1.0  0.84040  0.64650  0.76260  1.0000 0.1193075935
H   H77       1.0  0.35350  0.19390  0.09593  1.0000 0.1193075935
H   H78       1.0  0.80610  0.15960  0.42927  1.0000 0.1193075935
H   H79       1.0  0.06580  0.21720  0.25180  1.0000 0.1193075935
H   H80       1.0  0.78280  0.84860  0.58513  1.0000 0.1193075935
H   H81       1.0  0.15140  0.93420  0.91847  1.0000 0.1193075935
H   H82       1.0  0.93420  0.78280  0.75180  1.0000 0.1193075935
H   H83       1.0  0.21720  0.15140  0.08513  1.0000 0.1193075935
H   H84       1.0  0.84860  0.06580  0.41847  1.0000 0.1193075935
H   H85       1.0  0.96070  0.26810  0.10560  1.0000 0.1193075935
H   H86       1.0  0.73190  0.69260  0.43893  1.0000 0.1193075935
H   H87       1.0  0.30740  0.03930  0.77227  1.0000 0.1193075935
H   H88       1.0  0.03930  0.73190  0.60560  1.0000 0.1193075935
H   H89       1.0  0.26810  0.30740  0.93893  1.0000 0.1193075935
H   H90       1.0  0.69260  0.96070  0.27227  1.0000 0.1193075935
H   H91       1.0  0.05210  0.40310  0.11730  1.0000 0.1193075935
H   H92       1.0  0.59690  0.64900  0.45063  1.0000 0.1193075935
H   H93       1.0  0.35100  0.94790  0.78397  1.0000 0.1193075935
H   H94       1.0  0.94790  0.59690  0.61730  1.0000 0.1193075935
H   H95       1.0  0.40310  0.35100  0.95063  1.0000 0.1193075935
H   H96       1.0  0.64900  0.05210  0.28397  1.0000 0.1193075935
H   H97       1.0  0.76900  0.40800  0.30600  1.0000 0.4170666387
H   H98       1.0  0.59200  0.36100  0.63933  1.0000 0.4170666387
H   H99       1.0  0.63900  0.23100  0.97267  1.0000 0.4170666387
H   H100      1.0  0.23100  0.59200  0.80600  1.0000 0.4170666387
H   H101      1.0  0.40800  0.63900  0.13933  1.0000 0.4170666387
H   H102      1.0  0.36100  0.76900  0.47267  1.0000 0.4170666387
H   H103      1.0  0.77500  0.34800  0.35000  1.0000 0.4017175635
H   H104      1.0  0.65200  0.42700  0.68333  1.0000 0.4017175635
H   H105      1.0  0.57300  0.22500  0.01667  1.0000 0.4017175635
H   H106      1.0  0.22500  0.65200  0.85000  1.0000 0.4017175635
H   H107      1.0  0.34800  0.57300  0.18333  1.0000 0.4017175635
H   H108      1.0  0.42700  0.77500  0.51667  1.0000 0.4017175635
H   H109      1.0  0.56400  0.35100  0.30700  1.0000 0.3917930275
H   H110      1.0  0.64900  0.21300  0.64033  1.0000 0.3917930275
H   H111      1.0  0.78700  0.43600  0.97367  1.0000 0.3917930275
H   H112      1.0  0.43600  0.64900  0.80700  1.0000 0.3917930275
H   H113      1.0  0.35100  0.78700  0.14033  1.0000 0.3917930275
H   H114      1.0  0.21300  0.56400  0.47367  1.0000 0.3917930275
H   H115      1.0  0.62500  0.38500  0.25620  1.0000 0.3917930275
H   H116      1.0  0.61500  0.24000  0.58953  1.0000 0.3917930275
H   H117      1.0  0.76000  0.37500  0.92287  1.0000 0.3917930275
H   H118      1.0  0.37500  0.61500  0.75620  1.0000 0.3917930275
H   H119      1.0  0.38500  0.76000  0.08953  1.0000 0.3917930275
H   H120      1.0  0.24000  0.62500  0.42287  1.0000 0.3917930275
C   C1        1.0  0.91070  0.92610  0.14950  1.0000 -0.096529125
C   C2        1.0  0.07390  0.98460  0.48283  1.0000 -0.096529125
C   C3        1.0  0.01540  0.08930  0.81617  1.0000 -0.096529125
C   C4        1.0  0.08930  0.07390  0.64950  1.0000 -0.096529125
C   C5        1.0  0.92610  0.01540  0.98283  1.0000 -0.096529125
C   C6        1.0  0.98460  0.91070  0.31617  1.0000 -0.0912405194
C   C7        1.0  0.90960  0.99410  0.15550  1.0000 -0.0912405194
C   C8        1.0  0.00590  0.91550  0.48883  1.0000 -0.0912405194
C   C9        1.0  0.08450  0.09040  0.82217  1.0000 -0.0912405194
C   C10       1.0  0.09040  0.00590  0.65550  1.0000 -0.0912405194
C   C11       1.0  0.99410  0.08450  0.98883  1.0000 -0.0912405194
C   C12       1.0  0.91550  0.90960  0.32217  1.0000 -0.0912405194
C   C13       1.0  0.87510  0.77780  0.13240  1.0000 -0.049803581
C   C14       1.0  0.22220  0.09730  0.46573  1.0000 -0.049803581
C   C15       1.0  0.90270  0.12490  0.79907  1.0000 -0.049803581
C   C16       1.0  0.12490  0.22220  0.63240  1.0000 -0.049803581
C   C17       1.0  0.77780  0.90270  0.96573  1.0000 -0.049803581
C   C18       1.0  0.09730  0.87510  0.29907  1.0000 -0.049803581
C   C19       1.0  0.86900  0.10270  0.16740  1.0000 -0.049803581
C   C20       1.0  0.89730  0.76630  0.50073  1.0000 -0.049803581
C   C21       1.0  0.23370  0.13100  0.83407  1.0000 -0.049803581
C   C22       1.0  0.13100  0.89730  0.66740  1.0000 -0.049803581
C   C23       1.0  0.10270  0.23370  0.00073  1.0000 -0.049803581
C   C24       1.0  0.76630  0.86900  0.33407  1.0000 -0.049803581
C   C25       1.0  0.95480  0.82080  0.13080  1.0000 -0.049803581
C   C26       1.0  0.17920  0.13400  0.46413  1.0000 -0.0552280906
C   C27       1.0  0.86600  0.04520  0.79747  1.0000 -0.049803581
C   C28       1.0  0.04520  0.17920  0.63080  1.0000 -0.049803581
C   C29       1.0  0.82080  0.86600  0.96413  1.0000 -0.049803581
C   C30       1.0  0.13400  0.95480  0.29747  1.0000 -0.049803581
C   C31       1.0  0.94910  0.14280  0.17000  1.0000 -0.049803581
C   C32       1.0  0.85720  0.80630  0.50333  1.0000 -0.049803581
C   C33       1.0  0.19370  0.05090  0.83667  1.0000 -0.049803581
C   C34       1.0  0.05090  0.85720  0.67000  1.0000 -0.049803581
C   C35       1.0  0.14280  0.19370  0.00333  1.0000 -0.049803581
C   C36       1.0  0.80630  0.94910  0.33667  1.0000 -0.049803581
C   C37       1.0  0.12550  0.74620  0.10140  1.0000 -0.0258236404
C   C38       1.0  0.25380  0.37930  0.43473  1.0000 -0.0258236404
C   C39       1.0  0.62070  0.87450  0.76807  1.0000 -0.0258236404
C   C40       1.0  0.87450  0.25380  0.60140  1.0000 -0.0258236404
C   C41       1.0  0.74620  0.62070  0.93473  1.0000 -0.0258236404
C   C42       1.0  0.37930  0.12550  0.26807  1.0000 -0.0258236404
C   C43       1.0  0.06530  0.70630  0.14510  1.0000 -0.0912405194
C   C44       1.0  0.29370  0.35900  0.47843  1.0000 -0.0912405194
C   C45       1.0  0.64100  0.93470  0.81177  1.0000 -0.0912405194
C   C46       1.0  0.93470  0.29370  0.64510  1.0000 -0.0912405194
C   C47       1.0  0.70630  0.64100  0.97843  1.0000 -0.0912405194
C   C48       1.0  0.35900  0.06530  0.31177  1.0000 -0.0912405194
C   C49       1.0  0.00800  0.72890  0.15510  1.0000 -0.1485047776
C   C50       1.0  0.27110  0.27910  0.48843  1.0000 -0.1485047776
C   C51       1.0  0.72090  0.99200  0.82177  1.0000 -0.1485047776
C   C52       1.0  0.99200  0.27110  0.65510  1.0000 -0.1485047776
C   C53       1.0  0.72890  0.72090  0.98843  1.0000 -0.1485047776
C   C54       1.0  0.27910  0.00800  0.32177  1.0000 -0.1485047776
C   C55       1.0  0.01230  0.79270  0.12140  1.0000 0.0890766475
C   C56       1.0  0.20730  0.21960  0.45473  1.0000 0.0890766475
C   C57       1.0  0.78040  0.98770  0.78807  1.0000 0.0890766475
C   C58       1.0  0.98770  0.20730  0.62140  1.0000 0.0890766475
C   C59       1.0  0.79270  0.78040  0.95473  1.0000 0.0890766475
C   C60       1.0  0.21960  0.01230  0.28807  1.0000 0.0890766475
C   C61       1.0  0.07590  0.83480  0.07890  1.0000 -0.1614024335
C   C62       1.0  0.16520  0.24110  0.41223  1.0000 -0.1614024335
C   C63       1.0  0.75890  0.92410  0.74557  1.0000 -0.1614024335
C   C64       1.0  0.92410  0.16520  0.57890  1.0000 -0.1614024335
C   C65       1.0  0.83480  0.75890  0.91223  1.0000 -0.1614024335
C   C66       1.0  0.24110  0.07590  0.24557  1.0000 -0.1614024335
C   C67       1.0  0.13190  0.81110  0.06900  1.0000 -0.0912405194
C   C68       1.0  0.18890  0.32080  0.40233  1.0000 -0.0912405194
C   C69       1.0  0.67920  0.86810  0.73567  1.0000 -0.0912405194
C   C70       1.0  0.86810  0.18890  0.56900  1.0000 -0.0912405194
C   C71       1.0  0.81110  0.67920  0.90233  1.0000 -0.0912405194
C   C72       1.0  0.32080  0.13190  0.23567  1.0000 -0.0912405194
C   C73       1.0  0.18530  0.71930  0.08880  1.0000 0.5877702733
C   C74       1.0  0.28070  0.46600  0.42213  1.0000 0.5877702733
C   C75       1.0  0.53400  0.81470  0.75547  1.0000 0.5877702733
C   C76       1.0  0.81470  0.28070  0.58880  1.0000 0.5877702733
C   C77       1.0  0.71930  0.53400  0.92213  1.0000 0.5877702733
C   C78       1.0  0.46600  0.18530  0.25547  1.0000 0.5877702733
C   C79       1.0  0.71970  0.52420  0.12080  1.0000 -0.0353910048
C   C80       1.0  0.47580  0.19550  0.45413  1.0000 -0.0353910048
C   C81       1.0  0.80450  0.28030  0.78747  1.0000 -0.0353910048
C   C82       1.0  0.28030  0.47580  0.62080  1.0000 -0.0353910048
C   C83       1.0  0.52420  0.80450  0.95413  1.0000 -0.0353910048
C   C84       1.0  0.19550  0.71970  0.28747  1.0000 -0.0353910048
C   C85       1.0  0.70470  0.57080  0.16230  1.0000 -0.0912405194
C   C86       1.0  0.42920  0.13390  0.49563  1.0000 -0.0912405194
C   C87       1.0  0.86610  0.29530  0.82897  1.0000 -0.0912405194
C   C88       1.0  0.29530  0.42920  0.66230  1.0000 -0.0912405194
C   C89       1.0  0.57080  0.86610  0.99563  1.0000 -0.0912405194
C   C90       1.0  0.13390  0.70470  0.32897  1.0000 -0.0912405194
C   C91       1.0  0.75380  0.65260  0.16480  1.0000 -0.1614024335
C   C92       1.0  0.34740  0.10120  0.49813  1.0000 -0.1614024335
C   C93       1.0  0.89880  0.24620  0.83147  1.0000 -0.1614024335
C   C94       1.0  0.24620  0.34740  0.66480  1.0000 -0.1614024335
C   C95       1.0  0.65260  0.89880  0.99813  1.0000 -0.1614024335
C   C96       1.0  0.10120  0.75380  0.33147  1.0000 -0.1614024335
C   C97       1.0  0.82170  0.69010  0.12620  1.0000 0.0979174524
C   C98       1.0  0.30990  0.13160  0.45953  1.0000 0.0979174524
C   C99       1.0  0.86840  0.17830  0.79287  1.0000 0.0979174524
C   C100      1.0  0.17830  0.30990  0.62620  1.0000 0.0979174524
C   C101      1.0  0.69010  0.86840  0.95953  1.0000 0.0979174524
C   C102      1.0  0.13160  0.82170  0.29287  1.0000 0.0979174524
C   C103      1.0  0.83730  0.64380  0.08430  1.0000 -0.1368441594
C   C104      1.0  0.35620  0.19350  0.41763  1.0000 -0.1368441594
C   C105      1.0  0.80650  0.16270  0.75097  1.0000 -0.1368441594
C   C106      1.0  0.16270  0.35620  0.58430  1.0000 -0.1368441594
C   C107      1.0  0.64380  0.80650  0.91763  1.0000 -0.1368441594
C   C108      1.0  0.19350  0.83730  0.25097  1.0000 -0.1368441594
C   C109      1.0  0.78780  0.56150  0.08180  1.0000 -0.0912405194
C   C110      1.0  0.43850  0.22630  0.41513  1.0000 -0.0912405194
C   C111      1.0  0.77370  0.21220  0.74847  1.0000 -0.0912405194
C   C112      1.0  0.21220  0.43850  0.58180  1.0000 -0.0912405194
C   C113      1.0  0.56150  0.77370  0.91513  1.0000 -0.0912405194
C   C114      1.0  0.22630  0.78780  0.24847  1.0000 -0.0912405194
C   C115      1.0  0.66680  0.43670  0.11990  1.0000 0.5877702733
C   C116      1.0  0.56330  0.23010  0.45323  1.0000 0.5877702733
C   C117      1.0  0.76990  0.33320  0.78657  1.0000 0.5877702733
C   C118      1.0  0.33320  0.56330  0.61990  1.0000 0.5877702733
C   C119      1.0  0.43670  0.76990  0.95323  1.0000 0.5877702733
C   C120      1.0  0.23010  0.66680  0.28657  1.0000 0.5877702733
C   C121      1.0  0.71330  0.19930  0.17120  1.0000 -0.0231693685
C   C122      1.0  0.80070  0.51400  0.50453  1.0000 -0.0231693685
C   C123      1.0  0.48600  0.28670  0.83787  1.0000 -0.0231693685
C   C124      1.0  0.28670  0.80070  0.67120  1.0000 -0.0231693685
C   C125      1.0  0.19930  0.48600  0.00453  1.0000 -0.0231693685
C   C126      1.0  0.51400  0.71330  0.33787  1.0000 -0.0231693685
C   C127      1.0  0.77750  0.22860  0.21290  1.0000 -0.0912405194
C   C128      1.0  0.77140  0.54890  0.54623  1.0000 -0.0912405194
C   C129      1.0  0.45110  0.22250  0.87957  1.0000 -0.0912405194
C   C130      1.0  0.22250  0.77140  0.71290  1.0000 -0.0912405194
C   C131      1.0  0.22860  0.45110  0.04623  1.0000 -0.0912405194
C   C132      1.0  0.54890  0.77750  0.37957  1.0000 -0.0912405194
C   C133      1.0  0.82910  0.19780  0.21190  1.0000 -0.1368441594
C   C134      1.0  0.80220  0.63130  0.54523  1.0000 -0.1368441594
C   C135      1.0  0.36870  0.17090  0.87857  1.0000 -0.1368441594
C   C136      1.0  0.17090  0.80220  0.71190  1.0000 -0.1368441594
C   C137      1.0  0.19780  0.36870  0.04523  1.0000 -0.1368441594
C   C138      1.0  0.63130  0.82910  0.37857  1.0000 -0.1368441594
C   C139      1.0  0.81570  0.13670  0.16930  1.0000 0.0890766475
C   C140      1.0  0.86330  0.67900  0.50263  1.0000 0.0890766475
C   C141      1.0  0.32100  0.18430  0.83597  1.0000 0.0890766475
C   C142      1.0  0.18430  0.86330  0.66930  1.0000 0.0890766475
C   C143      1.0  0.13670  0.32100  0.00263  1.0000 0.0890766475
C   C144      1.0  0.67900  0.81570  0.33597  1.0000 0.0890766475
C   C145      1.0  0.75070  0.10700  0.12740  1.0000 -0.1614024335
C   C146      1.0  0.89300  0.64370  0.46073  1.0000 -0.1614024335
C   C147      1.0  0.35630  0.24930  0.79407  1.0000 -0.1614024335
C   C148      1.0  0.24930  0.89300  0.62740  1.0000 -0.1614024335
C   C149      1.0  0.10700  0.35630  0.96073  1.0000 -0.1614024335
C   C150      1.0  0.64370  0.75070  0.29407  1.0000 -0.1614024335
C   C151      1.0  0.70000  0.13800  0.12800  1.0000 -0.096529125
C   C152      1.0  0.86200  0.56200  0.46133  1.0000 -0.0912405194
C   C153      1.0  0.43800  0.30000  0.79467  1.0000 -0.0912405194
C   C154      1.0  0.30000  0.86200  0.62800  1.0000 -0.0912405194
C   C155      1.0  0.13800  0.43800  0.96133  1.0000 -0.0912405194
C   C156      1.0  0.56200  0.70000  0.29467  1.0000 -0.0912405194
C   C157      1.0  0.65950  0.23280  0.16830  1.0000 0.5877702733
C   C158      1.0  0.76720  0.42670  0.50163  1.0000 0.5877702733
C   C159      1.0  0.57330  0.34050  0.83497  1.0000 0.5877702733
C   C160      1.0  0.34050  0.76720  0.66830  1.0000 0.5877702733
C   C161      1.0  0.23280  0.57330  0.00163  1.0000 0.5877702733
C   C162      1.0  0.42670  0.65950  0.33497  1.0000 0.5877702733
C   C163      1.0  0.11620  0.39070  0.18930  1.0000 -0.0231693685
C   C164      1.0  0.60930  0.72550  0.52263  1.0000 -0.0231693685
C   C165      1.0  0.27450  0.88380  0.85597  1.0000 -0.0231693685
C   C166      1.0  0.88380  0.60930  0.68930  1.0000 -0.0231693685
C   C167      1.0  0.39070  0.27450  0.02263  1.0000 -0.0231693685
C   C168      1.0  0.72550  0.11620  0.35597  1.0000 -0.0231693685
C   C169      1.0  0.11970  0.33600  0.23040  1.0000 -0.096529125
C   C170      1.0  0.66400  0.78370  0.56373  1.0000 -0.096529125
C   C171      1.0  0.21630  0.88030  0.89707  1.0000 -0.096529125
C   C172      1.0  0.88030  0.66400  0.73040  1.0000 -0.096529125
C   C173      1.0  0.33600  0.21630  0.06373  1.0000 -0.096529125
C   C174      1.0  0.78370  0.11970  0.39707  1.0000 -0.096529125
C   C175      1.0  0.06370  0.25490  0.22400  1.0000 -0.1614024335
C   C176      1.0  0.74510  0.80880  0.55733  1.0000 -0.1614024335
C   C177      1.0  0.19120  0.93630  0.89067  1.0000 -0.1614024335
C   C178      1.0  0.93630  0.74510  0.72400  1.0000 -0.1614024335
C   C179      1.0  0.25490  0.19120  0.05733  1.0000 -0.1614024335
C   C180      1.0  0.80880  0.06370  0.39067  1.0000 -0.1614024335
C   C181      1.0  0.00490  0.22930  0.17690  1.0000 0.0890766475
C   C182      1.0  0.77070  0.77560  0.51023  1.0000 0.0890766475
C   C183      1.0  0.22440  0.99510  0.84357  1.0000 0.0890766475
C   C184      1.0  0.99510  0.77070  0.67690  1.0000 0.0845587228
C   C185      1.0  0.22930  0.22440  0.01023  1.0000 0.0890766475
C   C186      1.0  0.77560  0.00490  0.34357  1.0000 0.0890766475
C   C187      1.0  0.00120  0.28520  0.13730  1.0000 -0.1485047776
C   C188      1.0  0.71480  0.71600  0.47063  1.0000 -0.1485047776
C   C189      1.0  0.28400  0.99880  0.80397  1.0000 -0.1485047776
C   C190      1.0  0.99880  0.71480  0.63730  1.0000 -0.1485047776
C   C191      1.0  0.28520  0.28400  0.97063  1.0000 -0.1485047776
C   C192      1.0  0.71600  0.00120  0.30397  1.0000 -0.1485047776
C   C193      1.0  0.05580  0.36530  0.14390  1.0000 -0.0912405194
C   C194      1.0  0.63470  0.69050  0.47723  1.0000 -0.0912405194
C   C195      1.0  0.30950  0.94420  0.81057  1.0000 -0.0912405194
C   C196      1.0  0.94420  0.63470  0.64390  1.0000 -0.0912405194
C   C197      1.0  0.36530  0.30950  0.97723  1.0000 -0.0912405194
C   C198      1.0  0.69050  0.05580  0.31057  1.0000 -0.0912405194
C   C199      1.0  0.17940  0.47700  0.19630  1.0000 0.5877702733
C   C200      1.0  0.52300  0.70240  0.52963  1.0000 0.5877702733
C   C201      1.0  0.29760  0.82060  0.86297  1.0000 0.5877702733
C   C202      1.0  0.82060  0.52300  0.69630  1.0000 0.5877702733
C   C203      1.0  0.47700  0.29760  0.02963  1.0000 0.5877702733
C   C204      1.0  0.70240  0.17940  0.36297  1.0000 0.5877702733
S   S1        1.0  0.82426  0.83167  0.14362  1.0000 0.04263057
S   S2        1.0  0.16833  0.99259  0.47695  1.0000 0.04263057
S   S3        1.0  0.00741  0.17574  0.81029  1.0000 0.04263057
S   S4        1.0  0.17574  0.16833  0.64362  1.0000 0.04263057
S   S5        1.0  0.83167  0.00741  0.97695  1.0000 0.04263057
S   S6        1.0  0.99259  0.82426  0.31029  1.0000 0.04263057
S   S7        1.0  0.99710  0.08637  0.16427  1.0000 0.0519182095
S   S8        1.0  0.91363  0.91073  0.49760  1.0000 0.0519182095
S   S9        1.0  0.08927  0.00290  0.83094  1.0000 0.0519182095
S   S10       1.0  0.00290  0.91363  0.66427  1.0000 0.0519182095
S   S11       1.0  0.08637  0.08927  0.99760  1.0000 0.0519182095
S   S12       1.0  0.91073  0.99710  0.33094  1.0000 0.0519182095
S   S13       1.0  0.99963  0.92351  0.14391  1.0000 0.0596169432
S   S14       1.0  0.07649  0.07612  0.47724  1.0000 0.0596169432
S   S15       1.0  0.92388  0.00037  0.81058  1.0000 0.0596169432
S   S16       1.0  0.00037  0.07649  0.64391  1.0000 0.0596169432
S   S17       1.0  0.92351  0.92388  0.97724  1.0000 0.0596169432
S   S18       1.0  0.07612  0.99963  0.31058  1.0000 0.0596169432
S   S19       1.0  0.82116  0.99799  0.15986  1.0000 0.0519182095
S   S20       1.0  0.00201  0.82317  0.49319  1.0000 0.0519182095
S   S21       1.0  0.17683  0.17884  0.82653  1.0000 0.0519182095
S   S22       1.0  0.17884  0.00201  0.65986  1.0000 0.0519182095
S   S23       1.0  0.99799  0.17683  0.99319  1.0000 0.0519182095
S   S24       1.0  0.82317  0.82116  0.32653  1.0000 0.0519182095
O   O1        1.0  0.22810  0.74970  0.03860  1.0000 -0.5782225033
O   O2        1.0  0.25030  0.47840  0.37193  1.0000 -0.5782225033
O   O3        1.0  0.52160  0.77190  0.70527  1.0000 -0.5782225033
O   O4        1.0  0.77190  0.25030  0.53860  1.0000 -0.5782225033
O   O5        1.0  0.74970  0.52160  0.87193  1.0000 -0.5782225033
O   O6        1.0  0.47840  0.22810  0.20527  1.0000 -0.5782225033
O   O7        1.0  0.18730  0.67120  0.12700  1.0000 -0.5564982047
O   O8        1.0  0.32880  0.51610  0.46033  1.0000 -0.5564982047
O   O9        1.0  0.48390  0.81270  0.79367  1.0000 -0.5564982047
O   O10       1.0  0.81270  0.32880  0.62700  1.0000 -0.5564982047
O   O11       1.0  0.67120  0.48390  0.96033  1.0000 -0.5564982047
O   O12       1.0  0.51610  0.18730  0.29367  1.0000 -0.5564982047
O   O13       1.0  0.61550  0.40480  0.16410  1.0000 -0.5564982047
O   O14       1.0  0.59520  0.21070  0.49743  1.0000 -0.5564982047
O   O15       1.0  0.78930  0.38450  0.83077  1.0000 -0.5564982047
O   O16       1.0  0.38450  0.59520  0.66410  1.0000 -0.5564982047
O   O17       1.0  0.40480  0.78930  0.99743  1.0000 -0.5564982047
O   O18       1.0  0.21070  0.61550  0.33077  1.0000 -0.5564982047
O   O19       1.0  0.67350  0.39300  0.07610  1.0000 -0.6175907751
O   O20       1.0  0.60700  0.28050  0.40943  1.0000 -0.6175907751
O   O21       1.0  0.71950  0.32650  0.74277  1.0000 -0.6175907751
O   O22       1.0  0.32650  0.60700  0.57610  1.0000 -0.6175907751
O   O23       1.0  0.39300  0.71950  0.90943  1.0000 -0.6175907751
O   O24       1.0  0.28050  0.67350  0.24277  1.0000 -0.6175907751
O   O25       1.0  0.66240  0.28180  0.21010  1.0000 -0.6138920288
O   O26       1.0  0.71820  0.38060  0.54343  1.0000 -0.6138920288
O   O27       1.0  0.61940  0.33760  0.87677  1.0000 -0.6138920288
O   O28       1.0  0.33760  0.71820  0.71010  1.0000 -0.6138920288
O   O29       1.0  0.28180  0.61940  0.04343  1.0000 -0.6138920288
O   O30       1.0  0.38060  0.66240  0.37677  1.0000 -0.6138920288
O   O31       1.0  0.61040  0.21350  0.12250  1.0000 -0.5292325715
O   O32       1.0  0.78650  0.39690  0.45583  1.0000 -0.5292325715
O   O33       1.0  0.60310  0.38960  0.78917  1.0000 -0.5292325715
O   O34       1.0  0.38960  0.78650  0.62250  1.0000 -0.5292325715
O   O35       1.0  0.21350  0.60310  0.95583  1.0000 -0.5292325715
O   O36       1.0  0.39690  0.61040  0.28917  1.0000 -0.5292325715
O   O37       1.0  0.17930  0.52750  0.15880  1.0000 -0.5549049477
O   O38       1.0  0.47250  0.65180  0.49213  1.0000 -0.5549049477
O   O39       1.0  0.34820  0.82070  0.82547  1.0000 -0.5549049477
O   O40       1.0  0.82070  0.47250  0.65880  1.0000 -0.5549049477
O   O41       1.0  0.52750  0.34820  0.99213  1.0000 -0.5549049477
O   O42       1.0  0.65180  0.17930  0.32547  1.0000 -0.5549049477
O   O43       1.0  0.22980  0.49210  0.24010  1.0000 -0.5736774902
O   O44       1.0  0.50790  0.73770  0.57343  1.0000 -0.5736774902
O   O45       1.0  0.26230  0.77020  0.90677  1.0000 -0.5736774902
O   O46       1.0  0.77020  0.50790  0.74010  1.0000 -0.5736774902
O   O47       1.0  0.49210  0.26230  0.07343  1.0000 -0.5736774902
O   O48       1.0  0.73770  0.22980  0.40677  1.0000 -0.5736774902
O   O49       1.0  0.75090  0.36230  0.32440  1.0000 -0.7089110117
O   O50       1.0  0.63770  0.38860  0.65773  1.0000 -0.7089110117
O   O51       1.0  0.61140  0.24910  0.99107  1.0000 -0.7089110117
O   O52       1.0  0.24910  0.63770  0.82440  1.0000 -0.7089110117
O   O53       1.0  0.36230  0.61140  0.15773  1.0000 -0.7089110117
O   O54       1.0  0.38860  0.75090  0.49107  1.0000 -0.7089110117
O   O55       1.0  0.61080  0.36890  0.29450  1.0000 -0.688295424
O   O56       1.0  0.63110  0.24190  0.62783  1.0000 -0.688295424
O   O57       1.0  0.75810  0.38920  0.96117  1.0000 -0.688295424
O   O58       1.0  0.38920  0.63110  0.79450  1.0000 -0.688295424
O   O59       1.0  0.36890  0.75810  0.12783  1.0000 -0.688295424
O   O60       1.0  0.24190  0.61080  0.46117  1.0000 -0.688295424
