# DDEC6 charges by PACMAN v1.1 (https://github.com/mtap-research/PACMAN-charge/)
data_2016[Cd][pcu]3[FSR]3
_chemical_formula_sum              "Cd10 H72 C108 N36 Cl8 O24"
_cell_length_a       12.946
_cell_length_b       17.321
_cell_length_c       22.153
_cell_angle_alpha    70.13
_cell_angle_beta     76.08
_cell_angle_gamma    73.31

_symmetry_space_group_name_H-M    "P 1"
_symmetry_Int_Tables_number       1

loop_
  _symmetry_equiv_pos_as_xyz
  'x, y, z'

loop_
  _atom_site_type_symbol
  _atom_site_label
  _atom_site_symmetry_multiplicity
  _atom_site_fract_x
  _atom_site_fract_y
  _atom_site_fract_z
  _atom_site_occupancy
  _atom_site_charge
Cd  Cd1       1.0  0.16515  0.54865  0.01310  1.0000 0.8531556182
Cd  Cd2       1.0  0.83485  0.45135  0.98690  1.0000 0.8531556182
Cd  Cd3       1.0  0.17809  0.73405  0.09075  1.0000 0.769860869
Cd  Cd4       1.0  0.82191  0.26595  0.90925  1.0000 0.769860869
Cd  Cd5       1.0  0.17465  0.77685  0.24808  1.0000 0.769860869
Cd  Cd6       1.0  0.82535  0.22315  0.75192  1.0000 0.769860869
Cd  Cd7       1.0  0.17631  0.81187  0.40831  1.0000 0.7834960275
Cd  Cd8       1.0  0.82369  0.18813  0.59169  1.0000 0.7834960275
Cd  Cd9       1.0  0.16746  0.00526  0.48319  1.0000 0.9433050208
Cd  Cd10      1.0  0.83254  0.99474  0.51681  1.0000 0.9433050208
H   H1        1.0  0.13030  0.54960  0.60910  1.0000 0.119938698
H   H2        1.0  0.86970  0.45040  0.39090  1.0000 0.119938698
H   H3        1.0  0.19260  0.76970  0.56570  1.0000 0.1388358994
H   H4        1.0  0.80740  0.23030  0.43430  1.0000 0.1388358994
H   H5        1.0  0.09600  0.75730  0.68420  1.0000 0.1301054829
H   H6        1.0  0.90400  0.24270  0.31580  1.0000 0.1301054829
H   H7        1.0  0.09610  0.73440  0.79300  1.0000 0.1098316754
H   H8        1.0  0.90390  0.26560  0.20700  1.0000 0.1098316754
H   H9        1.0  0.24390  0.49160  0.80800  1.0000 0.1098316754
H   H10       1.0  0.75610  0.50840  0.19200  1.0000 0.1098316754
H   H11       1.0  0.23960  0.51630  0.69900  1.0000 0.119938698
H   H12       1.0  0.76040  0.48370  0.30100  1.0000 0.119938698
H   H13       1.0  0.89300  0.58300  0.05920  1.0000 0.1388358994
H   H14       1.0  0.10700  0.41700  0.94080  1.0000 0.1388358994
H   H15       1.0  0.89120  0.76590  0.12680  1.0000 0.1301054829
H   H16       1.0  0.10880  0.23410  0.87320  1.0000 0.1301054829
H   H17       1.0  0.70780  0.69500  0.20140  1.0000 0.1301054829
H   H18       1.0  0.29220  0.30500  0.79860  1.0000 0.1301054829
H   H19       1.0  0.51850  0.72890  0.21460  1.0000 0.1301054829
H   H20       1.0  0.48150  0.27110  0.78540  1.0000 0.1301054829
H   H21       1.0  0.53370  0.72460  0.03520  1.0000 0.1301054829
H   H22       1.0  0.46630  0.27540  0.96480  1.0000 0.1301054829
H   H23       1.0  0.72100  0.70630  0.01730  1.0000 0.1388358994
H   H24       1.0  0.27900  0.29370  0.98270  1.0000 0.1301054829
H   H25       1.0  0.19540  0.51670  0.17380  1.0000 0.1388358994
H   H26       1.0  0.80460  0.48330  0.82620  1.0000 0.1388358994
H   H27       1.0  0.15620  0.56910  0.33870  1.0000 0.1301054829
H   H28       1.0  0.84380  0.43090  0.66130  1.0000 0.1301054829
H   H29       1.0  0.22030  0.42260  0.38440  1.0000 0.1301054829
H   H30       1.0  0.77970  0.57740  0.61560  1.0000 0.1301054829
H   H31       1.0  0.21990  0.28140  0.43910  1.0000 0.119938698
H   H32       1.0  0.78010  0.71860  0.56090  1.0000 0.119938698
H   H33       1.0  0.10320  0.26420  0.29440  1.0000 0.1098316754
H   H34       1.0  0.89680  0.73580  0.70560  1.0000 0.1098316754
H   H35       1.0  0.10220  0.40470  0.24060  1.0000 0.1301054829
H   H36       1.0  0.89780  0.59530  0.75940  1.0000 0.1301054829
H   H37       1.0  0.17790  0.03260  0.32280  1.0000 0.1388358994
H   H38       1.0  0.82210  0.96740  0.67720  1.0000 0.1388358994
H   H39       1.0  0.18000  0.98680  0.16010  1.0000 0.1301054829
H   H40       1.0  0.82000  0.01320  0.83990  1.0000 0.1301054829
H   H41       1.0  0.06840  0.13940  0.13780  1.0000 0.1301054829
H   H42       1.0  0.93160  0.86060  0.86220  1.0000 0.1301054829
H   H43       1.0  0.06250  0.28010  0.08040  1.0000 0.119938698
H   H44       1.0  0.93750  0.71990  0.91960  1.0000 0.119938698
H   H45       1.0  0.27740  0.28380  0.18150  1.0000 0.119938698
H   H46       1.0  0.72260  0.71620  0.81850  1.0000 0.119938698
H   H47       1.0  0.28650  0.14270  0.23690  1.0000 0.1388358994
H   H48       1.0  0.71350  0.85730  0.76310  1.0000 0.1388358994
H   H49       1.0  0.88290  0.80100  0.28250  1.0000 0.119938698
H   H50       1.0  0.11710  0.19900  0.71750  1.0000 0.119938698
H   H51       1.0  0.88990  0.82650  0.45050  1.0000 0.1388358994
H   H52       1.0  0.11010  0.17350  0.54950  1.0000 0.1388358994
H   H53       1.0  0.70680  0.91780  0.43250  1.0000 0.1388358994
H   H54       1.0  0.29320  0.08220  0.56750  1.0000 0.1388358994
H   H55       1.0  0.51810  0.94510  0.45470  1.0000 0.1301054829
H   H56       1.0  0.48190  0.05490  0.54530  1.0000 0.1301054829
H   H57       1.0  0.52090  0.78070  0.36290  1.0000 0.1301054829
H   H58       1.0  0.47910  0.21930  0.63710  1.0000 0.1301054829
H   H59       1.0  0.71130  0.75080  0.34270  1.0000 0.119938698
H   H60       1.0  0.28870  0.24920  0.65730  1.0000 0.119938698
H   H61       1.0  0.12870  0.00780  0.89720  1.0000 0.119938698
H   H62       1.0  0.87130  0.99220  0.10280  1.0000 0.119938698
H   H63       1.0  0.17870  0.76450  0.93330  1.0000 0.1301054829
H   H64       1.0  0.82130  0.23550  0.06670  1.0000 0.1301054829
H   H65       1.0  0.05340  0.00630  0.79950  1.0000 0.119938698
H   H66       1.0  0.94660  0.99370  0.20050  1.0000 0.119938698
H   H67       1.0  0.07880  0.02100  0.68880  1.0000 0.1098316754
H   H68       1.0  0.92120  0.97900  0.31120  1.0000 0.1098316754
H   H69       1.0  0.30410  0.80370  0.71370  1.0000 0.119938698
H   H70       1.0  0.69590  0.19630  0.28630  1.0000 0.119938698
H   H71       1.0  0.28850  0.79260  0.82240  1.0000 0.1301054829
H   H72       1.0  0.71150  0.20740  0.17760  1.0000 0.1301054829
C   C1        1.0  0.14200  0.60320  0.58630  1.0000 0.091166727
C   C2        1.0  0.85800  0.39680  0.41370  1.0000 0.091166727
C   C3        1.0  0.17610  0.72220  0.56310  1.0000 0.119938698
C   C4        1.0  0.82390  0.27780  0.43690  1.0000 0.119938698
C   C5        1.0  0.16730  0.63880  0.68210  1.0000 0.1586886194
C   C6        1.0  0.83270  0.36120  0.31790  1.0000 0.1586886194
C   C7        1.0  0.12520  0.70380  0.70970  1.0000 -0.1685133325
C   C8        1.0  0.87480  0.29620  0.29030  1.0000 -0.1685133325
C   C9        1.0  0.12580  0.69050  0.77440  1.0000 -0.0883182362
C   C10       1.0  0.87420  0.30950  0.22560  1.0000 -0.0883182362
C   C11       1.0  0.17140  0.61030  0.81180  1.0000 -0.0140451905
C   C12       1.0  0.82860  0.38970  0.18820  1.0000 -0.0140451905
C   C13       1.0  0.21380  0.54520  0.78320  1.0000 -0.0961110713
C   C14       1.0  0.78620  0.45480  0.21680  1.0000 -0.0961110713
C   C15       1.0  0.21140  0.55980  0.71810  1.0000 -0.1897886194
C   C16       1.0  0.78860  0.44020  0.28190  1.0000 -0.1897886194
C   C17       1.0  0.17260  0.59430  0.88300  1.0000 0.5514816496
C   C18       1.0  0.82740  0.40570  0.11700  1.0000 0.5514816496
C   C19       1.0  0.91520  0.62160  0.07120  1.0000 0.119938698
C   C20       1.0  0.08480  0.37840  0.92880  1.0000 0.119938698
C   C21       1.0  0.91450  0.72180  0.10820  1.0000 0.1004560317
C   C22       1.0  0.08550  0.27820  0.89180  1.0000 0.1004560317
C   C23       1.0  0.72990  0.70080  0.10780  1.0000 0.1511729487
C   C24       1.0  0.27010  0.29920  0.89220  1.0000 0.1511729487
C   C25       1.0  0.67220  0.70510  0.16680  1.0000 -0.1897886194
C   C26       1.0  0.32780  0.29490  0.83320  1.0000 -0.1897886194
C   C27       1.0  0.55920  0.72470  0.17470  1.0000 -0.0832785486
C   C28       1.0  0.44080  0.27530  0.82530  1.0000 -0.0832785486
C   C29       1.0  0.50650  0.73790  0.12360  1.0000 -0.0292345773
C   C30       1.0  0.49350  0.26210  0.87640  1.0000 -0.0292345773
C   C31       1.0  0.56830  0.72420  0.06760  1.0000 -0.072044194
C   C32       1.0  0.43170  0.27580  0.93240  1.0000 -0.072044194
C   C33       1.0  0.68030  0.70980  0.05740  1.0000 -0.161987847
C   C34       1.0  0.31970  0.29020  0.94260  1.0000 -0.161987847
C   C35       1.0  0.38230  0.75760  0.13360  1.0000 0.5704952531
C   C36       1.0  0.61770  0.24240  0.86640  1.0000 0.5704952531
C   C37       1.0  0.18720  0.54520  0.20400  1.0000 0.1098316754
C   C38       1.0  0.81280  0.45480  0.79600  1.0000 0.1098316754
C   C39       1.0  0.16560  0.57390  0.29470  1.0000 0.1098316754
C   C40       1.0  0.83440  0.42610  0.70530  1.0000 0.1098316754
C   C41       1.0  0.16680  0.42470  0.30600  1.0000 0.1586886194
C   C42       1.0  0.83320  0.57530  0.69400  1.0000 0.1586886194
C   C43       1.0  0.19840  0.39040  0.36580  1.0000 -0.1897886194
C   C44       1.0  0.80160  0.60960  0.63420  1.0000 -0.1897886194
C   C45       1.0  0.19710  0.30590  0.39870  1.0000 -0.0832785486
C   C46       1.0  0.80290  0.69410  0.60130  1.0000 -0.0832785486
C   C47       1.0  0.16280  0.25920  0.37230  1.0000 -0.0202317194
C   C48       1.0  0.83720  0.74080  0.62770  1.0000 -0.0202317194
C   C49       1.0  0.12740  0.29580  0.31260  1.0000 -0.0883182362
C   C50       1.0  0.87260  0.70420  0.68740  1.0000 -0.0883182362
C   C51       1.0  0.12800  0.37930  0.28010  1.0000 -0.1897886194
C   C52       1.0  0.87200  0.62070  0.71990  1.0000 -0.1897886194
C   C53       1.0  0.16430  0.16770  0.40720  1.0000 0.5514816496
C   C54       1.0  0.83570  0.83230  0.59280  1.0000 0.5514816496
C   C55       1.0  0.17870  0.00530  0.29300  1.0000 0.119938698
C   C56       1.0  0.82130  0.99470  0.70700  1.0000 0.1098316754
C   C57       1.0  0.18010  0.98020  0.20350  1.0000 0.1004560317
C   C58       1.0  0.81990  0.01980  0.79650  1.0000 0.1004560317
C   C59       1.0  0.17590  0.12970  0.19300  1.0000 0.1586886194
C   C60       1.0  0.82410  0.87030  0.80700  1.0000 0.1586886194
C   C61       1.0  0.11030  0.16880  0.14650  1.0000 -0.1897886194
C   C62       1.0  0.88970  0.83120  0.85350  1.0000 -0.1897886194
C   C63       1.0  0.10670  0.25310  0.11240  1.0000 -0.0832785486
C   C64       1.0  0.89330  0.74690  0.88760  1.0000 -0.0832785486
C   C65       1.0  0.16800  0.29710  0.12540  1.0000 -0.0202317194
C   C66       1.0  0.83200  0.70290  0.87460  1.0000 -0.0202317194
C   C67       1.0  0.23520  0.25500  0.17240  1.0000 -0.0883182362
C   C68       1.0  0.76480  0.74500  0.82760  1.0000 -0.0883182362
C   C69       1.0  0.24030  0.17080  0.20600  1.0000 -0.1685133325
C   C70       1.0  0.75970  0.82920  0.79400  1.0000 -0.1685133325
C   C71       1.0  0.15980  0.39050  0.09040  1.0000 0.5279596501
C   C72       1.0  0.84020  0.60950  0.90960  1.0000 0.5279596501
C   C73       1.0  0.90740  0.80330  0.31780  1.0000 0.091166727
C   C74       1.0  0.09260  0.19670  0.68220  1.0000 0.091166727
C   C75       1.0  0.91180  0.81750  0.40980  1.0000 0.1301054829
C   C76       1.0  0.08820  0.18250  0.59020  1.0000 0.1301054829
C   C77       1.0  0.72500  0.83250  0.38650  1.0000 0.1511729487
C   C78       1.0  0.27500  0.16750  0.61350  1.0000 0.1511729487
C   C79       1.0  0.66910  0.88980  0.41920  1.0000 -0.161987847
C   C80       1.0  0.33090  0.11020  0.58080  1.0000 -0.161987847
C   C81       1.0  0.55650  0.90620  0.43240  1.0000 -0.072044194
C   C82       1.0  0.44350  0.09380  0.56760  1.0000 -0.072044194
C   C83       1.0  0.50070  0.86400  0.41200  1.0000 -0.0202317194
C   C84       1.0  0.49930  0.13600  0.58800  1.0000 -0.0202317194
C   C85       1.0  0.55840  0.80740  0.37770  1.0000 -0.0832785486
C   C86       1.0  0.44160  0.19260  0.62230  1.0000 -0.0832785486
C   C87       1.0  0.67210  0.78980  0.36490  1.0000 -0.1978514042
C   C88       1.0  0.32790  0.21020  0.63510  1.0000 -0.1978514042
C   C89       1.0  0.37730  0.88360  0.42440  1.0000 0.5863002591
C   C90       1.0  0.62270  0.11640  0.57560  1.0000 0.5863002591
C   C91       1.0  0.14020  0.95040  0.91860  1.0000 0.1004560317
C   C92       1.0  0.85980  0.04960  0.08140  1.0000 0.1004560317
C   C93       1.0  0.16760  0.81780  0.93780  1.0000 0.1004560317
C   C94       1.0  0.83240  0.18220  0.06220  1.0000 0.1004560317
C   C95       1.0  0.16970  0.89850  0.82070  1.0000 0.1586886194
C   C96       1.0  0.83030  0.10150  0.17930  1.0000 0.1586886194
C   C97       1.0  0.10500  0.96660  0.78180  1.0000 -0.2121905483
C   C98       1.0  0.89500  0.03340  0.21820  1.0000 -0.2121905483
C   C99       1.0  0.11910  0.97440  0.71600  1.0000 -0.0961110713
C   C100      1.0  0.88090  0.02560  0.28400  1.0000 -0.0883182362
C   C101      1.0  0.19200  0.91360  0.69080  1.0000 -0.0202317194
C   C102      1.0  0.80800  0.08640  0.30920  1.0000 -0.0202317194
C   C103      1.0  0.25510  0.84490  0.73090  1.0000 -0.0832785486
C   C104      1.0  0.74490  0.15510  0.26910  1.0000 -0.0832785486
C   C105      1.0  0.24520  0.83760  0.79580  1.0000 -0.1783638519
C   C106      1.0  0.75480  0.16240  0.20420  1.0000 -0.1783638519
C   C107      1.0  0.20580  0.91990  0.61950  1.0000 0.5514816496
C   C108      1.0  0.79420  0.08010  0.38050  1.0000 0.5514816496
N   N1        1.0  0.13990  0.63600  0.52520  1.0000 -0.2121905483
N   N2        1.0  0.86010  0.36400  0.47480  1.0000 -0.2155211962
N   N3        1.0  0.16310  0.71300  0.51100  1.0000 -0.1685133325
N   N4        1.0  0.83690  0.28700  0.48900  1.0000 -0.1685133325
N   N5        1.0  0.16280  0.65360  0.61430  1.0000 -0.0292345773
N   N6        1.0  0.83720  0.34640  0.38570  1.0000 -0.0292345773
N   N7        1.0  0.01680  0.62630  0.06500  1.0000 -0.1897886194
N   N8        1.0  0.98320  0.37370  0.93500  1.0000 -0.1897886194
N   N9        1.0  0.01590  0.68980  0.08880  1.0000 -0.1897886194
N   N10       1.0  0.98410  0.31020  0.91120  1.0000 -0.1897886194
N   N11       1.0  0.84740  0.68190  0.09780  1.0000 -0.0140451905
N   N12       1.0  0.15260  0.31810  0.90220  1.0000 -0.0140451905
N   N13       1.0  0.18740  0.62420  0.19030  1.0000 -0.1783638519
N   N14       1.0  0.81260  0.37580  0.80970  1.0000 -0.1783638519
N   N15       1.0  0.17370  0.64280  0.24740  1.0000 -0.1783638519
N   N16       1.0  0.82630  0.35720  0.75260  1.0000 -0.1783638519
N   N17       1.0  0.17300  0.51040  0.27020  1.0000 -0.0140451905
N   N18       1.0  0.82700  0.48960  0.72980  1.0000 -0.0140451905
N   N19       1.0  0.18090  0.90940  0.25050  1.0000 -0.1783638519
N   N20       1.0  0.81910  0.09060  0.74950  1.0000 -0.1783638519
N   N21       1.0  0.17910  0.92530  0.30730  1.0000 -0.1783638519
N   N22       1.0  0.82090  0.07470  0.69270  1.0000 -0.1783638519
N   N23       1.0  0.17950  0.04240  0.22800  1.0000 -0.0202317194
N   N24       1.0  0.82050  0.95760  0.77200  1.0000 -0.0202317194
N   N25       1.0  0.01120  0.80280  0.38150  1.0000 -0.1897886194
N   N26       1.0  0.98880  0.19720  0.61850  1.0000 -0.1897886194
N   N27       1.0  0.01170  0.79230  0.32220  1.0000 -0.1978514042
N   N28       1.0  0.98830  0.20770  0.67780  1.0000 -0.1978514042
N   N29       1.0  0.84270  0.81810  0.37190  1.0000 -0.0140451905
N   N30       1.0  0.15730  0.18190  0.62810  1.0000 -0.0140451905
N   N31       1.0  0.14090  0.91930  0.97950  1.0000 -0.1978514042
N   N32       1.0  0.85910  0.08070  0.02050  1.0000 -0.1978514042
N   N33       1.0  0.15910  0.83250  0.99190  1.0000 -0.1783638519
N   N34       1.0  0.84090  0.16750  0.00810  1.0000 -0.1783638519
N   N35       1.0  0.15830  0.89020  0.88820  1.0000 -0.0292345773
N   N36       1.0  0.84170  0.10980  0.11180  1.0000 -0.0292345773
Cl  Cl1       1.0  0.29231  0.62030  0.03149  1.0000 -0.4881332911
Cl  Cl2       1.0  0.70769  0.37970  0.96851  1.0000 -0.4881332911
Cl  Cl3       1.0  0.05532  0.83723  0.15491  1.0000 -0.5592080153
Cl  Cl4       1.0  0.94468  0.16277  0.84509  1.0000 -0.5592080153
Cl  Cl5       1.0  0.27952  0.70458  0.34725  1.0000 -0.4991756476
Cl  Cl6       1.0  0.72048  0.29542  0.65275  1.0000 -0.4991756476
Cl  Cl7       1.0  0.05536  0.91954  0.46810  1.0000 -0.4991756476
Cl  Cl8       1.0  0.94464  0.08046  0.53190  1.0000 -0.4991756476
O   O1        1.0  0.20250  0.51960  0.91680  1.0000 -0.5301877122
O   O2        1.0  0.79750  0.48040  0.08320  1.0000 -0.5301877122
O   O3        1.0  0.14360  0.65480  0.90630  1.0000 -0.5592080153
O   O4        1.0  0.85640  0.34520  0.09370  1.0000 -0.5592080153
O   O5        1.0  0.34140  0.75600  0.08880  1.0000 -0.5230958012
O   O6        1.0  0.65860  0.24400  0.91120  1.0000 -0.5230958012
O   O7        1.0  0.33600  0.77290  0.18380  1.0000 -0.5230958012
O   O8        1.0  0.66400  0.22710  0.81620  1.0000 -0.5301877122
O   O9        1.0  0.19730  0.13740  0.46150  1.0000 -0.5508055634
O   O10       1.0  0.80270  0.86260  0.53850  1.0000 -0.5508055634
O   O11       1.0  0.13570  0.12480  0.38170  1.0000 -0.5508055634
O   O12       1.0  0.86430  0.87520  0.61830  1.0000 -0.5508055634
O   O13       1.0  0.21420  0.42830  0.10360  1.0000 -0.5301877122
O   O14       1.0  0.78580  0.57170  0.89640  1.0000 -0.5301877122
O   O15       1.0  0.09800  0.42470  0.04920  1.0000 -0.5301877122
O   O16       1.0  0.90200  0.57530  0.95080  1.0000 -0.5301877122
O   O17       1.0  0.33333  0.82970  0.42310  1.0000 -0.5387332387
O   O18       1.0  0.66667  0.17030  0.57690  1.0000 -0.5387332387
O   O19       1.0  0.33100  0.95350  0.43410  1.0000 -0.5592080153
O   O20       1.0  0.66900  0.04650  0.56590  1.0000 -0.5592080153
O   O21       1.0  0.24420  0.85700  0.60020  1.0000 -0.5508055634
O   O22       1.0  0.75580  0.14300  0.39980  1.0000 -0.5508055634
O   O23       1.0  0.17160  0.99370  0.58370  1.0000 -0.5592080153
O   O24       1.0  0.82840  0.00630  0.41630  1.0000 -0.5592080153
