# DDEC6 charges by PACMAN v1.1 (https://github.com/mtap-research/PACMAN-charge/)
data_2016[Zn][nan]3[FSR]34
_chemical_formula_sum              "Zn8 P8 H52 C44 N16 O24"
_cell_length_a       10.3277
_cell_length_b       17.6705
_cell_length_c       10.6009
_cell_angle_alpha    90
_cell_angle_beta     91.7
_cell_angle_gamma    90

_symmetry_space_group_name_H-M    "P 1"
_symmetry_Int_Tables_number       1

loop_
  _symmetry_equiv_pos_as_xyz
  'x, y, z'

loop_
  _atom_site_type_symbol
  _atom_site_label
  _atom_site_symmetry_multiplicity
  _atom_site_fract_x
  _atom_site_fract_y
  _atom_site_fract_z
  _atom_site_occupancy
  _atom_site_charge
Zn  Zn1       1.0  0.76626  0.83123  0.50544  1.0000 0.9159911203
Zn  Zn2       1.0  0.23374  0.33123  0.99456  1.0000 0.9159911203
Zn  Zn3       1.0  0.23374  0.16877  0.49456  1.0000 0.9159911203
Zn  Zn4       1.0  0.76626  0.66877  0.00544  1.0000 0.9159911203
Zn  Zn5       1.0  0.98884  0.82522  0.19187  1.0000 0.9303858506
Zn  Zn6       1.0  0.01116  0.32522  0.30813  1.0000 0.9303858506
Zn  Zn7       1.0  0.01116  0.17478  0.80813  1.0000 0.9303858506
Zn  Zn8       1.0  0.98884  0.67478  0.69187  1.0000 0.9303858506
P   P1        1.0  0.70122  0.77162  0.23747  1.0000 1.1207732784
P   P2        1.0  0.29878  0.27162  0.26253  1.0000 1.1207732784
P   P3        1.0  0.29878  0.22838  0.76253  1.0000 1.1207732784
P   P4        1.0  0.70122  0.72838  0.73747  1.0000 1.1207732784
P   P5        1.0  0.05829  0.79098  0.47121  1.0000 1.0998815822
P   P6        1.0  0.94171  0.29098  0.02879  1.0000 1.0998815822
P   P7        1.0  0.94171  0.20902  0.52879  1.0000 1.0998815822
P   P8        1.0  0.05829  0.70902  0.97121  1.0000 1.0998815822
H   H1        1.0  0.59780  0.80690  0.19520  1.0000 -0.1008707692
H   H2        1.0  0.40220  0.30690  0.30480  1.0000 -0.1008707692
H   H3        1.0  0.40220  0.19310  0.80480  1.0000 -0.1008707692
H   H4        1.0  0.59780  0.69310  0.69520  1.0000 -0.1008707692
H   H5        1.0  0.15350  0.81990  0.50340  1.0000 -0.0746107918
H   H6        1.0  0.84650  0.31990  0.99660  1.0000 -0.0746107918
H   H7        1.0  0.84650  0.18010  0.49660  1.0000 -0.0746107918
H   H8        1.0  0.15350  0.68010  0.00340  1.0000 -0.0746107918
H   H9        1.0  0.51770  0.89620  0.37660  1.0000 0.1219698168
H   H10       1.0  0.48230  0.39620  0.12340  1.0000 0.1219698168
H   H11       1.0  0.48230  0.10380  0.62340  1.0000 0.1219698168
H   H12       1.0  0.51770  0.60380  0.87660  1.0000 0.1219698168
H   H13       1.0  0.81400  0.01500  0.49880  1.0000 0.1300505393
H   H14       1.0  0.18600  0.51500  0.00120  1.0000 0.1300505393
H   H15       1.0  0.18600  0.98500  0.50120  1.0000 0.1300505393
H   H16       1.0  0.81400  0.48500  0.99880  1.0000 0.1300505393
H   H17       1.0  0.67130  0.10110  0.37750  1.0000 0.1420346774
H   H18       1.0  0.32870  0.60110  0.12250  1.0000 0.1420346774
H   H19       1.0  0.32870  0.89890  0.62250  1.0000 0.1420346774
H   H20       1.0  0.67130  0.39890  0.87750  1.0000 0.1420346774
H   H21       1.0  0.36930  0.00600  0.28630  1.0000 0.1219698168
H   H22       1.0  0.63070  0.50600  0.21370  1.0000 0.1219698168
H   H23       1.0  0.63070  0.99400  0.71370  1.0000 0.1219698168
H   H24       1.0  0.36930  0.49400  0.78630  1.0000 0.1219698168
H   H25       1.0  0.43490  0.08560  0.27440  1.0000 0.1300505393
H   H26       1.0  0.56510  0.58560  0.22560  1.0000 0.1300505393
H   H27       1.0  0.56510  0.91440  0.72560  1.0000 0.1300505393
H   H28       1.0  0.43490  0.41440  0.77440  1.0000 0.1300505393
H   H29       1.0  0.64930  0.96510  0.15340  1.0000 0.1300505393
H   H30       1.0  0.35070  0.46510  0.34660  1.0000 0.1300505393
H   H31       1.0  0.35070  0.03490  0.84660  1.0000 0.1300505393
H   H32       1.0  0.64930  0.53490  0.65340  1.0000 0.1300505393
H   H33       1.0  0.71500  0.87940  0.88240  1.0000 0.1420346774
H   H34       1.0  0.28500  0.37940  0.61760  1.0000 0.1420346774
H   H35       1.0  0.28500  0.12060  0.11760  1.0000 0.1420346774
H   H36       1.0  0.71500  0.62060  0.38240  1.0000 0.1420346774
H   H37       1.0  0.77490  0.90150  0.01480  1.0000 0.1420346774
H   H38       1.0  0.22510  0.40150  0.48520  1.0000 0.1420346774
H   H39       1.0  0.22510  0.09850  0.98520  1.0000 0.1420346774
H   H40       1.0  0.77490  0.59850  0.51480  1.0000 0.1420346774
H   H41       1.0  0.80750  0.07450  0.94420  1.0000 0.1219698168
H   H42       1.0  0.19250  0.57450  0.55580  1.0000 0.1219698168
H   H43       1.0  0.19250  0.92550  0.05580  1.0000 0.1219698168
H   H44       1.0  0.80750  0.42550  0.44420  1.0000 0.1219698168
H   H45       1.0  0.93300  0.89530  0.76390  1.0000 0.1542107093
H   H46       1.0  0.06700  0.39530  0.73610  1.0000 0.1542107093
H   H47       1.0  0.06700  0.10470  0.23610  1.0000 0.1542107093
H   H48       1.0  0.93300  0.60470  0.26390  1.0000 0.1542107093
H   H49       1.0  0.06310  0.00500  0.70750  1.0000 0.1300505393
H   H50       1.0  0.93690  0.50500  0.79250  1.0000 0.1300505393
H   H51       1.0  0.93690  0.99500  0.29250  1.0000 0.1300505393
H   H52       1.0  0.06310  0.49500  0.20750  1.0000 0.1300505393
C   C1        1.0  0.57380  0.93650  0.39240  1.0000 0.0892321303
C   C2        1.0  0.42620  0.43650  0.10760  1.0000 0.0892321303
C   C3        1.0  0.42620  0.06350  0.60760  1.0000 0.0892321303
C   C4        1.0  0.57380  0.56350  0.89240  1.0000 0.0892321303
C   C5        1.0  0.73590  0.00180  0.45880  1.0000 -0.0300680936
C   C6        1.0  0.26410  0.50180  0.04120  1.0000 -0.0300680936
C   C7        1.0  0.26410  0.99820  0.54120  1.0000 -0.0300680936
C   C8        1.0  0.73590  0.49820  0.95880  1.0000 -0.0300680936
C   C9        1.0  0.65740  0.04990  0.39210  1.0000 -0.1131153402
C   C10       1.0  0.34260  0.54990  0.10790  1.0000 -0.1131153402
C   C11       1.0  0.34260  0.95010  0.60790  1.0000 -0.1131153402
C   C12       1.0  0.65740  0.45010  0.89210  1.0000 -0.1131153402
C   C13       1.0  0.44850  0.03170  0.26420  1.0000 -0.1615339291
C   C14       1.0  0.55150  0.53170  0.23580  1.0000 -0.1615339291
C   C15       1.0  0.55150  0.96830  0.73580  1.0000 -0.1615339291
C   C16       1.0  0.44850  0.46830  0.76420  1.0000 -0.1615339291
C   C17       1.0  0.47630  0.01530  0.12690  1.0000 0.0597681816
C   C18       1.0  0.52370  0.51530  0.37310  1.0000 0.0597681816
C   C19       1.0  0.52370  0.98470  0.87310  1.0000 0.0597681816
C   C20       1.0  0.47630  0.48470  0.62690  1.0000 0.0597681816
C   C21       1.0  0.58880  0.97930  0.09110  1.0000 -0.2044533861
C   C22       1.0  0.41120  0.47930  0.40890  1.0000 -0.2044533861
C   C23       1.0  0.41120  0.02070  0.90890  1.0000 -0.2044533861
C   C24       1.0  0.58880  0.52070  0.59110  1.0000 -0.2044533861
C   C25       1.0  0.61470  0.96360  0.96710  1.0000 0.0597681816
C   C26       1.0  0.38530  0.46360  0.53290  1.0000 0.0597681816
C   C27       1.0  0.38530  0.03640  0.03290  1.0000 0.0597681816
C   C28       1.0  0.61470  0.53640  0.46710  1.0000 0.0597681816
C   C29       1.0  0.73680  0.92180  0.93720  1.0000 -0.1615339291
C   C30       1.0  0.26320  0.42180  0.56280  1.0000 -0.1615339291
C   C31       1.0  0.26320  0.07820  0.06280  1.0000 -0.1615339291
C   C32       1.0  0.73680  0.57820  0.43720  1.0000 -0.1615339291
C   C33       1.0  0.85520  0.04370  0.89170  1.0000 0.0843465033
C   C34       1.0  0.14480  0.54370  0.60830  1.0000 0.0843465033
C   C35       1.0  0.14480  0.95630  0.10830  1.0000 0.0843465033
C   C36       1.0  0.85520  0.45630  0.39170  1.0000 0.0843465033
C   C37       1.0  0.92310  0.94450  0.79310  1.0000 -0.087336784
C   C38       1.0  0.07690  0.44450  0.70690  1.0000 -0.087336784
C   C39       1.0  0.07690  0.05550  0.20690  1.0000 -0.087336784
C   C40       1.0  0.92310  0.55550  0.29310  1.0000 -0.087336784
C   C41       1.0  0.99470  0.00560  0.76260  1.0000 -0.038886192
C   C42       1.0  0.00530  0.50560  0.73740  1.0000 -0.038886192
C   C43       1.0  0.00530  0.99440  0.23740  1.0000 -0.038886192
C   C44       1.0  0.99470  0.49440  0.26260  1.0000 -0.038886192
N   N1        1.0  0.68310  0.93150  0.45830  1.0000 -0.2835609687
N   N2        1.0  0.31690  0.43150  0.04170  1.0000 -0.2835609687
N   N3        1.0  0.31690  0.06850  0.54170  1.0000 -0.2835609687
N   N4        1.0  0.68310  0.56850  0.95830  1.0000 -0.2835609687
N   N5        1.0  0.55340  0.00740  0.35060  1.0000 0.0417930021
N   N6        1.0  0.44660  0.50740  0.14940  1.0000 0.0417930021
N   N7        1.0  0.44660  0.99260  0.64940  1.0000 0.0417930021
N   N8        1.0  0.55340  0.49260  0.85060  1.0000 0.0417930021
N   N9        1.0  0.83380  0.96960  0.87530  1.0000 0.0458781089
N   N10       1.0  0.16620  0.46960  0.62470  1.0000 0.0458781089
N   N11       1.0  0.16620  0.03040  0.12470  1.0000 0.0458781089
N   N12       1.0  0.83380  0.53040  0.37530  1.0000 0.0458781089
N   N13       1.0  0.95220  0.06770  0.82400  1.0000 -0.3010314924
N   N14       1.0  0.04780  0.56770  0.67600  1.0000 -0.3010314924
N   N15       1.0  0.04780  0.93230  0.17600  1.0000 -0.3010314924
N   N16       1.0  0.95220  0.43230  0.32400  1.0000 -0.3010314924
O   O1        1.0  0.80330  0.82822  0.20230  1.0000 -0.7496672792
O   O2        1.0  0.19670  0.32822  0.29770  1.0000 -0.7496672792
O   O3        1.0  0.19670  0.17178  0.79770  1.0000 -0.7496672792
O   O4        1.0  0.80330  0.67178  0.70230  1.0000 -0.7496672792
O   O5        1.0  0.69090  0.76115  0.37950  1.0000 -0.7289830369
O   O6        1.0  0.30910  0.26115  0.12050  1.0000 -0.7289830369
O   O7        1.0  0.30910  0.23885  0.62050  1.0000 -0.7289830369
O   O8        1.0  0.69090  0.73885  0.87950  1.0000 -0.7289830369
O   O9        1.0  0.71400  0.69561  0.17300  1.0000 -0.7419284505
O   O10       1.0  0.28600  0.19561  0.32700  1.0000 -0.7419284505
O   O11       1.0  0.28600  0.30439  0.82700  1.0000 -0.7419284505
O   O12       1.0  0.71400  0.80439  0.67300  1.0000 -0.7419284505
O   O13       1.0  0.94920  0.84570  0.49990  1.0000 -0.7419284505
O   O14       1.0  0.05080  0.34570  0.00010  1.0000 -0.7419284505
O   O15       1.0  0.05080  0.15430  0.50010  1.0000 -0.7419284505
O   O16       1.0  0.94920  0.65430  0.99990  1.0000 -0.7419284505
O   O17       1.0  0.05450  0.71890  0.54210  1.0000 -0.6973676977
O   O18       1.0  0.94550  0.21890  0.95790  1.0000 -0.6973676977
O   O19       1.0  0.94550  0.28110  0.45790  1.0000 -0.6973676977
O   O20       1.0  0.05450  0.78110  0.04210  1.0000 -0.6973676977
O   O21       1.0  0.07200  0.77380  0.33260  1.0000 -0.6973676977
O   O22       1.0  0.92800  0.27380  0.16740  1.0000 -0.6973676977
O   O23       1.0  0.92800  0.22620  0.66740  1.0000 -0.6973676977
O   O24       1.0  0.07200  0.72620  0.83260  1.0000 -0.6973676977
