# DDEC6 charges by PACMAN v1.1 (https://github.com/mtap-research/PACMAN-charge/)
data_2016[Fe][acs]3[FSR]2
_chemical_formula_sum              "Fe2 H6 C6 O12"
_cell_length_a       7.3292
_cell_length_b       7.3292
_cell_length_c       8.3159
_cell_angle_alpha    90
_cell_angle_beta     90
_cell_angle_gamma    120

_symmetry_space_group_name_H-M    "P 1"
_symmetry_Int_Tables_number       1

loop_
  _symmetry_equiv_pos_as_xyz
  'x, y, z'

loop_
  _atom_site_type_symbol
  _atom_site_label
  _atom_site_symmetry_multiplicity
  _atom_site_fract_x
  _atom_site_fract_y
  _atom_site_fract_z
  _atom_site_occupancy
  _atom_site_charge
Fe  Fe1       1.0  0.33333  0.66667  0.75000  1.0000 0.9179176453
Fe  Fe2       1.0  0.66667  0.33333  0.25000  1.0000 0.9179176453
H   H1        1.0  0.56210  0.00000  0.00000  1.0000 0.1187224377
H   H2        1.0  0.00000  0.56210  0.00000  1.0000 0.1187224377
H   H3        1.0  0.43790  0.43790  0.00000  1.0000 0.1187224377
H   H4        1.0  0.43790  0.00000  0.50000  1.0000 0.1187224377
H   H5        1.0  0.00000  0.43790  0.50000  1.0000 0.1187224377
H   H6        1.0  0.56210  0.56210  0.50000  1.0000 0.1187224377
C   C1        1.0  0.43520  0.00000  0.00000  1.0000 0.4919093811
C   C2        1.0  0.00000  0.43520  0.00000  1.0000 0.4919093811
C   C3        1.0  0.56480  0.56480  0.00000  1.0000 0.4919093811
C   C4        1.0  0.56480  0.00000  0.50000  1.0000 0.4919093811
C   C5        1.0  0.00000  0.56480  0.50000  1.0000 0.4919093811
C   C6        1.0  0.43520  0.43520  0.50000  1.0000 0.4919093811
O   O1        1.0  0.30590  0.89210  0.89560  1.0000 -0.4583021836
O   O2        1.0  0.10790  0.41380  0.89560  1.0000 -0.4583021836
O   O3        1.0  0.58620  0.69410  0.89560  1.0000 -0.4583021836
O   O4        1.0  0.69410  0.10790  0.39560  1.0000 -0.4583021836
O   O5        1.0  0.89210  0.58620  0.39560  1.0000 -0.4583021836
O   O6        1.0  0.41380  0.30590  0.39560  1.0000 -0.4583021836
O   O7        1.0  0.89210  0.30590  0.10440  1.0000 -0.4583021836
O   O8        1.0  0.41380  0.10790  0.10440  1.0000 -0.4583021836
O   O9        1.0  0.69410  0.58620  0.10440  1.0000 -0.4583021836
O   O10       1.0  0.10790  0.69410  0.60440  1.0000 -0.4583021836
O   O11       1.0  0.58620  0.89210  0.60440  1.0000 -0.4583021836
O   O12       1.0  0.30590  0.41380  0.60440  1.0000 -0.4583021836
