# DDEC6 charges by PACMAN v1.1 (https://github.com/mtap-research/PACMAN-charge/)
data_2016[Cd][nan]3[FSR]13
_chemical_formula_sum              "Cd8 H68 C64 N40 O28"
_cell_length_a       15.3162
_cell_length_b       12.6184
_cell_length_c       15.5659
_cell_angle_alpha    90
_cell_angle_beta     96.165
_cell_angle_gamma    90

_symmetry_space_group_name_H-M    "P 1"
_symmetry_Int_Tables_number       1

loop_
  _symmetry_equiv_pos_as_xyz
  'x, y, z'

loop_
  _atom_site_type_symbol
  _atom_site_label
  _atom_site_symmetry_multiplicity
  _atom_site_fract_x
  _atom_site_fract_y
  _atom_site_fract_z
  _atom_site_occupancy
  _atom_site_charge
Cd  Cd1       1.0  0.31800  0.17354  0.31607  1.0000 0.9233958022
Cd  Cd2       1.0  0.68200  0.67354  0.18393  1.0000 0.9233958022
Cd  Cd3       1.0  0.68200  0.82646  0.68393  1.0000 0.9233958022
Cd  Cd4       1.0  0.31800  0.32646  0.81607  1.0000 0.9233958022
Cd  Cd5       1.0  0.60936  0.16990  0.26918  1.0000 0.7964728372
Cd  Cd6       1.0  0.39064  0.66990  0.23082  1.0000 0.7964728372
Cd  Cd7       1.0  0.39064  0.83010  0.73082  1.0000 0.7964728372
Cd  Cd8       1.0  0.60936  0.33010  0.76918  1.0000 0.7964728372
H   H1        1.0  0.95180  0.07130  0.30340  1.0000 0.1450328873
H   H2        1.0  0.04820  0.57130  0.19660  1.0000 0.1450328873
H   H3        1.0  0.04820  0.92870  0.69660  1.0000 0.1450328873
H   H4        1.0  0.95180  0.42870  0.80340  1.0000 0.141648324
H   H5        1.0  0.80490  0.04800  0.30930  1.0000 0.1124991274
H   H6        1.0  0.19510  0.54800  0.19070  1.0000 0.1124991274
H   H7        1.0  0.19510  0.95200  0.69070  1.0000 0.1124991274
H   H8        1.0  0.80490  0.45200  0.80930  1.0000 0.1124991274
H   H9        1.0  0.75700  0.33810  0.24520  1.0000 0.1006245286
H   H10       1.0  0.24300  0.83810  0.25480  1.0000 0.1006245286
H   H11       1.0  0.24300  0.66190  0.75480  1.0000 0.1006245286
H   H12       1.0  0.75700  0.16190  0.74520  1.0000 0.1006245286
H   H13       1.0  0.90140  0.36930  0.23170  1.0000 0.141648324
H   H14       1.0  0.09860  0.86930  0.26830  1.0000 0.141648324
H   H15       1.0  0.09860  0.63070  0.76830  1.0000 0.141648324
H   H16       1.0  0.90140  0.13070  0.73170  1.0000 0.141648324
H   H17       1.0  0.43570  0.47040  0.56430  1.0000 0.1311007337
H   H18       1.0  0.56430  0.97040  0.93570  1.0000 0.1311007337
H   H19       1.0  0.56430  0.52960  0.43570  1.0000 0.1311007337
H   H20       1.0  0.43570  0.02960  0.06430  1.0000 0.1311007337
H   H21       1.0  0.43950  0.58480  0.67830  1.0000 0.1124991274
H   H22       1.0  0.56050  0.08480  0.82170  1.0000 0.1124991274
H   H23       1.0  0.56050  0.41520  0.32170  1.0000 0.1124991274
H   H24       1.0  0.43950  0.91520  0.17830  1.0000 0.1124991274
H   H25       1.0  0.31350  0.80030  0.53470  1.0000 0.1124991274
H   H26       1.0  0.68650  0.30030  0.96530  1.0000 0.1124991274
H   H27       1.0  0.68650  0.19970  0.46530  1.0000 0.1124991274
H   H28       1.0  0.31350  0.69970  0.03470  1.0000 0.1124991274
H   H29       1.0  0.30580  0.69130  0.41620  1.0000 0.1311007337
H   H30       1.0  0.69420  0.19130  0.08380  1.0000 0.1311007337
H   H31       1.0  0.69420  0.30870  0.58380  1.0000 0.1311007337
H   H32       1.0  0.30580  0.80870  0.91620  1.0000 0.1311007337
H   H33       1.0  0.41650  0.98370  0.45030  1.0000 0.0886304313
H   H34       1.0  0.58350  0.48370  0.04970  1.0000 0.0886304313
H   H35       1.0  0.58350  0.01630  0.54970  1.0000 0.0886304313
H   H36       1.0  0.41650  0.51630  0.95030  1.0000 0.0886304313
H   H37       1.0  0.49870  0.82420  0.49140  1.0000 0.1311007337
H   H38       1.0  0.50130  0.32420  0.00860  1.0000 0.1311007337
H   H39       1.0  0.50130  0.17580  0.50860  1.0000 0.1311007337
H   H40       1.0  0.49870  0.67580  0.99140  1.0000 0.1311007337
H   H41       1.0  0.57110  0.86390  0.43550  1.0000 0.1242707567
H   H42       1.0  0.42890  0.36390  0.06450  1.0000 0.1242707567
H   H43       1.0  0.42890  0.13610  0.56450  1.0000 0.1242707567
H   H44       1.0  0.57110  0.63610  0.93550  1.0000 0.1242707567
H   H45       1.0  0.30030  0.16190  0.13450  1.0000 0.3714861171
H   H46       1.0  0.69970  0.66190  0.36550  1.0000 0.3714861171
H   H47       1.0  0.69970  0.83810  0.86550  1.0000 0.3714861171
H   H48       1.0  0.30030  0.33810  0.63450  1.0000 0.3714861171
H   H49       1.0  0.27590  0.16900  0.50170  1.0000 0.3802471356
H   H50       1.0  0.72410  0.66900  0.99830  1.0000 0.3802471356
H   H51       1.0  0.72410  0.83100  0.49830  1.0000 0.3802471356
H   H52       1.0  0.27590  0.33100  0.00170  1.0000 0.3802471356
H   H53       1.0  0.24500  0.98590  0.37070  1.0000 0.3165181326
H   H54       1.0  0.75500  0.48590  0.12930  1.0000 0.3165181326
H   H55       1.0  0.75500  0.01410  0.62930  1.0000 0.3165181326
H   H56       1.0  0.24500  0.51410  0.87070  1.0000 0.3165181326
H   H57       1.0  0.39240  0.18020  0.16680  1.0000 0.3866038219
H   H58       1.0  0.60760  0.68020  0.33320  1.0000 0.3866038219
H   H59       1.0  0.60760  0.81980  0.83320  1.0000 0.3866038219
H   H60       1.0  0.39240  0.31980  0.66680  1.0000 0.3866038219
H   H61       1.0  0.28890  0.26790  0.45680  1.0000 0.3714861171
H   H62       1.0  0.71110  0.76790  0.04320  1.0000 0.3714861171
H   H63       1.0  0.71110  0.73210  0.54320  1.0000 0.3714861171
H   H64       1.0  0.28890  0.23210  0.95680  1.0000 0.3714861171
H   H65       1.0  0.31440  0.95960  0.32780  1.0000 0.3427594201
H   H66       1.0  0.68560  0.45960  0.17220  1.0000 0.3427594201
H   H67       1.0  0.68560  0.04040  0.67220  1.0000 0.3427594201
H   H68       1.0  0.31440  0.54040  0.82780  1.0000 0.3427594201
C   C1        1.0  0.03770  0.23970  0.25460  1.0000 0.2228146167
C   C2        1.0  0.96230  0.73970  0.24540  1.0000 0.2228146167
C   C3        1.0  0.96230  0.76030  0.74540  1.0000 0.2228146167
C   C4        1.0  0.03770  0.26030  0.75460  1.0000 0.2228146167
C   C5        1.0  0.94420  0.22220  0.26380  1.0000 0.1006245286
C   C6        1.0  0.05580  0.72220  0.23620  1.0000 0.1006245286
C   C7        1.0  0.05580  0.77780  0.73620  1.0000 0.1006245286
C   C8        1.0  0.94420  0.27780  0.76380  1.0000 0.1006245286
C   C9        1.0  0.91330  0.12700  0.28890  1.0000 -0.1573508187
C   C10       1.0  0.08670  0.62700  0.21110  1.0000 -0.1573508187
C   C11       1.0  0.08670  0.87300  0.71110  1.0000 -0.1573508187
C   C12       1.0  0.91330  0.37300  0.78890  1.0000 -0.1573508187
C   C13       1.0  0.82450  0.11390  0.29280  1.0000 0.0786914266
C   C14       1.0  0.17550  0.61390  0.20720  1.0000 0.0786914266
C   C15       1.0  0.17550  0.88610  0.70720  1.0000 0.0786914266
C   C16       1.0  0.82450  0.38610  0.79280  1.0000 0.0786914266
C   C17       1.0  0.79660  0.28230  0.25480  1.0000 0.0483555206
C   C18       1.0  0.20340  0.78230  0.24520  1.0000 0.0483555206
C   C19       1.0  0.20340  0.71770  0.74520  1.0000 0.0483555206
C   C20       1.0  0.79660  0.21770  0.75480  1.0000 0.0483555206
C   C21       1.0  0.88360  0.30230  0.24750  1.0000 -0.17355379
C   C22       1.0  0.11640  0.80230  0.25250  1.0000 -0.17355379
C   C23       1.0  0.11640  0.69770  0.75250  1.0000 -0.17355379
C   C24       1.0  0.88360  0.19770  0.74750  1.0000 -0.17355379
C   C25       1.0  0.36910  0.49380  0.40310  1.0000 0.2228146167
C   C26       1.0  0.63090  0.99380  0.09690  1.0000 0.2228146167
C   C27       1.0  0.63090  0.50620  0.59690  1.0000 0.2228146167
C   C28       1.0  0.36910  0.00620  0.90310  1.0000 0.2228146167
C   C29       1.0  0.37190  0.56850  0.47600  1.0000 0.0886304313
C   C30       1.0  0.62810  0.06850  0.02400  1.0000 0.0886304313
C   C31       1.0  0.62810  0.43150  0.52400  1.0000 0.0886304313
C   C32       1.0  0.37190  0.93150  0.97600  1.0000 0.0886304313
C   C33       1.0  0.41100  0.53750  0.55660  1.0000 -0.1871731496
C   C34       1.0  0.58900  0.03750  0.94340  1.0000 -0.1871731496
C   C35       1.0  0.58900  0.46250  0.44340  1.0000 -0.1871731496
C   C36       1.0  0.41100  0.96250  0.05660  1.0000 -0.1871731496
C   C37       1.0  0.41290  0.60670  0.62480  1.0000 0.1006245286
C   C38       1.0  0.58710  0.10670  0.87520  1.0000 0.1006245286
C   C39       1.0  0.58710  0.39330  0.37520  1.0000 0.1006245286
C   C40       1.0  0.41290  0.89330  0.12480  1.0000 0.1006245286
C   C41       1.0  0.33880  0.73330  0.54030  1.0000 0.0786914266
C   C42       1.0  0.66120  0.23330  0.95970  1.0000 0.0786914266
C   C43       1.0  0.66120  0.26670  0.45970  1.0000 0.0786914266
C   C44       1.0  0.33880  0.76670  0.04030  1.0000 0.0786914266
C   C45       1.0  0.33410  0.66840  0.46880  1.0000 -0.17355379
C   C46       1.0  0.66590  0.16840  0.03120  1.0000 -0.17355379
C   C47       1.0  0.66590  0.33160  0.53120  1.0000 -0.17355379
C   C48       1.0  0.33410  0.83160  0.96880  1.0000 -0.17355379
C   C49       1.0  0.51340  0.05220  0.38550  1.0000 0.5923937456
C   C50       1.0  0.48660  0.55220  0.11450  1.0000 0.5923937456
C   C51       1.0  0.48660  0.94780  0.61450  1.0000 0.5923937456
C   C52       1.0  0.51340  0.44780  0.88550  1.0000 0.5923937456
C   C53       1.0  0.48070  0.98010  0.45455  1.0000 -0.1094880443
C   C54       1.0  0.51930  0.48010  0.04545  1.0000 -0.1094880443
C   C55       1.0  0.51930  0.01990  0.54545  1.0000 -0.1094880443
C   C56       1.0  0.48070  0.51990  0.95455  1.0000 -0.1094880443
C   C57       1.0  0.50850  0.86490  0.44050  1.0000 -0.3712272449
C   C58       1.0  0.49150  0.36490  0.05950  1.0000 -0.3712272449
C   C59       1.0  0.49150  0.13510  0.55950  1.0000 -0.3712272449
C   C60       1.0  0.50850  0.63510  0.94050  1.0000 -0.3712272449
C   C61       1.0  0.46170  0.81020  0.36210  1.0000 0.614934911
C   C62       1.0  0.53830  0.31020  0.13790  1.0000 0.614934911
C   C63       1.0  0.53830  0.18980  0.63790  1.0000 0.614934911
C   C64       1.0  0.46170  0.68980  0.86210  1.0000 0.614934911
N   N1        1.0  0.17510  0.22350  0.26610  1.0000 -0.1094880443
N   N2        1.0  0.82490  0.72350  0.23390  1.0000 -0.1094880443
N   N3        1.0  0.82490  0.77650  0.73390  1.0000 -0.1094880443
N   N4        1.0  0.17510  0.27650  0.76610  1.0000 -0.1094880443
N   N5        1.0  0.15470  0.30590  0.21670  1.0000 -0.1094880443
N   N6        1.0  0.84530  0.80590  0.28330  1.0000 -0.1094880443
N   N7        1.0  0.84530  0.69410  0.78330  1.0000 -0.1094880443
N   N8        1.0  0.15470  0.19410  0.71670  1.0000 -0.1094880443
N   N9        1.0  0.06790  0.31810  0.20890  1.0000 -0.270771957
N   N10       1.0  0.93210  0.81810  0.29110  1.0000 -0.270771957
N   N11       1.0  0.93210  0.68190  0.79110  1.0000 -0.270771957
N   N12       1.0  0.06790  0.18190  0.70890  1.0000 -0.270771957
N   N13       1.0  0.10240  0.17900  0.29070  1.0000 -0.2648319705
N   N14       1.0  0.89760  0.67900  0.20930  1.0000 -0.2648319705
N   N15       1.0  0.89760  0.82100  0.70930  1.0000 -0.2648319705
N   N16       1.0  0.10240  0.32100  0.79070  1.0000 -0.2648319705
N   N17       1.0  0.76550  0.18900  0.27460  1.0000 -0.2389071836
N   N18       1.0  0.23450  0.68900  0.22540  1.0000 -0.2389071836
N   N19       1.0  0.23450  0.81100  0.72540  1.0000 -0.2389071836
N   N20       1.0  0.76550  0.31100  0.77460  1.0000 -0.2389071836
N   N21       1.0  0.36130  0.34910  0.33470  1.0000 -0.1017112611
N   N22       1.0  0.63870  0.84910  0.16530  1.0000 -0.1017112611
N   N23       1.0  0.63870  0.65090  0.66530  1.0000 -0.1017112611
N   N24       1.0  0.36130  0.15090  0.83470  1.0000 -0.1017112611
N   N25       1.0  0.36530  0.42460  0.27757  1.0000 -0.0632796157
N   N26       1.0  0.63470  0.92460  0.22243  1.0000 -0.0632796157
N   N27       1.0  0.63470  0.57540  0.72243  1.0000 -0.0632796157
N   N28       1.0  0.36530  0.07540  0.77757  1.0000 -0.0632796157
N   N29       1.0  0.37010  0.51800  0.31916  1.0000 -0.270771957
N   N30       1.0  0.62990  0.01800  0.18084  1.0000 -0.270771957
N   N31       1.0  0.62990  0.48200  0.68084  1.0000 -0.270771957
N   N32       1.0  0.37010  0.98200  0.81916  1.0000 -0.270771957
N   N33       1.0  0.36420  0.39010  0.41471  1.0000 -0.2770758374
N   N34       1.0  0.63580  0.89010  0.08529  1.0000 -0.2770758374
N   N35       1.0  0.63580  0.60990  0.58529  1.0000 -0.2770758374
N   N36       1.0  0.36420  0.10990  0.91471  1.0000 -0.2770758374
N   N37       1.0  0.37830  0.70400  0.61789  1.0000 -0.2245532079
N   N38       1.0  0.62170  0.20400  0.88211  1.0000 -0.2245532079
N   N39       1.0  0.62170  0.29600  0.38211  1.0000 -0.2245532079
N   N40       1.0  0.37830  0.79600  0.11789  1.0000 -0.2245532079
O   O1        1.0  0.46254  0.11340  0.34136  1.0000 -0.5761569395
O   O2        1.0  0.53746  0.61340  0.15864  1.0000 -0.5761569395
O   O3        1.0  0.53746  0.88660  0.65864  1.0000 -0.5761569395
O   O4        1.0  0.46254  0.38660  0.84136  1.0000 -0.5761569395
O   O5        1.0  0.59433  0.04935  0.37702  1.0000 -0.5420234456
O   O6        1.0  0.40567  0.54935  0.12298  1.0000 -0.5420234456
O   O7        1.0  0.40567  0.95065  0.62298  1.0000 -0.5420234456
O   O8        1.0  0.59433  0.45065  0.87702  1.0000 -0.5420234456
O   O9        1.0  0.39328  0.84690  0.32312  1.0000 -0.5653893455
O   O10       1.0  0.60672  0.34690  0.17688  1.0000 -0.5653893455
O   O11       1.0  0.60672  0.15310  0.67688  1.0000 -0.5653893455
O   O12       1.0  0.39328  0.65310  0.82312  1.0000 -0.5653893455
O   O13       1.0  0.49221  0.72230  0.33996  1.0000 -0.5528147324
O   O14       1.0  0.50779  0.22230  0.16004  1.0000 -0.5528147324
O   O15       1.0  0.50779  0.27770  0.66004  1.0000 -0.5528147324
O   O16       1.0  0.49221  0.77770  0.83996  1.0000 -0.5528147324
O   O17       1.0  0.34160  0.16230  0.17645  1.0000 -0.6889304026
O   O18       1.0  0.65840  0.66230  0.32355  1.0000 -0.6889304026
O   O19       1.0  0.65840  0.83770  0.82355  1.0000 -0.6889304026
O   O20       1.0  0.34160  0.33770  0.67645  1.0000 -0.6889304026
O   O21       1.0  0.28460  0.20090  0.45507  1.0000 -0.6889304026
O   O22       1.0  0.71540  0.70090  0.04493  1.0000 -0.6889304026
O   O23       1.0  0.71540  0.79910  0.54493  1.0000 -0.6889304026
O   O24       1.0  0.28460  0.29910  0.95507  1.0000 -0.6889304026
O   O25       1.0  0.27407  0.00470  0.32920  1.0000 -0.6502343221
O   O26       1.0  0.72593  0.50470  0.17080  1.0000 -0.6502343221
O   O27       1.0  0.72593  0.99530  0.67080  1.0000 -0.6502343221
O   O28       1.0  0.27407  0.49530  0.82920  1.0000 -0.6502343221
