# DDEC6 charges by PACMAN v1.1 (https://github.com/mtap-research/PACMAN-charge/)
data_2016[Eu][cds]3[FSR]1
_chemical_formula_sum              "Eu4 H108 C144 N28 O32"
_cell_length_a       8.1737
_cell_length_b       15.0092
_cell_length_c       37.574
_cell_angle_alpha    90
_cell_angle_beta     101.828
_cell_angle_gamma    90

_symmetry_space_group_name_H-M    "P 1"
_symmetry_Int_Tables_number       1

loop_
  _symmetry_equiv_pos_as_xyz
  'x, y, z'

loop_
  _atom_site_type_symbol
  _atom_site_label
  _atom_site_symmetry_multiplicity
  _atom_site_fract_x
  _atom_site_fract_y
  _atom_site_fract_z
  _atom_site_occupancy
  _atom_site_charge
Eu  Eu1       1.0  0.68009  0.90161  0.01445  1.0000 2.013138251
Eu  Eu2       1.0  0.31991  0.90161  0.48555  1.0000 2.013138251
Eu  Eu3       1.0  0.31991  0.09839  0.98555  1.0000 2.013138251
Eu  Eu4       1.0  0.68009  0.09839  0.51445  1.0000 2.013138251
H   H1        1.0  0.84630  0.05710  0.04310  1.0000 0.3430665001
H   H2        1.0  0.15370  0.05710  0.45690  1.0000 0.3430665001
H   H3        1.0  0.15370  0.94290  0.95690  1.0000 0.3430665001
H   H4        1.0  0.84630  0.94290  0.54310  1.0000 0.3430665001
H   H5        1.0  0.90990  0.03930  0.01290  1.0000 0.3777610898
H   H6        1.0  0.09010  0.03930  0.48710  1.0000 0.3777610898
H   H7        1.0  0.09010  0.96070  0.98710  1.0000 0.3777610898
H   H8        1.0  0.90990  0.96070  0.51290  1.0000 0.3777610898
H   H9        1.0  0.13810  0.75490  0.00090  1.0000 0.1483637407
H   H10       1.0  0.86190  0.75490  0.49910  1.0000 0.1483637407
H   H11       1.0  0.86190  0.24510  0.99910  1.0000 0.1483637407
H   H12       1.0  0.13810  0.24510  0.50090  1.0000 0.1483637407
H   H13       1.0  0.07720  0.90660  0.84180  1.0000 0.2974432274
H   H14       1.0  0.92280  0.90660  0.65820  1.0000 0.2974432274
H   H15       1.0  0.92280  0.09340  0.15820  1.0000 0.2974432274
H   H16       1.0  0.07720  0.09340  0.34180  1.0000 0.2974432274
H   H17       1.0  0.68460  0.42290  0.04450  1.0000 0.1192626138
H   H18       1.0  0.31540  0.42290  0.45550  1.0000 0.1192626138
H   H19       1.0  0.31540  0.57710  0.95550  1.0000 0.1192626138
H   H20       1.0  0.68460  0.57710  0.54450  1.0000 0.1192626138
H   H21       1.0  0.36770  0.96360  0.69180  1.0000 0.2907930925
H   H22       1.0  0.63230  0.96360  0.80820  1.0000 0.2907930925
H   H23       1.0  0.63230  0.03640  0.30820  1.0000 0.2907930925
H   H24       1.0  0.36770  0.03640  0.19180  1.0000 0.2907930925
H   H25       1.0  0.49130  0.01850  0.63120  1.0000 0.1297256932
H   H26       1.0  0.50870  0.01850  0.86880  1.0000 0.1297256932
H   H27       1.0  0.50870  0.98150  0.36880  1.0000 0.1297256932
H   H28       1.0  0.49130  0.98150  0.13120  1.0000 0.1297256932
H   H29       1.0  0.95140  0.91150  0.90640  1.0000 0.1297256932
H   H30       1.0  0.04860  0.91150  0.59360  1.0000 0.1297256932
H   H31       1.0  0.04860  0.08850  0.09360  1.0000 0.1297256932
H   H32       1.0  0.95140  0.08850  0.40640  1.0000 0.1297256932
H   H33       1.0  0.27130  0.94810  0.73960  1.0000 0.1086681301
H   H34       1.0  0.72870  0.94810  0.76040  1.0000 0.1086681301
H   H35       1.0  0.72870  0.05190  0.26040  1.0000 0.1086681301
H   H36       1.0  0.27130  0.05190  0.23960  1.0000 0.1086681301
H   H37       1.0  0.57980  0.81070  0.57060  1.0000 0.1297256932
H   H38       1.0  0.42020  0.81070  0.92940  1.0000 0.1297256932
H   H39       1.0  0.42020  0.18930  0.42940  1.0000 0.1297256932
H   H40       1.0  0.57980  0.18930  0.07060  1.0000 0.1297256932
H   H41       1.0  0.85610  0.66320  0.93730  1.0000 0.1192626138
H   H42       1.0  0.14390  0.66320  0.56270  1.0000 0.1192626138
H   H43       1.0  0.14390  0.33680  0.06270  1.0000 0.1192626138
H   H44       1.0  0.85610  0.33680  0.43730  1.0000 0.1192626138
H   H45       1.0  0.52000  0.70990  0.61330  1.0000 0.1397313968
H   H46       1.0  0.48000  0.70990  0.88670  1.0000 0.1397313968
H   H47       1.0  0.48000  0.29010  0.38670  1.0000 0.1397313968
H   H48       1.0  0.52000  0.29010  0.11330  1.0000 0.1397313968
H   H49       1.0  0.48470  0.62600  0.07490  1.0000 0.1192626138
H   H50       1.0  0.51530  0.62600  0.42510  1.0000 0.1192626138
H   H51       1.0  0.51530  0.37400  0.92510  1.0000 0.1192626138
H   H52       1.0  0.48470  0.37400  0.57490  1.0000 0.1192626138
H   H53       1.0  0.96200  0.60280  0.89010  1.0000 0.1192626138
H   H54       1.0  0.03800  0.60280  0.60990  1.0000 0.1192626138
H   H55       1.0  0.03800  0.39720  0.10990  1.0000 0.1192626138
H   H56       1.0  0.96200  0.39720  0.39010  1.0000 0.1192626138
H   H57       1.0  0.17280  0.92930  0.79310  1.0000 0.1086681301
H   H58       1.0  0.82720  0.92930  0.70690  1.0000 0.1086681301
H   H59       1.0  0.82720  0.07070  0.20690  1.0000 0.1086681301
H   H60       1.0  0.17280  0.07070  0.29310  1.0000 0.1086681301
H   H61       1.0  0.28860  0.52120  0.08390  1.0000 0.1397313968
H   H62       1.0  0.71140  0.52120  0.41610  1.0000 0.1397313968
H   H63       1.0  0.71140  0.47880  0.91610  1.0000 0.1397313968
H   H64       1.0  0.28860  0.47880  0.58390  1.0000 0.1397313968
H   H65       1.0  0.58230  0.62850  0.97540  1.0000 0.1397313968
H   H66       1.0  0.41770  0.62850  0.52460  1.0000 0.1397313968
H   H67       1.0  0.41770  0.37150  0.02460  1.0000 0.1397313968
H   H68       1.0  0.58230  0.37150  0.47540  1.0000 0.1397313968
H   H69       1.0  0.19360  0.66730  0.78110  1.0000 0.1297256932
H   H70       1.0  0.80640  0.66730  0.71890  1.0000 0.1297256932
H   H71       1.0  0.80640  0.33270  0.21890  1.0000 0.1297256932
H   H72       1.0  0.19360  0.33270  0.28110  1.0000 0.1297256932
H   H73       1.0  0.28790  0.68360  0.72830  1.0000 0.1297256932
H   H74       1.0  0.71210  0.68360  0.77170  1.0000 0.1297256932
H   H75       1.0  0.71210  0.31640  0.27170  1.0000 0.1297256932
H   H76       1.0  0.28790  0.31640  0.22830  1.0000 0.1297256932
H   H77       1.0  0.90490  0.75990  0.07680  1.0000 0.1192626138
H   H78       1.0  0.09510  0.75990  0.42320  1.0000 0.1192626138
H   H79       1.0  0.09510  0.24010  0.92320  1.0000 0.1192626138
H   H80       1.0  0.90490  0.24010  0.57680  1.0000 0.1192626138
H   H81       1.0  0.22390  0.92850  0.11270  1.0000 0.1297256932
H   H82       1.0  0.77610  0.92850  0.38730  1.0000 0.1297256932
H   H83       1.0  0.77610  0.07150  0.88730  1.0000 0.1297256932
H   H84       1.0  0.22390  0.07150  0.61270  1.0000 0.1297256932
H   H85       1.0  0.34090  0.85500  0.10180  1.0000 0.1397313968
H   H86       1.0  0.65910  0.85500  0.39820  1.0000 0.1397313968
H   H87       1.0  0.65910  0.14500  0.89820  1.0000 0.1397313968
H   H88       1.0  0.34090  0.14500  0.60180  1.0000 0.1397313968
H   H89       1.0  0.21260  0.90470  0.07160  1.0000 0.1619353756
H   H90       1.0  0.78740  0.90470  0.42840  1.0000 0.1619353756
H   H91       1.0  0.78740  0.09530  0.92840  1.0000 0.1619353756
H   H92       1.0  0.21260  0.09530  0.57160  1.0000 0.1619353756
H   H93       1.0  0.08010  0.70360  0.12400  1.0000 0.1192626138
H   H94       1.0  0.91990  0.70360  0.37600  1.0000 0.1192626138
H   H95       1.0  0.91990  0.29640  0.87600  1.0000 0.1192626138
H   H96       1.0  0.08010  0.29640  0.62400  1.0000 0.1192626138
H   H97       1.0  0.26810  0.73100  0.12810  1.0000 0.1297256932
H   H98       1.0  0.73190  0.73100  0.37190  1.0000 0.1297256932
H   H99       1.0  0.73190  0.26900  0.87190  1.0000 0.1297256932
H   H100      1.0  0.26810  0.26900  0.62810  1.0000 0.1297256932
H   H101      1.0  0.15380  0.78130  0.15030  1.0000 0.1297256932
H   H102      1.0  0.84620  0.78130  0.34970  1.0000 0.1297256932
H   H103      1.0  0.84620  0.21870  0.84970  1.0000 0.1297256932
H   H104      1.0  0.15380  0.21870  0.65030  1.0000 0.1297256932
H   H105      1.0  0.94700  0.47750  0.05970  1.0000 0.2974432274
H   H106      1.0  0.05300  0.47750  0.44030  1.0000 0.2974432274
H   H107      1.0  0.05300  0.52250  0.94030  1.0000 0.2974432274
H   H108      1.0  0.94700  0.52250  0.55970  1.0000 0.2974432274
C   C1        1.0  0.89260  0.79320  0.92660  1.0000 -0.0305736679
C   C2        1.0  0.10740  0.79320  0.57340  1.0000 -0.0305736679
C   C3        1.0  0.10740  0.20680  0.07340  1.0000 -0.0305736679
C   C4        1.0  0.89260  0.20680  0.42660  1.0000 -0.0305736679
C   C5        1.0  0.16960  0.70910  0.01750  1.0000 -0.1522919695
C   C6        1.0  0.83040  0.70910  0.48250  1.0000 -0.1522919695
C   C7        1.0  0.83040  0.29090  0.98250  1.0000 -0.1522919695
C   C8        1.0  0.16960  0.29090  0.51750  1.0000 -0.1522919695
C   C9        1.0  0.45740  0.76640  0.02980  1.0000 0.5598531529
C   C10       1.0  0.54260  0.76640  0.47020  1.0000 0.5598531529
C   C11       1.0  0.54260  0.23360  0.97020  1.0000 0.5598531529
C   C12       1.0  0.45740  0.23360  0.52980  1.0000 0.5598531529
C   C13       1.0  0.33180  0.70130  0.03660  1.0000 -0.0416027107
C   C14       1.0  0.66820  0.70130  0.46340  1.0000 -0.0416027107
C   C15       1.0  0.66820  0.29870  0.96340  1.0000 -0.0416027107
C   C16       1.0  0.33180  0.29870  0.53660  1.0000 -0.0416027107
C   C17       1.0  0.05580  0.64680  0.02390  1.0000 0.1192626138
C   C18       1.0  0.94420  0.64680  0.47610  1.0000 0.1192626138
C   C19       1.0  0.94420  0.35320  0.97610  1.0000 0.1192626138
C   C20       1.0  0.05580  0.35320  0.52390  1.0000 0.1192626138
C   C21       1.0  0.61100  0.45400  0.02660  1.0000 -0.1370252505
C   C22       1.0  0.38900  0.45400  0.47340  1.0000 -0.1370252505
C   C23       1.0  0.38900  0.54600  0.97340  1.0000 -0.1370252505
C   C24       1.0  0.61100  0.54600  0.52660  1.0000 -0.1370252505
C   C25       1.0  0.82290  0.83020  0.95690  1.0000 0.5598531529
C   C26       1.0  0.17710  0.83020  0.54310  1.0000 0.5598531529
C   C27       1.0  0.17710  0.16980  0.04310  1.0000 0.5598531529
C   C28       1.0  0.82290  0.16980  0.45690  1.0000 0.5598531529
C   C29       1.0  0.45640  0.80690  0.64630  1.0000 0.1397313968
C   C30       1.0  0.54360  0.80690  0.85370  1.0000 0.1397313968
C   C31       1.0  0.54360  0.19310  0.35370  1.0000 0.1397313968
C   C32       1.0  0.45640  0.19310  0.14630  1.0000 0.1397313968
C   C33       1.0  0.49120  0.95740  0.62710  1.0000 -0.2107367445
C   C34       1.0  0.50880  0.95740  0.87290  1.0000 -0.2107367445
C   C35       1.0  0.50880  0.04260  0.37290  1.0000 -0.2107367445
C   C36       1.0  0.49120  0.04260  0.12710  1.0000 -0.2107367445
C   C37       1.0  0.00990  0.81270  0.87440  1.0000 0.1297256932
C   C38       1.0  0.99010  0.81270  0.62560  1.0000 0.1297256932
C   C39       1.0  0.99010  0.18730  0.12560  1.0000 0.1297256932
C   C40       1.0  0.00990  0.18730  0.37440  1.0000 0.1297256932
C   C41       1.0  0.44510  0.89830  0.65150  1.0000 0.1086681301
C   C42       1.0  0.55490  0.89830  0.84850  1.0000 0.1086681301
C   C43       1.0  0.55490  0.10170  0.34850  1.0000 0.1086681301
C   C44       1.0  0.44510  0.10170  0.15150  1.0000 0.1086681301
C   C45       1.0  0.17100  0.79530  0.79200  1.0000 0.0265419935
C   C46       1.0  0.82900  0.79530  0.70800  1.0000 0.0265419935
C   C47       1.0  0.82900  0.20470  0.20800  1.0000 0.0265419935
C   C48       1.0  0.17100  0.20470  0.29200  1.0000 0.0265419935
C   C49       1.0  0.56650  0.98720  0.56850  1.0000 0.6108163163
C   C50       1.0  0.43350  0.98720  0.93150  1.0000 0.6108163163
C   C51       1.0  0.43350  0.01280  0.43150  1.0000 0.6108163163
C   C52       1.0  0.56650  0.01280  0.06850  1.0000 0.6108163163
C   C53       1.0  0.83390  0.56390  0.02400  1.0000 0.3073508704
C   C54       1.0  0.16610  0.56390  0.47600  1.0000 0.3073508704
C   C55       1.0  0.16610  0.43610  0.97600  1.0000 0.3073508704
C   C56       1.0  0.83390  0.43610  0.52400  1.0000 0.3073508704
C   C57       1.0  0.53660  0.92390  0.59670  1.0000 -0.0305736679
C   C58       1.0  0.46340  0.92390  0.90330  1.0000 -0.0305736679
C   C59       1.0  0.46340  0.07610  0.40330  1.0000 -0.0305736679
C   C60       1.0  0.53660  0.07610  0.09670  1.0000 -0.0305736679
C   C61       1.0  0.09670  0.57590  0.04790  1.0000 0.0986434608
C   C62       1.0  0.90330  0.57590  0.45210  1.0000 0.0986434608
C   C63       1.0  0.90330  0.42410  0.95210  1.0000 0.0986434608
C   C64       1.0  0.09670  0.42410  0.54790  1.0000 0.0986434608
C   C65       1.0  0.10490  0.78320  0.82580  1.0000 0.3073508704
C   C66       1.0  0.89510  0.78320  0.67420  1.0000 0.3073508704
C   C67       1.0  0.89510  0.21680  0.17420  1.0000 0.3073508704
C   C68       1.0  0.10490  0.21680  0.32580  1.0000 0.3073508704
C   C69       1.0  0.95130  0.85010  0.90310  1.0000 -0.2107367445
C   C70       1.0  0.04870  0.85010  0.59690  1.0000 -0.2107367445
C   C71       1.0  0.04870  0.14990  0.09690  1.0000 -0.2107367445
C   C72       1.0  0.95130  0.14990  0.40310  1.0000 -0.2107367445
C   C73       1.0  0.25610  0.89100  0.74800  1.0000 -0.1601179414
C   C74       1.0  0.74390  0.89100  0.75200  1.0000 -0.1601179414
C   C75       1.0  0.74390  0.10900  0.25200  1.0000 -0.1601179414
C   C76       1.0  0.25610  0.10900  0.24800  1.0000 -0.1601179414
C   C77       1.0  0.01330  0.72170  0.86910  1.0000 0.1397313968
C   C78       1.0  0.98670  0.72170  0.63090  1.0000 0.1397313968
C   C79       1.0  0.98670  0.27830  0.13090  1.0000 0.1397313968
C   C80       1.0  0.01330  0.27830  0.36910  1.0000 0.1397313968
C   C81       1.0  0.54710  0.83150  0.59140  1.0000 -0.110417115
C   C82       1.0  0.45290  0.83150  0.90860  1.0000 -0.110417115
C   C83       1.0  0.45290  0.16850  0.40860  1.0000 -0.110417115
C   C84       1.0  0.54710  0.16850  0.09140  1.0000 -0.110417115
C   C85       1.0  0.89610  0.70070  0.92140  1.0000 -0.1310672
C   C86       1.0  0.10390  0.70070  0.57860  1.0000 -0.1310672
C   C87       1.0  0.10390  0.29930  0.07860  1.0000 -0.1310672
C   C88       1.0  0.89610  0.29930  0.42140  1.0000 -0.1310672
C   C89       1.0  0.50990  0.77100  0.61630  1.0000 -0.1522919695
C   C90       1.0  0.49010  0.77100  0.88370  1.0000 -0.1522919695
C   C91       1.0  0.49010  0.22900  0.38370  1.0000 -0.1522919695
C   C92       1.0  0.50990  0.22900  0.11630  1.0000 -0.1522919695
C   C93       1.0  0.36030  0.83350  0.69530  1.0000 0.3073508704
C   C94       1.0  0.63970  0.83350  0.80470  1.0000 0.3073508704
C   C95       1.0  0.63970  0.16650  0.30470  1.0000 0.3073508704
C   C96       1.0  0.36030  0.16650  0.19530  1.0000 0.3073508704
C   C97       1.0  0.37530  0.63040  0.06180  1.0000 -0.110417115
C   C98       1.0  0.62470  0.63040  0.43820  1.0000 -0.110417115
C   C99       1.0  0.62470  0.36960  0.93820  1.0000 -0.110417115
C   C100      1.0  0.37530  0.36960  0.56180  1.0000 -0.110417115
C   C101      1.0  0.95780  0.66420  0.89300  1.0000 -0.1828167275
C   C102      1.0  0.04220  0.66420  0.60700  1.0000 -0.1828167275
C   C103      1.0  0.04220  0.33580  0.10700  1.0000 -0.1828167275
C   C104      1.0  0.95780  0.33580  0.39300  1.0000 -0.1828167275
C   C105      1.0  0.29300  0.81830  0.72880  1.0000 0.0131143262
C   C106      1.0  0.70700  0.81830  0.77120  1.0000 0.0131143262
C   C107      1.0  0.70700  0.18170  0.27120  1.0000 0.0131143262
C   C108      1.0  0.29300  0.18170  0.22880  1.0000 0.0131143262
C   C109      1.0  0.19580  0.87990  0.78000  1.0000 -0.1522919695
C   C110      1.0  0.80420  0.87990  0.72000  1.0000 -0.1522919695
C   C111      1.0  0.80420  0.12010  0.22000  1.0000 -0.1522919695
C   C112      1.0  0.19580  0.12010  0.28000  1.0000 -0.1522919695
C   C113      1.0  0.25860  0.56760  0.06750  1.0000 -0.2023183764
C   C114      1.0  0.74140  0.56760  0.43250  1.0000 -0.2023183764
C   C115      1.0  0.74140  0.43240  0.93250  1.0000 -0.2023183764
C   C116      1.0  0.25860  0.43240  0.56750  1.0000 -0.2023183764
C   C117      1.0  0.54900  0.57640  0.98530  1.0000 -0.0932947513
C   C118      1.0  0.45100  0.57640  0.51470  1.0000 -0.0932947513
C   C119      1.0  0.45100  0.42360  0.01470  1.0000 -0.0932947513
C   C120      1.0  0.54900  0.42360  0.48530  1.0000 -0.0932947513
C   C121      1.0  0.66300  0.53130  0.01190  1.0000 0.0131143262
C   C122      1.0  0.33700  0.53130  0.48810  1.0000 0.0131143262
C   C123      1.0  0.33700  0.46870  0.98810  1.0000 0.0131143262
C   C124      1.0  0.66300  0.46870  0.51190  1.0000 0.0131143262
C   C125      1.0  0.20830  0.72440  0.77260  1.0000 -0.110417115
C   C126      1.0  0.79170  0.72440  0.72740  1.0000 -0.110417115
C   C127      1.0  0.79170  0.27560  0.22740  1.0000 -0.110417115
C   C128      1.0  0.20830  0.27560  0.27260  1.0000 -0.110417115
C   C129      1.0  0.26640  0.73360  0.74120  1.0000 -0.110417115
C   C130      1.0  0.73360  0.73360  0.75880  1.0000 -0.110417115
C   C131      1.0  0.73360  0.26640  0.25880  1.0000 -0.110417115
C   C132      1.0  0.26640  0.26640  0.24120  1.0000 -0.110417115
C   C133      1.0  0.97680  0.80680  0.07470  1.0000 0.2907930925
C   C134      1.0  0.02320  0.80680  0.42530  1.0000 0.2907930925
C   C135      1.0  0.02320  0.19320  0.92530  1.0000 0.2907930925
C   C136      1.0  0.97680  0.19320  0.57470  1.0000 0.2907930925
C   C137      1.0  0.23160  0.88120  0.09590  1.0000 -0.3003616281
C   C138      1.0  0.76840  0.88120  0.40410  1.0000 -0.3003616281
C   C139      1.0  0.76840  0.11880  0.90410  1.0000 -0.3003616281
C   C140      1.0  0.23160  0.11880  0.59590  1.0000 -0.3003616281
C   C141      1.0  0.15700  0.75260  0.12760  1.0000 -0.3292920128
C   C142      1.0  0.84300  0.75260  0.37240  1.0000 -0.3292920128
C   C143      1.0  0.84300  0.24740  0.87240  1.0000 -0.3292920128
C   C144      1.0  0.15700  0.24740  0.62760  1.0000 -0.3292920128
N   N1        1.0  0.95460  0.52490  0.04730  1.0000 -0.3003616281
N   N2        1.0  0.04540  0.52490  0.45270  1.0000 -0.3003616281
N   N3        1.0  0.04540  0.47510  0.95270  1.0000 -0.3003616281
N   N4        1.0  0.95460  0.47510  0.54730  1.0000 -0.3003616281
N   N5        1.0  0.06750  0.85070  0.84587  1.0000 -0.3122189105
N   N6        1.0  0.93250  0.85070  0.65413  1.0000 -0.3122189105
N   N7        1.0  0.93250  0.14930  0.15413  1.0000 -0.3122189105
N   N8        1.0  0.06750  0.14930  0.34587  1.0000 -0.3122189105
N   N9        1.0  0.88650  0.63780  0.00888  1.0000 -0.3709071115
N   N10       1.0  0.11350  0.63780  0.49112  1.0000 -0.3709071115
N   N11       1.0  0.11350  0.36220  0.99112  1.0000 -0.3709071115
N   N12       1.0  0.88650  0.36220  0.50888  1.0000 -0.3709071115
N   N13       1.0  0.07500  0.70260  0.83827  1.0000 -0.4211122752
N   N14       1.0  0.92500  0.70260  0.66173  1.0000 -0.4211122752
N   N15       1.0  0.92500  0.29740  0.16173  1.0000 -0.4211122752
N   N16       1.0  0.07500  0.29740  0.33827  1.0000 -0.4211122752
N   N17       1.0  0.38530  0.91290  0.68257  1.0000 -0.3153598518
N   N18       1.0  0.61470  0.91290  0.81743  1.0000 -0.3153598518
N   N19       1.0  0.61470  0.08710  0.31743  1.0000 -0.3153598518
N   N20       1.0  0.38530  0.08710  0.18257  1.0000 -0.3153598518
N   N21       1.0  0.40080  0.76500  0.67460  1.0000 -0.4090705946
N   N22       1.0  0.59920  0.76500  0.82540  1.0000 -0.4090705946
N   N23       1.0  0.59920  0.23500  0.32540  1.0000 -0.4090705946
N   N24       1.0  0.40080  0.23500  0.17460  1.0000 -0.4090705946
N   N25       1.0  0.11060  0.81610  0.09810  1.0000 0.0486431509
N   N26       1.0  0.88940  0.81610  0.40190  1.0000 0.0486431509
N   N27       1.0  0.88940  0.18390  0.90190  1.0000 0.0486431509
N   N28       1.0  0.11060  0.18390  0.59810  1.0000 0.0486431509
O   O1        1.0  0.85020  0.91040  0.96633  1.0000 -0.6313763917
O   O2        1.0  0.14980  0.91040  0.53367  1.0000 -0.6313763917
O   O3        1.0  0.14980  0.08960  0.03367  1.0000 -0.6313763917
O   O4        1.0  0.85020  0.08960  0.46633  1.0000 -0.6313763917
O   O5        1.0  0.61040  0.75970  0.04541  1.0000 -0.6313763917
O   O6        1.0  0.38960  0.75970  0.45459  1.0000 -0.6313763917
O   O7        1.0  0.38960  0.24030  0.95459  1.0000 -0.6313763917
O   O8        1.0  0.61040  0.24030  0.54541  1.0000 -0.6313763917
O   O9        1.0  0.73450  0.78200  0.97326  1.0000 -0.6096406415
O   O10       1.0  0.26550  0.78200  0.52674  1.0000 -0.6096406415
O   O11       1.0  0.26550  0.21800  0.02674  1.0000 -0.6096406415
O   O12       1.0  0.73450  0.21800  0.47326  1.0000 -0.6096406415
O   O13       1.0  0.50350  0.97350  0.53480  1.0000 -0.7273961142
O   O14       1.0  0.49650  0.97350  0.96520  1.0000 -0.7273961142
O   O15       1.0  0.49650  0.02650  0.46520  1.0000 -0.7273961142
O   O16       1.0  0.50350  0.02650  0.03480  1.0000 -0.7273961142
O   O17       1.0  0.41150  0.82990  0.00783  1.0000 -0.6034339503
O   O18       1.0  0.58850  0.82990  0.49217  1.0000 -0.6034339503
O   O19       1.0  0.58850  0.17010  0.99217  1.0000 -0.6034339503
O   O20       1.0  0.41150  0.17010  0.50783  1.0000 -0.6034339503
O   O21       1.0  0.81970  0.04460  0.02060  1.0000 -0.74317175
O   O22       1.0  0.18030  0.04460  0.47940  1.0000 -0.74317175
O   O23       1.0  0.18030  0.95540  0.97940  1.0000 -0.74317175
O   O24       1.0  0.81970  0.95540  0.52060  1.0000 -0.74317175
O   O25       1.0  0.65400  0.05600  0.57744  1.0000 -0.6205102787
O   O26       1.0  0.34600  0.05600  0.92256  1.0000 -0.6205102787
O   O27       1.0  0.34600  0.94400  0.42256  1.0000 -0.6205102787
O   O28       1.0  0.65400  0.94400  0.07744  1.0000 -0.6205102787
O   O29       1.0  0.93960  0.86100  0.04840  1.0000 -0.5851347134
O   O30       1.0  0.06040  0.86100  0.45160  1.0000 -0.5851347134
O   O31       1.0  0.06040  0.13900  0.95160  1.0000 -0.5851347134
O   O32       1.0  0.93960  0.13900  0.54840  1.0000 -0.5851347134
