# DDEC6 charges by PACMAN v1.1 (https://github.com/mtap-research/PACMAN-charge/)
data_2016[Zn][bbf]3[FSR]1
_chemical_formula_sum              "Zn4 H84 C80 N16 O20"
_cell_length_a       8.045
_cell_length_b       17.549
_cell_length_c       18.014
_cell_angle_alpha    90
_cell_angle_beta     108.093
_cell_angle_gamma    90

_symmetry_space_group_name_H-M    "P 1"
_symmetry_Int_Tables_number       1

loop_
  _symmetry_equiv_pos_as_xyz
  'x, y, z'

loop_
  _atom_site_type_symbol
  _atom_site_label
  _atom_site_symmetry_multiplicity
  _atom_site_fract_x
  _atom_site_fract_y
  _atom_site_fract_z
  _atom_site_occupancy
  _atom_site_charge
Zn  Zn1       1.0  0.88101  0.80869  0.26659  1.0000 0.7643822488
Zn  Zn2       1.0  0.11899  0.30869  0.23341  1.0000 0.7643822488
Zn  Zn3       1.0  0.11899  0.19131  0.73341  1.0000 0.7643822488
Zn  Zn4       1.0  0.88101  0.69131  0.76659  1.0000 0.7643822488
H   H1        1.0  0.80330  0.78150  0.48770  1.0000 0.1220854897
H   H2        1.0  0.19670  0.28150  0.01230  1.0000 0.1220854897
H   H3        1.0  0.19670  0.21850  0.51230  1.0000 0.1220854897
H   H4        1.0  0.80330  0.71850  0.98770  1.0000 0.1220854897
H   H5        1.0  0.47960  0.84060  0.60830  1.0000 0.1472942289
H   H6        1.0  0.52040  0.34060  0.89170  1.0000 0.1472942289
H   H7        1.0  0.52040  0.15940  0.39170  1.0000 0.1472942289
H   H8        1.0  0.47960  0.65940  0.10830  1.0000 0.1472942289
H   H9        1.0  0.38860  0.91450  0.38850  1.0000 0.1220854897
H   H10       1.0  0.61140  0.41450  0.11150  1.0000 0.1220854897
H   H11       1.0  0.61140  0.08550  0.61150  1.0000 0.1220854897
H   H12       1.0  0.38860  0.58550  0.88850  1.0000 0.1220854897
H   H13       1.0  0.37940  0.66080  0.44750  1.0000 0.130351564
H   H14       1.0  0.62060  0.16080  0.05250  1.0000 0.130351564
H   H15       1.0  0.62060  0.33920  0.55250  1.0000 0.130351564
H   H16       1.0  0.37940  0.83920  0.94750  1.0000 0.130351564
H   H17       1.0  0.09220  0.72310  0.42650  1.0000 0.130351564
H   H18       1.0  0.90780  0.22310  0.07350  1.0000 0.130351564
H   H19       1.0  0.90780  0.27690  0.57350  1.0000 0.130351564
H   H20       1.0  0.09220  0.77690  0.92650  1.0000 0.130351564
H   H21       1.0  0.22860  0.75090  0.23770  1.0000 0.1220854897
H   H22       1.0  0.77140  0.25090  0.26230  1.0000 0.1220854897
H   H23       1.0  0.77140  0.24910  0.76230  1.0000 0.1220854897
H   H24       1.0  0.22860  0.74910  0.73770  1.0000 0.1220854897
H   H25       1.0  0.61180  0.66760  0.36900  1.0000 0.109421633
H   H26       1.0  0.38820  0.16760  0.13100  1.0000 0.109421633
H   H27       1.0  0.38820  0.33240  0.63100  1.0000 0.109421633
H   H28       1.0  0.61180  0.83240  0.86900  1.0000 0.109421633
H   H29       1.0  0.54720  0.70560  0.28600  1.0000 0.1220854897
H   H30       1.0  0.45280  0.20560  0.21400  1.0000 0.1220854897
H   H31       1.0  0.45280  0.29440  0.71400  1.0000 0.1220854897
H   H32       1.0  0.54720  0.79440  0.78600  1.0000 0.1220854897
H   H33       1.0  0.45960  0.55830  0.32080  1.0000 0.1024648603
H   H34       1.0  0.54040  0.05830  0.17920  1.0000 0.1024648603
H   H35       1.0  0.54040  0.44170  0.67920  1.0000 0.1024648603
H   H36       1.0  0.45960  0.94170  0.82080  1.0000 0.1024648603
H   H37       1.0  0.37980  0.59620  0.23870  1.0000 0.109421633
H   H38       1.0  0.62020  0.09620  0.26130  1.0000 0.109421633
H   H39       1.0  0.62020  0.40380  0.76130  1.0000 0.109421633
H   H40       1.0  0.37980  0.90380  0.73870  1.0000 0.109421633
H   H41       1.0  0.66740  0.60050  0.22610  1.0000 0.109421633
H   H42       1.0  0.33260  0.10050  0.27390  1.0000 0.109421633
H   H43       1.0  0.33260  0.39950  0.77390  1.0000 0.109421633
H   H44       1.0  0.66740  0.89950  0.72610  1.0000 0.109421633
H   H45       1.0  0.59730  0.51730  0.22770  1.0000 0.1220854897
H   H46       1.0  0.40270  0.01730  0.27230  1.0000 0.1220854897
H   H47       1.0  0.40270  0.48270  0.77230  1.0000 0.1220854897
H   H48       1.0  0.59730  0.98270  0.72770  1.0000 0.1220854897
H   H49       1.0  0.21280  0.48540  0.22360  1.0000 0.130351564
H   H50       1.0  0.78720  0.98540  0.27640  1.0000 0.130351564
H   H51       1.0  0.78720  0.51460  0.77640  1.0000 0.130351564
H   H52       1.0  0.21280  0.01460  0.72360  1.0000 0.130351564
H   H53       1.0  0.86490  0.39470  0.30630  1.0000 0.1220854897
H   H54       1.0  0.13510  0.89470  0.19370  1.0000 0.1220854897
H   H55       1.0  0.13510  0.60530  0.69370  1.0000 0.1220854897
H   H56       1.0  0.86490  0.10530  0.80630  1.0000 0.1220854897
H   H57       1.0  0.84000  0.59120  0.35310  1.0000 0.109421633
H   H58       1.0  0.16000  0.09120  0.14690  1.0000 0.109421633
H   H59       1.0  0.16000  0.40880  0.64690  1.0000 0.109421633
H   H60       1.0  0.84000  0.90880  0.85310  1.0000 0.109421633
H   H61       1.0  0.75650  0.51230  0.36270  1.0000 0.109421633
H   H62       1.0  0.24350  0.01230  0.13730  1.0000 0.109421633
H   H63       1.0  0.24350  0.48770  0.63730  1.0000 0.109421633
H   H64       1.0  0.75650  0.98770  0.86270  1.0000 0.109421633
H   H65       1.0  0.05650  0.58900  0.26170  1.0000 0.1220854897
H   H66       1.0  0.94350  0.08900  0.23830  1.0000 0.1220854897
H   H67       1.0  0.94350  0.41100  0.73830  1.0000 0.1220854897
H   H68       1.0  0.05650  0.91100  0.76170  1.0000 0.1220854897
H   H69       1.0  0.21400  0.01110  0.44350  1.0000 0.0873268424
H   H70       1.0  0.78600  0.51110  0.05650  1.0000 0.0873268424
H   H71       1.0  0.78600  0.98890  0.55650  1.0000 0.0873268424
H   H72       1.0  0.21400  0.48890  0.94350  1.0000 0.0873268424
H   H73       1.0  0.13650  0.93600  0.39760  1.0000 0.075675264
H   H74       1.0  0.86350  0.43600  0.10240  1.0000 0.075675264
H   H75       1.0  0.86350  0.06400  0.60240  1.0000 0.075675264
H   H76       1.0  0.13650  0.56400  0.89760  1.0000 0.075675264
H   H77       1.0  0.93880  0.92680  0.47800  1.0000 0.109421633
H   H78       1.0  0.06120  0.42680  0.02200  1.0000 0.109421633
H   H79       1.0  0.06120  0.07320  0.52200  1.0000 0.109421633
H   H80       1.0  0.93880  0.57320  0.97800  1.0000 0.109421633
H   H81       1.0  0.89650  0.99800  0.42230  1.0000 0.1024648603
H   H82       1.0  0.10350  0.49800  0.07770  1.0000 0.1024648603
H   H83       1.0  0.10350  0.00200  0.57770  1.0000 0.1024648603
H   H84       1.0  0.89650  0.50200  0.92230  1.0000 0.1024648603
C   C1        1.0  0.76900  0.76040  0.62830  1.0000 0.5401103255
C   C2        1.0  0.23100  0.26040  0.87170  1.0000 0.5401103255
C   C3        1.0  0.23100  0.23960  0.37170  1.0000 0.5401103255
C   C4        1.0  0.76900  0.73960  0.12830  1.0000 0.5401103255
C   C5        1.0  0.65890  0.80460  0.55890  1.0000 -0.002448519
C   C6        1.0  0.34110  0.30460  0.94110  1.0000 -0.002448519
C   C7        1.0  0.34110  0.19540  0.44110  1.0000 -0.002448519
C   C8        1.0  0.65890  0.69540  0.05890  1.0000 -0.002448519
C   C9        1.0  0.70450  0.80730  0.49070  1.0000 -0.1547696981
C   C10       1.0  0.29550  0.30730  0.00930  1.0000 -0.1547696981
C   C11       1.0  0.29550  0.19270  0.50930  1.0000 -0.1547696981
C   C12       1.0  0.70450  0.69270  0.99070  1.0000 -0.1547696981
C   C13       1.0  0.60300  0.84810  0.42710  1.0000 -0.0148495556
C   C14       1.0  0.39700  0.34810  0.07290  1.0000 -0.0148495556
C   C15       1.0  0.39700  0.15190  0.57290  1.0000 -0.0148495556
C   C16       1.0  0.60300  0.65190  0.92710  1.0000 -0.0148495556
C   C17       1.0  0.41200  0.88320  0.49950  1.0000 0.2490583938
C   C18       1.0  0.58800  0.38320  0.00050  1.0000 0.2490583938
C   C19       1.0  0.58800  0.11680  0.50050  1.0000 0.2490583938
C   C20       1.0  0.41200  0.61680  0.99950  1.0000 0.2490583938
C   C21       1.0  0.51130  0.84260  0.56290  1.0000 -0.2461130488
C   C22       1.0  0.48870  0.34260  0.93710  1.0000 -0.2461130488
C   C23       1.0  0.48870  0.15740  0.43710  1.0000 -0.2461130488
C   C24       1.0  0.51130  0.65740  0.06290  1.0000 -0.2461130488
C   C25       1.0  0.45650  0.88660  0.43110  1.0000 -0.2431276608
C   C26       1.0  0.54350  0.38660  0.06890  1.0000 -0.2431276608
C   C27       1.0  0.54350  0.11340  0.56890  1.0000 -0.2431276608
C   C28       1.0  0.45650  0.61340  0.93110  1.0000 -0.2431276608
C   C29       1.0  0.65070  0.85060  0.35220  1.0000 0.5401103255
C   C30       1.0  0.34930  0.35060  0.14780  1.0000 0.5401103255
C   C31       1.0  0.34930  0.14940  0.64780  1.0000 0.5401103255
C   C32       1.0  0.65070  0.64940  0.85220  1.0000 0.5401103255
C   C33       1.0  0.31420  0.68670  0.40300  1.0000 -0.1048209462
C   C34       1.0  0.68580  0.18670  0.09700  1.0000 -0.1048209462
C   C35       1.0  0.68580  0.31330  0.59700  1.0000 -0.1048209462
C   C36       1.0  0.31420  0.81330  0.90300  1.0000 -0.1048209462
C   C37       1.0  0.15440  0.72090  0.39080  1.0000 -0.0406189467
C   C38       1.0  0.84560  0.22090  0.10920  1.0000 -0.0406189467
C   C39       1.0  0.84560  0.27910  0.60920  1.0000 -0.0406189467
C   C40       1.0  0.15440  0.77910  0.89080  1.0000 -0.0406189467
C   C41       1.0  0.22950  0.73640  0.28750  1.0000 0.0873268424
C   C42       1.0  0.77050  0.23640  0.21250  1.0000 0.0873268424
C   C43       1.0  0.77050  0.26360  0.71250  1.0000 0.0873268424
C   C44       1.0  0.22950  0.76360  0.78750  1.0000 0.0873268424
C   C45       1.0  0.51530  0.67030  0.32080  1.0000 -0.1267582159
C   C46       1.0  0.48470  0.17030  0.17920  1.0000 -0.1267582159
C   C47       1.0  0.48470  0.32970  0.67920  1.0000 -0.1267582159
C   C48       1.0  0.51530  0.82970  0.82080  1.0000 -0.1267582159
C   C49       1.0  0.48340  0.59380  0.28410  1.0000 -0.1879235449
C   C50       1.0  0.51660  0.09380  0.21590  1.0000 -0.1879235449
C   C51       1.0  0.51660  0.40620  0.71590  1.0000 -0.1879235449
C   C52       1.0  0.48340  0.90620  0.78410  1.0000 -0.1879235449
C   C53       1.0  0.63520  0.56290  0.25870  1.0000 -0.1879235449
C   C54       1.0  0.36480  0.06290  0.24130  1.0000 -0.1879235449
C   C55       1.0  0.36480  0.43710  0.74130  1.0000 -0.1879235449
C   C56       1.0  0.63520  0.93710  0.75870  1.0000 -0.1879235449
C   C57       1.0  0.12330  0.47990  0.24570  1.0000 -0.0524048106
C   C58       1.0  0.87670  0.97990  0.25430  1.0000 -0.0524048106
C   C59       1.0  0.87670  0.52010  0.75430  1.0000 -0.0524048106
C   C60       1.0  0.12330  0.02010  0.74570  1.0000 -0.0524048106
C   C61       1.0  0.93480  0.43000  0.29150  1.0000 0.109421633
C   C62       1.0  0.06520  0.93000  0.20850  1.0000 0.109421633
C   C63       1.0  0.06520  0.57000  0.70850  1.0000 0.109421633
C   C64       1.0  0.93480  0.07000  0.79150  1.0000 0.109421633
C   C65       1.0  0.79050  0.54470  0.32620  1.0000 -0.1173686307
C   C66       1.0  0.20950  0.04470  0.17380  1.0000 -0.1173686307
C   C67       1.0  0.20950  0.45530  0.67380  1.0000 -0.1173686307
C   C68       1.0  0.79050  0.95530  0.82620  1.0000 -0.1173686307
C   C69       1.0  0.03880  0.53720  0.26710  1.0000 -0.1173686307
C   C70       1.0  0.96120  0.03720  0.23290  1.0000 -0.114879528
C   C71       1.0  0.96120  0.46280  0.73290  1.0000 -0.1173686307
C   C72       1.0  0.03880  0.96280  0.76710  1.0000 -0.1173686307
C   C73       1.0  0.15880  0.96260  0.44700  1.0000 -0.0156498011
C   C74       1.0  0.84120  0.46260  0.05300  1.0000 -0.0156498011
C   C75       1.0  0.84120  0.03740  0.55300  1.0000 -0.0148495556
C   C76       1.0  0.15880  0.53740  0.94700  1.0000 -0.0148495556
C   C77       1.0  0.98350  0.97530  0.46670  1.0000 -0.1845602166
C   C78       1.0  0.01650  0.47530  0.03330  1.0000 -0.1845602166
C   C79       1.0  0.01650  0.02470  0.53330  1.0000 -0.1845602166
C   C80       1.0  0.98350  0.52470  0.96670  1.0000 -0.1879235449
N   N1        1.0  0.10250  0.75100  0.31740  1.0000 -0.2988269571
N   N2        1.0  0.89750  0.25100  0.18260  1.0000 -0.2988269571
N   N3        1.0  0.89750  0.24900  0.68260  1.0000 -0.2988269571
N   N4        1.0  0.10250  0.74900  0.81740  1.0000 -0.2988269571
N   N5        1.0  0.35790  0.69830  0.33740  1.0000 0.0424211342
N   N6        1.0  0.64210  0.19830  0.16260  1.0000 0.0424211342
N   N7        1.0  0.64210  0.30170  0.66260  1.0000 0.0424211342
N   N8        1.0  0.35790  0.80170  0.83740  1.0000 0.0424211342
N   N9        1.0  0.05780  0.41200  0.26150  1.0000 -0.2840696517
N   N10       1.0  0.94220  0.91200  0.23850  1.0000 -0.2840696517
N   N11       1.0  0.94220  0.58800  0.73850  1.0000 -0.2840696517
N   N12       1.0  0.05780  0.08800  0.76150  1.0000 -0.2840696517
N   N13       1.0  0.92200  0.50510  0.29820  1.0000 0.0461566877
N   N14       1.0  0.07800  0.00510  0.20180  1.0000 0.0461566877
N   N15       1.0  0.07800  0.49490  0.70180  1.0000 0.0461566877
N   N16       1.0  0.92200  0.99490  0.79820  1.0000 0.0461566877
O   O1        1.0  0.79330  0.81700  0.35550  1.0000 -0.5595512036
O   O2        1.0  0.20670  0.31700  0.14450  1.0000 -0.5595512036
O   O3        1.0  0.20670  0.18300  0.64450  1.0000 -0.5595512036
O   O4        1.0  0.79330  0.68300  0.85550  1.0000 -0.5595512036
O   O5        1.0  0.55440  0.88210  0.29410  1.0000 -0.5502297226
O   O6        1.0  0.44560  0.38210  0.20590  1.0000 -0.5502297226
O   O7        1.0  0.44560  0.11790  0.70590  1.0000 -0.5502297226
O   O8        1.0  0.55440  0.61790  0.79410  1.0000 -0.5502297226
O   O9        1.0  0.26860  0.91770  0.50970  1.0000 -0.1845602166
O   O10       1.0  0.73140  0.41770  0.99030  1.0000 -0.1845602166
O   O11       1.0  0.73140  0.08230  0.49030  1.0000 -0.1845602166
O   O12       1.0  0.26860  0.58230  0.00970  1.0000 -0.1845602166
O   O13       1.0  0.90860  0.73230  0.62750  1.0000 -0.5724048856
O   O14       1.0  0.09140  0.23230  0.87250  1.0000 -0.5724048856
O   O15       1.0  0.09140  0.26770  0.37250  1.0000 -0.5724048856
O   O16       1.0  0.90860  0.76770  0.12750  1.0000 -0.5724048856
O   O17       1.0  0.71330  0.75250  0.68620  1.0000 -0.5502297226
O   O18       1.0  0.28670  0.25250  0.81380  1.0000 -0.5502297226
O   O19       1.0  0.28670  0.24750  0.31380  1.0000 -0.5502297226
O   O20       1.0  0.71330  0.74750  0.18620  1.0000 -0.5502297226
