# DDEC6 charges by PACMAN v1.1 (https://github.com/mtap-research/PACMAN-charge/)
data_2017[Pr][mog]3[FSR]1
_chemical_formula_sum              "Pr2 H6 C18 N6 O16"
_cell_length_a       6.082
_cell_length_b       10.5091
_cell_length_c       13.628
_cell_angle_alpha    72.398
_cell_angle_beta     88.98
_cell_angle_gamma    89.043

_symmetry_space_group_name_H-M    "P 1"
_symmetry_Int_Tables_number       1

loop_
  _symmetry_equiv_pos_as_xyz
  'x, y, z'

loop_
  _atom_site_type_symbol
  _atom_site_label
  _atom_site_symmetry_multiplicity
  _atom_site_fract_x
  _atom_site_fract_y
  _atom_site_fract_z
  _atom_site_occupancy
  _atom_site_charge
Pr  Pr1       1.0  0.25128  0.66056  0.70878  1.0000 1.8367690141
Pr  Pr2       1.0  0.74872  0.33944  0.29122  1.0000 1.8367690141
H   H1        1.0  0.81050  0.91370  0.64970  1.0000 0.1601493279
H   H2        1.0  0.70370  0.46840  0.86850  1.0000 0.1482295017
H   H3        1.0  0.34940  0.57230  0.47320  1.0000 0.1482295017
H   H4        1.0  0.18950  0.08630  0.35030  1.0000 0.1601493279
H   H5        1.0  0.29630  0.53160  0.13150  1.0000 0.1482295017
H   H6        1.0  0.65060  0.42770  0.52680  1.0000 0.1482295017
C   C1        1.0  0.18670  0.94000  0.48610  1.0000 0.0700038245
C   C2        1.0  0.89100  0.94740  0.58900  1.0000 0.0864894684
C   C3        1.0  0.31830  0.57320  0.97730  1.0000 0.0700038245
C   C4        1.0  0.61760  0.48270  0.92130  1.0000 0.0700038245
C   C5        1.0  0.88280  0.52890  0.57460  1.0000 0.0816148496
C   C6        1.0  0.20490  0.54350  0.48520  1.0000 0.0816148496
C   C7        1.0  0.40000  0.86820  0.47300  1.0000 0.5410970743
C   C8        1.0  0.10960  0.65780  0.95060  1.0000 0.5597514506
C   C9        1.0  0.75310  0.56770  0.65620  1.0000 0.5597514506
C   C10       1.0  0.81330  0.06000  0.51390  1.0000 0.0700038245
C   C11       1.0  0.10900  0.05260  0.41100  1.0000 0.0864894684
C   C12       1.0  0.68170  0.42680  0.02270  1.0000 0.0700038245
C   C13       1.0  0.38240  0.51730  0.07870  1.0000 0.0700038245
C   C14       1.0  0.11720  0.47110  0.42540  1.0000 0.0816148496
C   C15       1.0  0.79510  0.45650  0.51480  1.0000 0.0816148496
C   C16       1.0  0.60000  0.13180  0.52700  1.0000 0.5410970743
C   C17       1.0  0.89040  0.34220  0.04940  1.0000 0.5597514506
C   C18       1.0  0.24690  0.43230  0.34380  1.0000 0.5597514506
N   N1        1.0  0.07820  0.88700  0.57550  1.0000 -0.2529091244
N   N2        1.0  0.43400  0.55690  0.89840  1.0000 -0.2447499488
N   N3        1.0  0.08960  0.57220  0.55820  1.0000 -0.2585894172
N   N4        1.0  0.92180  0.11300  0.42450  1.0000 -0.2529091244
N   N5        1.0  0.56600  0.44310  0.10160  1.0000 -0.2447499488
N   N6        1.0  0.91040  0.42780  0.44180  1.0000 -0.2585894172
O   O1        1.0  0.45340  0.77120  0.54720  1.0000 -0.5748806898
O   O2        1.0  0.06330  0.69820  0.85680  1.0000 -0.539157242
O   O3        1.0  0.84580  0.64140  0.69920  1.0000 -0.539157242
O   O4        1.0  0.15380  0.41810  0.78180  1.0000 -0.2865540688
O   O5        1.0  0.43790  0.84650  0.74710  1.0000 -0.3508431022
O   O6        1.0  0.56010  0.52390  0.67540  1.0000 -0.5603535478
O   O7        1.0  0.50280  0.91130  0.38980  1.0000 -0.4166410868
O   O8        1.0  0.99810  0.67920  0.02080  1.0000 -0.3978512292
O   O9        1.0  0.54660  0.22880  0.45280  1.0000 -0.5755686467
O   O10       1.0  0.93670  0.30180  0.14320  1.0000 -0.539157242
O   O11       1.0  0.15420  0.35860  0.30080  1.0000 -0.539157242
O   O12       1.0  0.84620  0.58190  0.21820  1.0000 -0.2820316856
O   O13       1.0  0.56210  0.15350  0.25290  1.0000 -0.3417160516
O   O14       1.0  0.43990  0.47610  0.32460  1.0000 -0.5603535478
O   O15       1.0  0.49720  0.08870  0.61020  1.0000 -0.4166410868
O   O16       1.0  0.00190  0.32080  0.97920  1.0000 -0.3948552315
