# DDEC6 charges by PACMAN v1.1 (https://github.com/mtap-research/PACMAN-charge/)
data_2017[NiCu][eta]3[FSR]1
_chemical_formula_sum              "Cu12 Ni6 H216 C180 N36 O60"
_cell_length_a       19.6993
_cell_length_b       19.6993
_cell_length_c       29.2983
_cell_angle_alpha    90
_cell_angle_beta     90
_cell_angle_gamma    120

_symmetry_space_group_name_H-M    "P 1"
_symmetry_Int_Tables_number       1

loop_
  _symmetry_equiv_pos_as_xyz
  'x, y, z'

loop_
  _atom_site_type_symbol
  _atom_site_label
  _atom_site_symmetry_multiplicity
  _atom_site_fract_x
  _atom_site_fract_y
  _atom_site_fract_z
  _atom_site_occupancy
  _atom_site_charge
Cu  Cu1       1.0  0.36310  0.67135  0.66933  1.0000 0.7780484141
Cu  Cu2       1.0  0.32865  0.69175  0.33600  1.0000 0.7780484141
Cu  Cu3       1.0  0.30825  0.63690  0.00266  1.0000 0.7780484141
Cu  Cu4       1.0  0.67135  0.36310  0.33067  1.0000 0.7780484141
Cu  Cu5       1.0  0.69175  0.32865  0.66400  1.0000 0.7780484141
Cu  Cu6       1.0  0.63690  0.30825  0.99734  1.0000 0.7780484141
Cu  Cu7       1.0  0.24382  0.56530  0.50181  1.0000 0.7780484141
Cu  Cu8       1.0  0.43470  0.67852  0.16848  1.0000 0.7780484141
Cu  Cu9       1.0  0.32148  0.75618  0.83514  1.0000 0.7780484141
Cu  Cu10      1.0  0.56530  0.24382  0.49819  1.0000 0.7780484141
Cu  Cu11      1.0  0.67852  0.43470  0.83152  1.0000 0.7780484141
Cu  Cu12      1.0  0.75618  0.32148  0.16486  1.0000 0.7780484141
Ni  Ni1       1.0  0.48805  0.51648  0.76037  1.0000 0.5910132708
Ni  Ni2       1.0  0.48352  0.97157  0.42704  1.0000 0.5910132708
Ni  Ni3       1.0  0.02843  0.51195  0.09370  1.0000 0.5910132708
Ni  Ni4       1.0  0.51648  0.48805  0.23963  1.0000 0.5910132708
Ni  Ni5       1.0  0.97157  0.48352  0.57296  1.0000 0.5910132708
Ni  Ni6       1.0  0.51195  0.02843  0.90630  1.0000 0.5910132708
H   H1        1.0  0.40690  0.53980  0.60990  1.0000 0.1208116101
H   H2        1.0  0.46020  0.86710  0.27657  1.0000 0.1208116101
H   H3        1.0  0.13290  0.59310  0.94323  1.0000 0.1208116101
H   H4        1.0  0.53980  0.40690  0.39010  1.0000 0.1208116101
H   H5        1.0  0.86710  0.46020  0.72343  1.0000 0.1208116101
H   H6        1.0  0.59310  0.13290  0.05677  1.0000 0.1208116101
H   H7        1.0  0.34380  0.40390  0.59850  1.0000 0.1290656146
H   H8        1.0  0.59610  0.93990  0.26517  1.0000 0.1290656146
H   H9        1.0  0.06010  0.65620  0.93183  1.0000 0.1290656146
H   H10       1.0  0.40390  0.34380  0.40150  1.0000 0.1290656146
H   H11       1.0  0.93990  0.59610  0.73483  1.0000 0.1290656146
H   H12       1.0  0.65620  0.06010  0.06817  1.0000 0.1290656146
H   H13       1.0  0.25870  0.27870  0.62000  1.0000 0.1097140982
H   H14       1.0  0.72130  0.98000  0.28667  1.0000 0.1097140982
H   H15       1.0  0.02000  0.74130  0.95333  1.0000 0.1097140982
H   H16       1.0  0.27870  0.25870  0.38000  1.0000 0.1097140982
H   H17       1.0  0.98000  0.72130  0.71333  1.0000 0.1097140982
H   H18       1.0  0.74130  0.02000  0.04667  1.0000 0.1097140982
H   H19       1.0  0.16010  0.24410  0.67350  1.0000 0.1097140982
H   H20       1.0  0.75590  0.91600  0.34017  1.0000 0.1097140982
H   H21       1.0  0.08400  0.83990  0.00683  1.0000 0.1097140982
H   H22       1.0  0.24410  0.16010  0.32650  1.0000 0.1097140982
H   H23       1.0  0.91600  0.75590  0.65983  1.0000 0.1097140982
H   H24       1.0  0.83990  0.08400  0.99317  1.0000 0.1097140982
H   H25       1.0  0.15790  0.34460  0.71120  1.0000 0.1097140982
H   H26       1.0  0.65540  0.81330  0.37787  1.0000 0.1097140982
H   H27       1.0  0.18670  0.84210  0.04453  1.0000 0.1097140982
H   H28       1.0  0.34460  0.15790  0.28880  1.0000 0.1097140982
H   H29       1.0  0.81330  0.65540  0.62213  1.0000 0.1097140982
H   H30       1.0  0.84210  0.18670  0.95547  1.0000 0.1097140982
H   H31       1.0  0.25110  0.47680  0.69470  1.0000 0.1208116101
H   H32       1.0  0.52320  0.77430  0.36137  1.0000 0.1208116101
H   H33       1.0  0.22570  0.74890  0.02803  1.0000 0.1208116101
H   H34       1.0  0.47680  0.25110  0.30530  1.0000 0.1208116101
H   H35       1.0  0.77430  0.52320  0.63863  1.0000 0.1208116101
H   H36       1.0  0.74890  0.22570  0.97197  1.0000 0.1208116101
H   H37       1.0  0.09320  0.52130  0.42380  1.0000 0.1208116101
H   H38       1.0  0.47870  0.57190  0.09047  1.0000 0.1208116101
H   H39       1.0  0.42810  0.90680  0.75713  1.0000 0.1208116101
H   H40       1.0  0.52130  0.09320  0.57620  1.0000 0.1208116101
H   H41       1.0  0.57190  0.47870  0.90953  1.0000 0.1208116101
H   H42       1.0  0.90680  0.42810  0.24287  1.0000 0.1208116101
H   H43       1.0  0.18030  0.70450  0.48490  1.0000 0.1208116101
H   H44       1.0  0.29550  0.47580  0.15157  1.0000 0.1208116101
H   H45       1.0  0.52420  0.81970  0.81823  1.0000 0.1208116101
H   H46       1.0  0.70450  0.18030  0.51510  1.0000 0.1208116101
H   H47       1.0  0.47580  0.29550  0.84843  1.0000 0.1208116101
H   H48       1.0  0.81970  0.52420  0.18177  1.0000 0.1208116101
H   H49       1.0  0.14000  0.79690  0.48050  1.0000 0.1002337803
H   H50       1.0  0.20310  0.34310  0.14717  1.0000 0.1002337803
H   H51       1.0  0.65690  0.86000  0.81383  1.0000 0.1002337803
H   H52       1.0  0.79690  0.14000  0.51950  1.0000 0.1002337803
H   H53       1.0  0.34310  0.20310  0.85283  1.0000 0.1002337803
H   H54       1.0  0.86000  0.65690  0.18617  1.0000 0.1002337803
H   H55       1.0  0.04560  0.78560  0.42570  1.0000 0.1097140982
H   H56       1.0  0.21440  0.26000  0.09237  1.0000 0.1097140982
H   H57       1.0  0.74000  0.95440  0.75903  1.0000 0.1097140982
H   H58       1.0  0.78560  0.04560  0.57430  1.0000 0.1097140982
H   H59       1.0  0.26000  0.21440  0.90763  1.0000 0.1097140982
H   H60       1.0  0.95440  0.74000  0.24097  1.0000 0.1097140982
H   H61       1.0  0.99110  0.66990  0.37760  1.0000 0.1097140982
H   H62       1.0  0.33010  0.32120  0.04427  1.0000 0.1097140982
H   H63       1.0  0.67880  0.00890  0.71093  1.0000 0.1097140982
H   H64       1.0  0.66990  0.99110  0.62240  1.0000 0.1097140982
H   H65       1.0  0.32120  0.33010  0.95573  1.0000 0.1097140982
H   H66       1.0  0.00890  0.67880  0.28907  1.0000 0.1097140982
H   H67       1.0  0.01920  0.57190  0.39100  1.0000 0.1208116101
H   H68       1.0  0.42810  0.44730  0.05767  1.0000 0.1208116101
H   H69       1.0  0.55270  0.98080  0.72433  1.0000 0.1208116101
H   H70       1.0  0.57190  0.01920  0.60900  1.0000 0.1208116101
H   H71       1.0  0.44730  0.42810  0.94233  1.0000 0.1208116101
H   H72       1.0  0.98080  0.55270  0.27567  1.0000 0.1208116101
H   H73       1.0  0.62860  0.58690  0.77090  1.0000 0.2402464108
H   H74       1.0  0.41310  0.04170  0.43757  1.0000 0.2402464108
H   H75       1.0  0.95830  0.37140  0.10423  1.0000 0.2402464108
H   H76       1.0  0.58690  0.62860  0.22910  1.0000 0.2402464108
H   H77       1.0  0.04170  0.41310  0.56243  1.0000 0.2402464108
H   H78       1.0  0.37140  0.95830  0.89577  1.0000 0.2402464108
H   H79       1.0  0.53810  0.42470  0.75300  1.0000 0.2305699966
H   H80       1.0  0.57530  0.11340  0.41967  1.0000 0.2305699966
H   H81       1.0  0.88660  0.46190  0.08633  1.0000 0.2305699966
H   H82       1.0  0.42470  0.53810  0.24700  1.0000 0.2305699966
H   H83       1.0  0.11340  0.57530  0.58033  1.0000 0.2305699966
H   H84       1.0  0.46190  0.88660  0.91367  1.0000 0.2305699966
H   H85       1.0  0.66410  0.54020  0.67140  1.0000 0.1208116101
H   H86       1.0  0.45980  0.12390  0.33807  1.0000 0.1208116101
H   H87       1.0  0.87610  0.33590  0.00473  1.0000 0.1208116101
H   H88       1.0  0.54020  0.66410  0.32860  1.0000 0.1208116101
H   H89       1.0  0.12390  0.45980  0.66193  1.0000 0.1208116101
H   H90       1.0  0.33590  0.87610  0.99527  1.0000 0.1208116101
H   H91       1.0  0.65710  0.52080  0.72450  1.0000 0.1290656146
H   H92       1.0  0.47920  0.13630  0.39117  1.0000 0.1290656146
H   H93       1.0  0.86370  0.34290  0.05783  1.0000 0.1290656146
H   H94       1.0  0.52080  0.65710  0.27550  1.0000 0.1290656146
H   H95       1.0  0.13630  0.47920  0.60883  1.0000 0.1290656146
H   H96       1.0  0.34290  0.86370  0.94217  1.0000 0.1290656146
H   H97       1.0  0.44470  0.61890  0.76570  1.0000 0.2402464108
H   H98       1.0  0.38110  0.82580  0.43237  1.0000 0.2402464108
H   H99       1.0  0.17420  0.55530  0.09903  1.0000 0.2402464108
H   H100      1.0  0.61890  0.44470  0.23430  1.0000 0.2402464108
H   H101      1.0  0.82580  0.38110  0.56763  1.0000 0.2402464108
H   H102      1.0  0.55530  0.17420  0.90097  1.0000 0.2402464108
H   H103      1.0  0.52480  0.46270  0.66460  1.0000 0.1097140982
H   H104      1.0  0.53730  0.06210  0.33127  1.0000 0.1097140982
H   H105      1.0  0.93790  0.47520  0.99793  1.0000 0.1097140982
H   H106      1.0  0.46270  0.52480  0.33540  1.0000 0.1097140982
H   H107      1.0  0.06210  0.53730  0.66873  1.0000 0.1097140982
H   H108      1.0  0.47520  0.93790  0.00207  1.0000 0.1097140982
H   H109      1.0  0.56280  0.41210  0.68280  1.0000 0.1097140982
H   H110      1.0  0.58790  0.15070  0.34947  1.0000 0.1097140982
H   H111      1.0  0.84930  0.43720  0.01613  1.0000 0.1097140982
H   H112      1.0  0.41210  0.56280  0.31720  1.0000 0.1097140982
H   H113      1.0  0.15070  0.58790  0.65053  1.0000 0.1097140982
H   H114      1.0  0.43720  0.84930  0.98387  1.0000 0.1097140982
H   H115      1.0  0.55100  0.64880  0.83380  1.0000 0.1097140982
H   H116      1.0  0.35120  0.90220  0.50047  1.0000 0.1097140982
H   H117      1.0  0.09780  0.44900  0.16713  1.0000 0.1097140982
H   H118      1.0  0.64880  0.55100  0.16620  1.0000 0.1097140982
H   H119      1.0  0.90220  0.35120  0.49953  1.0000 0.1097140982
H   H120      1.0  0.44900  0.09780  0.83287  1.0000 0.1097140982
H   H121      1.0  0.53630  0.70870  0.80380  1.0000 0.1002337803
H   H122      1.0  0.29130  0.82760  0.47047  1.0000 0.1002337803
H   H123      1.0  0.17240  0.46370  0.13713  1.0000 0.1002337803
H   H124      1.0  0.70870  0.53630  0.19620  1.0000 0.1002337803
H   H125      1.0  0.82760  0.29130  0.52953  1.0000 0.1002337803
H   H126      1.0  0.46370  0.17240  0.86287  1.0000 0.1002337803
H   H127      1.0  0.68690  0.65230  0.71110  1.0000 0.0921716213
H   H128      1.0  0.34770  0.03460  0.37777  1.0000 0.0921716213
H   H129      1.0  0.96540  0.31310  0.04443  1.0000 0.0921716213
H   H130      1.0  0.65230  0.68690  0.28890  1.0000 0.0921716213
H   H131      1.0  0.03460  0.34770  0.62223  1.0000 0.0921716213
H   H132      1.0  0.31310  0.96540  0.95557  1.0000 0.0921716213
H   H133      1.0  0.60450  0.62010  0.68510  1.0000 0.1002337803
H   H134      1.0  0.37990  0.98440  0.35177  1.0000 0.1002337803
H   H135      1.0  0.01560  0.39550  0.01843  1.0000 0.1097140982
H   H136      1.0  0.62010  0.60450  0.31490  1.0000 0.1002337803
H   H137      1.0  0.98440  0.37990  0.64823  1.0000 0.1002337803
H   H138      1.0  0.39550  0.01560  0.98157  1.0000 0.1002337803
H   H139      1.0  0.39810  0.61720  0.83400  1.0000 0.1097140982
H   H140      1.0  0.38280  0.78090  0.50067  1.0000 0.1097140982
H   H141      1.0  0.21910  0.60190  0.16733  1.0000 0.1097140982
H   H142      1.0  0.61720  0.39810  0.16600  1.0000 0.1097140982
H   H143      1.0  0.78090  0.38280  0.49933  1.0000 0.1097140982
H   H144      1.0  0.60190  0.21910  0.83267  1.0000 0.1097140982
H   H145      1.0  0.43070  0.56350  0.85430  1.0000 0.1097140982
H   H146      1.0  0.43650  0.86720  0.52097  1.0000 0.1097140982
H   H147      1.0  0.13280  0.56930  0.18763  1.0000 0.1097140982
H   H148      1.0  0.56350  0.43070  0.14570  1.0000 0.1097140982
H   H149      1.0  0.86720  0.43650  0.47903  1.0000 0.1097140982
H   H150      1.0  0.56930  0.13280  0.81237  1.0000 0.1097140982
H   H151      1.0  0.33410  0.39820  0.82770  1.0000 0.1002337803
H   H152      1.0  0.60180  0.93590  0.49437  1.0000 0.1002337803
H   H153      1.0  0.06410  0.66590  0.16103  1.0000 0.1002337803
H   H154      1.0  0.39820  0.33410  0.17230  1.0000 0.1002337803
H   H155      1.0  0.93590  0.60180  0.50563  1.0000 0.1002337803
H   H156      1.0  0.66590  0.06410  0.83897  1.0000 0.1002337803
H   H157      1.0  0.26760  0.38430  0.79150  1.0000 0.081771326
H   H158      1.0  0.61570  0.88330  0.45817  1.0000 0.081771326
H   H159      1.0  0.11670  0.73240  0.12483  1.0000 0.081771326
H   H160      1.0  0.38430  0.26760  0.20850  1.0000 0.081771326
H   H161      1.0  0.88330  0.61570  0.54183  1.0000 0.081771326
H   H162      1.0  0.73240  0.11670  0.87517  1.0000 0.081771326
H   H163      1.0  0.29490  0.48960  0.83890  1.0000 0.1290656146
H   H164      1.0  0.51040  0.80530  0.50557  1.0000 0.1290656146
H   H165      1.0  0.19470  0.70510  0.17223  1.0000 0.1290656146
H   H166      1.0  0.48960  0.29490  0.16110  1.0000 0.1290656146
H   H167      1.0  0.80530  0.51040  0.49443  1.0000 0.1290656146
H   H168      1.0  0.70510  0.19470  0.82777  1.0000 0.1290656146
H   H169      1.0  0.31030  0.51550  0.78710  1.0000 0.1290656146
H   H170      1.0  0.48450  0.79480  0.45377  1.0000 0.1290656146
H   H171      1.0  0.20520  0.68970  0.12043  1.0000 0.1290656146
H   H172      1.0  0.51550  0.31030  0.21290  1.0000 0.1290656146
H   H173      1.0  0.79480  0.48450  0.54623  1.0000 0.1290656146
H   H174      1.0  0.68970  0.20520  0.87957  1.0000 0.1290656146
H   H175      1.0  0.44650  0.32920  0.71930  1.0000 0.1208116101
H   H176      1.0  0.67080  0.11730  0.38597  1.0000 0.1208116101
H   H177      1.0  0.88270  0.55350  0.05263  1.0000 0.1208116101
H   H178      1.0  0.32920  0.44650  0.28070  1.0000 0.1208116101
H   H179      1.0  0.11730  0.67080  0.61403  1.0000 0.1208116101
H   H180      1.0  0.55350  0.88270  0.94737  1.0000 0.1208116101
H   H181      1.0  0.41670  0.38150  0.69470  1.0000 0.1097140982
H   H182      1.0  0.61850  0.03520  0.36137  1.0000 0.1097140982
H   H183      1.0  0.96480  0.58330  0.02803  1.0000 0.1097140982
H   H184      1.0  0.38150  0.41670  0.30530  1.0000 0.1097140982
H   H185      1.0  0.03520  0.61850  0.63863  1.0000 0.1097140982
H   H186      1.0  0.58330  0.96480  0.97197  1.0000 0.1097140982
H   H187      1.0  0.34300  0.42830  0.73840  1.0000 0.2305699966
H   H188      1.0  0.57170  0.91470  0.40507  1.0000 0.2305699966
H   H189      1.0  0.08530  0.65700  0.07173  1.0000 0.2305699966
H   H190      1.0  0.42830  0.34300  0.26160  1.0000 0.2305699966
H   H191      1.0  0.91470  0.57170  0.59493  1.0000 0.2305699966
H   H192      1.0  0.65700  0.08530  0.92827  1.0000 0.2305699966
H   H193      1.0  0.58830  0.68910  0.74050  1.0000 0.1290656146
H   H194      1.0  0.31090  0.89920  0.40717  1.0000 0.1290656146
H   H195      1.0  0.10080  0.41170  0.07383  1.0000 0.1290656146
H   H196      1.0  0.68910  0.58830  0.25950  1.0000 0.1290656146
H   H197      1.0  0.89920  0.31090  0.59283  1.0000 0.1290656146
H   H198      1.0  0.41170  0.10080  0.92617  1.0000 0.1290656146
H   H199      1.0  0.64690  0.69590  0.77950  1.0000 0.1097140982
H   H200      1.0  0.30410  0.95100  0.44617  1.0000 0.1097140982
H   H201      1.0  0.04900  0.35310  0.11283  1.0000 0.1097140982
H   H202      1.0  0.69590  0.64690  0.22050  1.0000 0.1097140982
H   H203      1.0  0.95100  0.30410  0.55383  1.0000 0.1097140982
H   H204      1.0  0.35310  0.04900  0.88717  1.0000 0.1097140982
H   H205      1.0  0.38940  0.33450  0.78830  1.0000 0.1097140982
H   H206      1.0  0.66550  0.05490  0.45497  1.0000 0.1097140982
H   H207      1.0  0.94510  0.61060  0.12163  1.0000 0.1097140982
H   H208      1.0  0.33450  0.38940  0.21170  1.0000 0.1097140982
H   H209      1.0  0.05490  0.66550  0.54503  1.0000 0.1097140982
H   H210      1.0  0.61060  0.94510  0.87837  1.0000 0.1097140982
H   H211      1.0  0.32410  0.30650  0.74860  1.0000 0.1097140982
H   H212      1.0  0.69350  0.01760  0.41527  1.0000 0.1097140982
H   H213      1.0  0.98240  0.67590  0.08193  1.0000 0.1097140982
H   H214      1.0  0.30650  0.32410  0.25140  1.0000 0.1097140982
H   H215      1.0  0.01760  0.69350  0.58473  1.0000 0.1097140982
H   H216      1.0  0.67590  0.98240  0.91807  1.0000 0.1097140982
C   C1        1.0  0.30780  0.59170  0.59000  1.0000 0.3403982998
C   C2        1.0  0.40830  0.71610  0.25667  1.0000 0.3403982998
C   C3        1.0  0.28390  0.69220  0.92333  1.0000 0.3403982998
C   C4        1.0  0.59170  0.30780  0.41000  1.0000 0.3403982998
C   C5        1.0  0.71610  0.40830  0.74333  1.0000 0.3403982998
C   C6        1.0  0.69220  0.28390  0.07667  1.0000 0.3403982998
C   C7        1.0  0.28500  0.65670  0.58700  1.0000 0.444977083
C   C8        1.0  0.34330  0.62830  0.25367  1.0000 0.444977083
C   C9        1.0  0.37170  0.71500  0.92033  1.0000 0.444977083
C   C10       1.0  0.65670  0.28500  0.41300  1.0000 0.444977083
C   C11       1.0  0.62830  0.34330  0.74633  1.0000 0.444977083
C   C12       1.0  0.71500  0.37170  0.07967  1.0000 0.444977083
C   C13       1.0  0.42140  0.56800  0.67830  1.0000 0.5380647959
C   C14       1.0  0.43200  0.85340  0.34497  1.0000 0.5380647959
C   C15       1.0  0.14660  0.57860  0.01163  1.0000 0.5380647959
C   C16       1.0  0.56800  0.42140  0.32170  1.0000 0.5380647959
C   C17       1.0  0.85340  0.43200  0.65503  1.0000 0.5380647959
C   C18       1.0  0.57860  0.14660  0.98837  1.0000 0.5380647959
C   C19       1.0  0.37310  0.53780  0.63590  1.0000 -0.0784097829
C   C20       1.0  0.46220  0.83530  0.30257  1.0000 -0.0784097829
C   C21       1.0  0.16470  0.62690  0.96923  1.0000 -0.0784097829
C   C22       1.0  0.53780  0.37310  0.36410  1.0000 -0.0784097829
C   C23       1.0  0.83530  0.46220  0.69743  1.0000 -0.0784097829
C   C24       1.0  0.62690  0.16470  0.03077  1.0000 -0.0784097829
C   C25       1.0  0.31090  0.45410  0.64480  1.0000 0.081771326
C   C26       1.0  0.54590  0.85680  0.31147  1.0000 0.081771326
C   C27       1.0  0.14320  0.68910  0.97813  1.0000 0.081771326
C   C28       1.0  0.45410  0.31090  0.35520  1.0000 0.081771326
C   C29       1.0  0.85680  0.54590  0.68853  1.0000 0.081771326
C   C30       1.0  0.68910  0.14320  0.02187  1.0000 0.081771326
C   C31       1.0  0.30800  0.39500  0.62290  1.0000 -0.1395225543
C   C32       1.0  0.60500  0.91300  0.28957  1.0000 -0.1395225543
C   C33       1.0  0.08700  0.69200  0.95623  1.0000 -0.1395225543
C   C34       1.0  0.39500  0.30800  0.37710  1.0000 -0.1395225543
C   C35       1.0  0.91300  0.60500  0.71043  1.0000 -0.1395225543
C   C36       1.0  0.69200  0.08700  0.04377  1.0000 -0.1395225543
C   C37       1.0  0.25500  0.32000  0.63510  1.0000 -0.1186912885
C   C38       1.0  0.68000  0.93500  0.30177  1.0000 -0.1186912885
C   C39       1.0  0.06500  0.74500  0.96843  1.0000 -0.1186912885
C   C40       1.0  0.32000  0.25500  0.36490  1.0000 -0.1186912885
C   C41       1.0  0.93500  0.68000  0.69823  1.0000 -0.1186912885
C   C42       1.0  0.74500  0.06500  0.03157  1.0000 -0.1186912885
C   C43       1.0  0.19700  0.29740  0.66730  1.0000 -0.1186912885
C   C44       1.0  0.70260  0.89960  0.33397  1.0000 -0.1186912885
C   C45       1.0  0.10040  0.80300  0.00063  1.0000 -0.1186912885
C   C46       1.0  0.29740  0.19700  0.33270  1.0000 -0.1186912885
C   C47       1.0  0.89960  0.70260  0.66603  1.0000 -0.1186912885
C   C48       1.0  0.80300  0.10040  0.99937  1.0000 -0.1186912885
C   C49       1.0  0.19650  0.35570  0.68850  1.0000 -0.1314310301
C   C50       1.0  0.64430  0.84080  0.35517  1.0000 -0.1314310301
C   C51       1.0  0.15920  0.80350  0.02183  1.0000 -0.1314310301
C   C52       1.0  0.35570  0.19650  0.31150  1.0000 -0.1314310301
C   C53       1.0  0.84080  0.64430  0.64483  1.0000 -0.1314310301
C   C54       1.0  0.80350  0.15920  0.97817  1.0000 -0.1314310301
C   C55       1.0  0.25280  0.43580  0.67860  1.0000 -0.1873487426
C   C56       1.0  0.56420  0.81700  0.34527  1.0000 -0.1873487426
C   C57       1.0  0.18300  0.74720  0.01193  1.0000 -0.1873487426
C   C58       1.0  0.43580  0.25280  0.32140  1.0000 -0.1873487426
C   C59       1.0  0.81700  0.56420  0.65473  1.0000 -0.1873487426
C   C60       1.0  0.74720  0.18300  0.98807  1.0000 -0.1873487426
C   C61       1.0  0.33570  0.63370  0.42530  1.0000 0.4553481918
C   C62       1.0  0.36630  0.70200  0.09197  1.0000 0.4553481918
C   C63       1.0  0.29800  0.66430  0.75863  1.0000 0.4553481918
C   C64       1.0  0.63370  0.33570  0.57470  1.0000 0.4553481918
C   C65       1.0  0.70200  0.36630  0.90803  1.0000 0.4553481918
C   C66       1.0  0.66430  0.29800  0.24137  1.0000 0.4553481918
C   C67       1.0  0.25100  0.61710  0.41360  1.0000 0.3629683288
C   C68       1.0  0.38290  0.63390  0.08027  1.0000 0.3629683288
C   C69       1.0  0.36610  0.74900  0.74693  1.0000 0.3629683288
C   C70       1.0  0.61710  0.25100  0.58640  1.0000 0.3629683288
C   C71       1.0  0.63390  0.38290  0.91973  1.0000 0.3629683288
C   C72       1.0  0.74900  0.36610  0.25307  1.0000 0.3629683288
C   C73       1.0  0.12010  0.56200  0.44790  1.0000 -0.0458626585
C   C74       1.0  0.43800  0.55810  0.11457  1.0000 -0.0458626585
C   C75       1.0  0.44190  0.87990  0.78123  1.0000 -0.0458626585
C   C76       1.0  0.56200  0.12010  0.55210  1.0000 -0.0458626585
C   C77       1.0  0.55810  0.43800  0.88543  1.0000 -0.0458626585
C   C78       1.0  0.87990  0.44190  0.21877  1.0000 -0.0458626585
C   C79       1.0  0.08600  0.52310  0.49650  1.0000 0.5380647959
C   C80       1.0  0.47690  0.56290  0.16317  1.0000 0.5380647959
C   C81       1.0  0.43710  0.91400  0.82983  1.0000 0.5380647959
C   C82       1.0  0.52310  0.08600  0.50350  1.0000 0.5380647959
C   C83       1.0  0.56290  0.47690  0.83683  1.0000 0.5380647959
C   C84       1.0  0.91400  0.43710  0.17017  1.0000 0.5380647959
C   C85       1.0  0.10320  0.62880  0.43940  1.0000 0.1002337803
C   C86       1.0  0.37120  0.47440  0.10607  1.0000 0.1002337803
C   C87       1.0  0.52560  0.89680  0.77273  1.0000 0.1002337803
C   C88       1.0  0.62880  0.10320  0.56060  1.0000 0.1002337803
C   C89       1.0  0.47440  0.37120  0.89393  1.0000 0.1002337803
C   C90       1.0  0.89680  0.52560  0.22727  1.0000 0.1002337803
C   C91       1.0  0.13930  0.69610  0.46460  1.0000 -0.1692550946
C   C92       1.0  0.30390  0.44320  0.13127  1.0000 -0.1692550946
C   C93       1.0  0.55680  0.86070  0.79793  1.0000 -0.1692550946
C   C94       1.0  0.69610  0.13930  0.53540  1.0000 -0.1692550946
C   C95       1.0  0.44320  0.30390  0.86873  1.0000 -0.1692550946
C   C96       1.0  0.86070  0.55680  0.20207  1.0000 -0.1692550946
C   C97       1.0  0.11670  0.75270  0.46080  1.0000 -0.104195686
C   C98       1.0  0.24730  0.36400  0.12747  1.0000 -0.104195686
C   C99       1.0  0.63600  0.88330  0.79413  1.0000 -0.104195686
C   C100      1.0  0.75270  0.11670  0.53920  1.0000 -0.104195686
C   C101      1.0  0.36400  0.24730  0.87253  1.0000 -0.104195686
C   C102      1.0  0.88330  0.63600  0.20587  1.0000 -0.104195686
C   C103      1.0  0.06000  0.74700  0.42880  1.0000 -0.1395225543
C   C104      1.0  0.25300  0.31300  0.09547  1.0000 -0.1395225543
C   C105      1.0  0.68700  0.94000  0.76213  1.0000 -0.1395225543
C   C106      1.0  0.74700  0.06000  0.57120  1.0000 -0.1395225543
C   C107      1.0  0.31300  0.25300  0.90453  1.0000 -0.1395225543
C   C108      1.0  0.94000  0.68700  0.23787  1.0000 -0.1395225543
C   C109      1.0  0.02700  0.67600  0.40120  1.0000 -0.0919389569
C   C110      1.0  0.32400  0.35100  0.06787  1.0000 -0.0919389569
C   C111      1.0  0.64900  0.97300  0.73453  1.0000 -0.0919389569
C   C112      1.0  0.67600  0.02700  0.59880  1.0000 -0.0919389569
C   C113      1.0  0.35100  0.32400  0.93213  1.0000 -0.0919389569
C   C114      1.0  0.97300  0.64900  0.26547  1.0000 -0.0919389569
C   C115      1.0  0.04580  0.61900  0.40800  1.0000 -0.1580125757
C   C116      1.0  0.38100  0.42680  0.07467  1.0000 -0.1580125757
C   C117      1.0  0.57320  0.95420  0.74133  1.0000 -0.1580125757
C   C118      1.0  0.61900  0.04580  0.59200  1.0000 -0.1580125757
C   C119      1.0  0.42680  0.38100  0.92533  1.0000 -0.1580125757
C   C120      1.0  0.95420  0.57320  0.25867  1.0000 -0.1580125757
C   C121      1.0  0.63100  0.53100  0.69870  1.0000 -0.2828780332
C   C122      1.0  0.46900  0.10000  0.36537  1.0000 -0.2828780332
C   C123      1.0  0.90000  0.36900  0.03203  1.0000 -0.2828780332
C   C124      1.0  0.53100  0.63100  0.30130  1.0000 -0.2828780332
C   C125      1.0  0.10000  0.46900  0.63463  1.0000 -0.2828780332
C   C126      1.0  0.36900  0.90000  0.96797  1.0000 -0.2828780332
C   C127      1.0  0.55300  0.45600  0.69030  1.0000 -0.0458626585
C   C128      1.0  0.54400  0.09700  0.35697  1.0000 -0.0458626585
C   C129      1.0  0.90300  0.44700  0.02363  1.0000 -0.0458626585
C   C130      1.0  0.45600  0.55300  0.30970  1.0000 -0.0458626585
C   C131      1.0  0.09700  0.54400  0.64303  1.0000 -0.0458626585
C   C132      1.0  0.44700  0.90300  0.97637  1.0000 -0.0458626585
C   C133      1.0  0.53600  0.65850  0.80310  1.0000 -0.06533865
C   C134      1.0  0.34150  0.87750  0.46977  1.0000 -0.06533865
C   C135      1.0  0.12250  0.46400  0.13643  1.0000 -0.06533865
C   C136      1.0  0.65850  0.53600  0.19690  1.0000 -0.06533865
C   C137      1.0  0.87750  0.34150  0.53023  1.0000 -0.06533865
C   C138      1.0  0.46400  0.12250  0.86357  1.0000 -0.06533865
C   C139      1.0  0.63200  0.60800  0.70930  1.0000 -0.0124980779
C   C140      1.0  0.39200  0.02400  0.37597  1.0000 -0.0124980779
C   C141      1.0  0.97600  0.36800  0.04263  1.0000 -0.0124980779
C   C142      1.0  0.60800  0.63200  0.29070  1.0000 -0.0124980779
C   C143      1.0  0.02400  0.39200  0.62403  1.0000 -0.0124980779
C   C144      1.0  0.36800  0.97600  0.95737  1.0000 -0.0124980779
C   C145      1.0  0.40900  0.57400  0.82670  1.0000 -0.0583220496
C   C146      1.0  0.42600  0.83500  0.49337  1.0000 -0.0583220496
C   C147      1.0  0.16500  0.59100  0.16003  1.0000 -0.0583220496
C   C148      1.0  0.57400  0.40900  0.17330  1.0000 -0.0583220496
C   C149      1.0  0.83500  0.42600  0.50663  1.0000 -0.0583220496
C   C150      1.0  0.59100  0.16500  0.83997  1.0000 -0.0583220496
C   C151      1.0  0.32300  0.42000  0.80040  1.0000 -0.0124980779
C   C152      1.0  0.58000  0.90300  0.46707  1.0000 -0.0124980779
C   C153      1.0  0.09700  0.67700  0.13373  1.0000 -0.0124980779
C   C154      1.0  0.42000  0.32300  0.19960  1.0000 -0.0124980779
C   C155      1.0  0.90300  0.58000  0.53293  1.0000 -0.0124980779
C   C156      1.0  0.67700  0.09700  0.86627  1.0000 -0.0124980779
C   C157      1.0  0.33100  0.50000  0.81300  1.0000 -0.2309610142
C   C158      1.0  0.50000  0.83100  0.47967  1.0000 -0.2309610142
C   C159      1.0  0.16900  0.66900  0.14633  1.0000 -0.2309610142
C   C160      1.0  0.50000  0.33100  0.18700  1.0000 -0.2309610142
C   C161      1.0  0.83100  0.50000  0.52033  1.0000 -0.2309610142
C   C162      1.0  0.66900  0.16900  0.85367  1.0000 -0.2309610142
C   C163      1.0  0.43800  0.37400  0.72380  1.0000 -0.1186912885
C   C164      1.0  0.62600  0.06400  0.39047  1.0000 -0.1186912885
C   C165      1.0  0.93600  0.56200  0.05713  1.0000 -0.1186912885
C   C166      1.0  0.37400  0.43800  0.27620  1.0000 -0.1186912885
C   C167      1.0  0.06400  0.62600  0.60953  1.0000 -0.1186912885
C   C168      1.0  0.56200  0.93600  0.94287  1.0000 -0.1186912885
C   C169      1.0  0.59400  0.66100  0.76690  1.0000 -0.1395225543
C   C170      1.0  0.33900  0.93300  0.43357  1.0000 -0.1395225543
C   C171      1.0  0.06700  0.40600  0.10023  1.0000 -0.1395225543
C   C172      1.0  0.66100  0.59400  0.23310  1.0000 -0.1395225543
C   C173      1.0  0.93300  0.33900  0.56643  1.0000 -0.1395225543
C   C174      1.0  0.40600  0.06700  0.89977  1.0000 -0.1395225543
C   C175      1.0  0.37500  0.35000  0.75960  1.0000 -0.1395225543
C   C176      1.0  0.65000  0.02500  0.42627  1.0000 -0.1395225543
C   C177      1.0  0.97500  0.62500  0.09293  1.0000 -0.1395225543
C   C178      1.0  0.35000  0.37500  0.24040  1.0000 -0.1395225543
C   C179      1.0  0.02500  0.65000  0.57373  1.0000 -0.1395225543
C   C180      1.0  0.62500  0.97500  0.90707  1.0000 -0.1395225543
N   N1        1.0  0.34060  0.58980  0.62640  1.0000 -0.4040848085
N   N2        1.0  0.41020  0.75080  0.29307  1.0000 -0.4040848085
N   N3        1.0  0.24920  0.65940  0.95973  1.0000 -0.4040848085
N   N4        1.0  0.58980  0.34060  0.37360  1.0000 -0.4040848085
N   N5        1.0  0.75080  0.41020  0.70693  1.0000 -0.4040848085
N   N6        1.0  0.65940  0.24920  0.04027  1.0000 -0.4040848085
N   N7        1.0  0.20240  0.58580  0.44800  1.0000 -0.4467171647
N   N8        1.0  0.41420  0.61660  0.11467  1.0000 -0.4467171647
N   N9        1.0  0.38340  0.79760  0.78133  1.0000 -0.4467171647
N   N10       1.0  0.58580  0.20240  0.55200  1.0000 -0.4467171647
N   N11       1.0  0.61660  0.41420  0.88533  1.0000 -0.4467171647
N   N12       1.0  0.79760  0.38340  0.21867  1.0000 -0.4467171647
N   N13       1.0  0.59660  0.59790  0.74880  1.0000 -0.2472581285
N   N14       1.0  0.40210  0.99870  0.41547  1.0000 -0.2472581285
N   N15       1.0  0.00130  0.40340  0.08213  1.0000 -0.2472581285
N   N16       1.0  0.59790  0.59660  0.25120  1.0000 -0.2472581285
N   N17       1.0  0.99870  0.40210  0.58453  1.0000 -0.2472581285
N   N18       1.0  0.40340  0.00130  0.91787  1.0000 -0.2472581285
N   N19       1.0  0.51040  0.43950  0.72990  1.0000 -0.2678548265
N   N20       1.0  0.56050  0.07090  0.39657  1.0000 -0.2678548265
N   N21       1.0  0.92910  0.48960  0.06323  1.0000 -0.2678548265
N   N22       1.0  0.43950  0.51040  0.27010  1.0000 -0.2678548265
N   N23       1.0  0.07090  0.56050  0.60343  1.0000 -0.2678548265
N   N24       1.0  0.48960  0.92910  0.93677  1.0000 -0.2678548265
N   N25       1.0  0.46420  0.59830  0.79050  1.0000 -0.2961216488
N   N26       1.0  0.40170  0.86590  0.45717  1.0000 -0.2961216488
N   N27       1.0  0.13410  0.53580  0.12383  1.0000 -0.2961216488
N   N28       1.0  0.59830  0.46420  0.20950  1.0000 -0.2961216488
N   N29       1.0  0.86590  0.40170  0.54283  1.0000 -0.2961216488
N   N30       1.0  0.53580  0.13410  0.87617  1.0000 -0.2961216488
N   N31       1.0  0.36930  0.42420  0.76660  1.0000 -0.2678548265
N   N32       1.0  0.57580  0.94510  0.43327  1.0000 -0.2678548265
N   N33       1.0  0.05490  0.63070  0.09993  1.0000 -0.2678548265
N   N34       1.0  0.42420  0.36930  0.23340  1.0000 -0.2678548265
N   N35       1.0  0.94510  0.57580  0.56673  1.0000 -0.2678548265
N   N36       1.0  0.63070  0.05490  0.90007  1.0000 -0.2678548265
O   O1        1.0  0.30970  0.70320  0.62330  1.0000 -0.510425009
O   O2        1.0  0.29680  0.60650  0.28997  1.0000 -0.510425009
O   O3        1.0  0.39350  0.69030  0.95663  1.0000 -0.510425009
O   O4        1.0  0.70320  0.30970  0.37670  1.0000 -0.510425009
O   O5        1.0  0.60650  0.29680  0.71003  1.0000 -0.510425009
O   O6        1.0  0.69030  0.39350  0.04337  1.0000 -0.510425009
O   O7        1.0  0.25750  0.66570  0.55270  1.0000 -0.4811436303
O   O8        1.0  0.33430  0.59180  0.21937  1.0000 -0.4811436303
O   O9        1.0  0.40820  0.74250  0.88603  1.0000 -0.4811436303
O   O10       1.0  0.66570  0.25750  0.44730  1.0000 -0.4811436303
O   O11       1.0  0.59180  0.33430  0.78063  1.0000 -0.4811436303
O   O12       1.0  0.74250  0.40820  0.11397  1.0000 -0.4811436303
O   O13       1.0  0.29050  0.54430  0.55530  1.0000 -0.4907103447
O   O14       1.0  0.45570  0.74620  0.22197  1.0000 -0.4907103447
O   O15       1.0  0.25380  0.70950  0.88863  1.0000 -0.4907103447
O   O16       1.0  0.54430  0.29050  0.44470  1.0000 -0.4907103447
O   O17       1.0  0.74620  0.45570  0.77803  1.0000 -0.4907103447
O   O18       1.0  0.70950  0.25380  0.11137  1.0000 -0.4907103447
O   O19       1.0  0.42710  0.62960  0.69820  1.0000 -0.5369696188
O   O20       1.0  0.37040  0.79750  0.36487  1.0000 -0.5369696188
O   O21       1.0  0.20250  0.57290  0.03153  1.0000 -0.5369696188
O   O22       1.0  0.62960  0.42710  0.30180  1.0000 -0.5369696188
O   O23       1.0  0.79750  0.37040  0.63513  1.0000 -0.5369696188
O   O24       1.0  0.57290  0.20250  0.96847  1.0000 -0.5369696188
O   O25       1.0  0.45410  0.53180  0.69440  1.0000 -0.510425009
O   O26       1.0  0.46820  0.92230  0.36107  1.0000 -0.510425009
O   O27       1.0  0.07770  0.54590  0.02773  1.0000 -0.510425009
O   O28       1.0  0.53180  0.45410  0.30560  1.0000 -0.510425009
O   O29       1.0  0.92230  0.46820  0.63893  1.0000 -0.510425009
O   O30       1.0  0.54590  0.07770  0.97227  1.0000 -0.510425009
O   O31       1.0  0.34470  0.61590  0.46660  1.0000 -0.4975999836
O   O32       1.0  0.38410  0.72880  0.13327  1.0000 -0.4975999836
O   O33       1.0  0.27120  0.65530  0.79993  1.0000 -0.4975999836
O   O34       1.0  0.61590  0.34470  0.53340  1.0000 -0.4975999836
O   O35       1.0  0.72880  0.38410  0.86673  1.0000 -0.4975999836
O   O36       1.0  0.65530  0.27120  0.20007  1.0000 -0.4975999836
O   O37       1.0  0.23820  0.63510  0.37450  1.0000 -0.4621328928
O   O38       1.0  0.36490  0.60310  0.04117  1.0000 -0.4621328928
O   O39       1.0  0.39690  0.76180  0.70783  1.0000 -0.4621328928
O   O40       1.0  0.63510  0.23820  0.62550  1.0000 -0.4621328928
O   O41       1.0  0.60310  0.36490  0.95883  1.0000 -0.4621328928
O   O42       1.0  0.76180  0.39690  0.29217  1.0000 -0.4621328928
O   O43       1.0  0.38510  0.65920  0.39560  1.0000 -0.4975999836
O   O44       1.0  0.34080  0.72590  0.06227  1.0000 -0.4975999836
O   O45       1.0  0.27410  0.61490  0.72893  1.0000 -0.4975999836
O   O46       1.0  0.65920  0.38510  0.60440  1.0000 -0.4975999836
O   O47       1.0  0.72590  0.34080  0.93773  1.0000 -0.4975999836
O   O48       1.0  0.61490  0.27410  0.27107  1.0000 -0.4975999836
O   O49       1.0  0.13300  0.51160  0.52020  1.0000 -0.5369696188
O   O50       1.0  0.48840  0.62140  0.18687  1.0000 -0.5369696188
O   O51       1.0  0.37860  0.86700  0.85353  1.0000 -0.5369696188
O   O52       1.0  0.51160  0.13300  0.47980  1.0000 -0.5369696188
O   O53       1.0  0.62140  0.48840  0.81313  1.0000 -0.5369696188
O   O54       1.0  0.86700  0.37860  0.14647  1.0000 -0.5369696188
O   O55       1.0  0.01670  0.50810  0.50540  1.0000 -0.5150130906
O   O56       1.0  0.49190  0.50860  0.17207  1.0000 -0.510425009
O   O57       1.0  0.49140  0.98330  0.83873  1.0000 -0.510425009
O   O58       1.0  0.50810  0.01670  0.49460  1.0000 -0.510425009
O   O59       1.0  0.50860  0.49190  0.82793  1.0000 -0.510425009
O   O60       1.0  0.98330  0.49140  0.16127  1.0000 -0.510425009
