# DDEC6 charges by PACMAN v1.1 (https://github.com/mtap-research/PACMAN-charge/)
data_2017[Cu][ths]3[FSR]7
_chemical_formula_sum              "Cu8 C24 O48"
_cell_length_a       8.7622
_cell_length_b       33.8187
_cell_length_c       8.7979
_cell_angle_alpha    90
_cell_angle_beta     107.854
_cell_angle_gamma    90

_symmetry_space_group_name_H-M    "P 1"
_symmetry_Int_Tables_number       1

loop_
  _symmetry_equiv_pos_as_xyz
  'x, y, z'

loop_
  _atom_site_type_symbol
  _atom_site_label
  _atom_site_symmetry_multiplicity
  _atom_site_fract_x
  _atom_site_fract_y
  _atom_site_fract_z
  _atom_site_occupancy
  _atom_site_charge
Cu  Cu1       1.0  0.50762  0.79613  0.25058  1.0000 0.9154104043
Cu  Cu2       1.0  0.99238  0.29613  0.74942  1.0000 0.9116001575
Cu  Cu3       1.0  0.49238  0.20387  0.74942  1.0000 0.9116001575
Cu  Cu4       1.0  0.00762  0.70387  0.25058  1.0000 0.9154104043
Cu  Cu5       1.0  0.49893  0.95423  0.25817  1.0000 0.9116001575
Cu  Cu6       1.0  0.00107  0.45423  0.74183  1.0000 0.9116001575
Cu  Cu7       1.0  0.50107  0.04577  0.74183  1.0000 0.9116001575
Cu  Cu8       1.0  0.99893  0.54577  0.25817  1.0000 0.9116001575
C   C1        1.0  0.43090  0.87617  0.18040  1.0000 0.5665238399
C   C2        1.0  0.06910  0.37617  0.81960  1.0000 0.5665238399
C   C3        1.0  0.56910  0.12383  0.81960  1.0000 0.5665238399
C   C4        1.0  0.93090  0.62383  0.18040  1.0000 0.5665238399
C   C5        1.0  0.58390  0.87403  0.32900  1.0000 0.5565026376
C   C6        1.0  0.91610  0.37403  0.67100  1.0000 0.5565026376
C   C7        1.0  0.41610  0.12597  0.67100  1.0000 0.5565026376
C   C8        1.0  0.08390  0.62597  0.32900  1.0000 0.5565026376
C   C9        1.0  0.26690  0.74088  0.18420  1.0000 0.5510395218
C   C10       1.0  0.23310  0.24088  0.81580  1.0000 0.5510395218
C   C11       1.0  0.73310  0.25912  0.81580  1.0000 0.5510395218
C   C12       1.0  0.76690  0.75912  0.18420  1.0000 0.5510395218
C   C13       1.0  0.25320  0.76280  0.33360  1.0000 0.5392209042
C   C14       1.0  0.24680  0.26280  0.66640  1.0000 0.5392209042
C   C15       1.0  0.74680  0.23720  0.66640  1.0000 0.5392209042
C   C16       1.0  0.75320  0.73720  0.33360  1.0000 0.5392209042
C   C17       1.0  0.57800  0.98923  0.99790  1.0000 0.5565026376
C   C18       1.0  0.92200  0.48923  0.00210  1.0000 0.5565026376
C   C19       1.0  0.42200  0.01077  0.00210  1.0000 0.5565026376
C   C20       1.0  0.07800  0.51077  0.99790  1.0000 0.5565026376
C   C21       1.0  0.42860  0.98850  0.51290  1.0000 0.5392209042
C   C22       1.0  0.07140  0.48850  0.48710  1.0000 0.5392209042
C   C23       1.0  0.57140  0.01150  0.48710  1.0000 0.5349094022
C   C24       1.0  0.92860  0.51150  0.51290  1.0000 0.5349094022
O   O1        1.0  0.38093  0.84490  0.11007  1.0000 -0.4194129591
O   O2        1.0  0.11907  0.34490  0.88993  1.0000 -0.4194129591
O   O3        1.0  0.61907  0.15510  0.88993  1.0000 -0.4194129591
O   O4        1.0  0.88093  0.65510  0.11007  1.0000 -0.4194129591
O   O5        1.0  0.36980  0.90957  0.14332  1.0000 -0.4288811576
O   O6        1.0  0.13020  0.40957  0.85668  1.0000 -0.4288811576
O   O7        1.0  0.63020  0.09043  0.85668  1.0000 -0.4194129591
O   O8        1.0  0.86980  0.59043  0.14332  1.0000 -0.4288811576
O   O9        1.0  0.63011  0.84029  0.37979  1.0000 -0.4288811576
O   O10       1.0  0.86989  0.34029  0.62021  1.0000 -0.4384896877
O   O11       1.0  0.36989  0.15971  0.62021  1.0000 -0.4288811576
O   O12       1.0  0.13011  0.65971  0.37979  1.0000 -0.4384896877
O   O13       1.0  0.64712  0.90568  0.38449  1.0000 -0.4194129591
O   O14       1.0  0.85288  0.40568  0.61551  1.0000 -0.4194129591
O   O15       1.0  0.35288  0.09432  0.61551  1.0000 -0.4194129591
O   O16       1.0  0.14712  0.59432  0.38449  1.0000 -0.4194129591
O   O17       1.0  0.34421  0.79238  0.37761  1.0000 -0.4486652862
O   O18       1.0  0.15579  0.29238  0.62239  1.0000 -0.4486652862
O   O19       1.0  0.65579  0.20762  0.62239  1.0000 -0.4486652862
O   O20       1.0  0.84421  0.70762  0.37761  1.0000 -0.4486652862
O   O21       1.0  0.15890  0.75026  0.40100  1.0000 -0.409019304
O   O22       1.0  0.34110  0.25026  0.59900  1.0000 -0.409019304
O   O23       1.0  0.84110  0.24974  0.59900  1.0000 -0.409019304
O   O24       1.0  0.65890  0.74974  0.40100  1.0000 -0.409019304
O   O25       1.0  0.36842  0.75390  0.12291  1.0000 -0.4384896877
O   O26       1.0  0.13158  0.25390  0.87709  1.0000 -0.4384896877
O   O27       1.0  0.63158  0.24610  0.87709  1.0000 -0.4486652862
O   O28       1.0  0.86842  0.74610  0.12291  1.0000 -0.4486652862
O   O29       1.0  0.17666  0.71229  0.13520  1.0000 -0.409019304
O   O30       1.0  0.32334  0.21229  0.86480  1.0000 -0.409019304
O   O31       1.0  0.82334  0.28771  0.86480  1.0000 -0.409019304
O   O32       1.0  0.67666  0.78771  0.13520  1.0000 -0.409019304
O   O33       1.0  0.61912  0.95988  0.08977  1.0000 -0.4486652862
O   O34       1.0  0.88088  0.45988  0.91023  1.0000 -0.4486652862
O   O35       1.0  0.38088  0.04012  0.91023  1.0000 -0.4486652862
O   O36       1.0  0.11912  0.54012  0.08977  1.0000 -0.4486652862
O   O37       1.0  0.65017  0.00174  0.90820  1.0000 -0.409019304
O   O38       1.0  0.84983  0.50174  0.09180  1.0000 -0.409019304
O   O39       1.0  0.34983  0.99826  0.09180  1.0000 -0.409019304
O   O40       1.0  0.15017  0.49826  0.90820  1.0000 -0.409019304
O   O41       1.0  0.37957  0.95915  0.42603  1.0000 -0.4288811576
O   O42       1.0  0.12043  0.45915  0.57397  1.0000 -0.4288811576
O   O43       1.0  0.62043  0.04085  0.57397  1.0000 -0.4288811576
O   O44       1.0  0.87957  0.54085  0.42603  1.0000 -0.4288811576
O   O45       1.0  0.37314  0.00126  0.61843  1.0000 -0.4288811576
O   O46       1.0  0.12686  0.50126  0.38157  1.0000 -0.4384896877
O   O47       1.0  0.62686  0.99874  0.38157  1.0000 -0.4384896877
O   O48       1.0  0.87314  0.49874  0.61843  1.0000 -0.4384896877
