# DDEC6 charges by PACMAN v1.1 (https://github.com/mtap-research/PACMAN-charge/)
data_2017[Ce][mog]3[FSR]1
_chemical_formula_sum              "Ce2 H6 C18 N6 O16"
_cell_length_a       6.099
_cell_length_b       10.501
_cell_length_c       13.688
_cell_angle_alpha    72.607
_cell_angle_beta     88.789
_cell_angle_gamma    88.98

_symmetry_space_group_name_H-M    "P 1"
_symmetry_Int_Tables_number       1

loop_
  _symmetry_equiv_pos_as_xyz
  'x, y, z'

loop_
  _atom_site_type_symbol
  _atom_site_label
  _atom_site_symmetry_multiplicity
  _atom_site_fract_x
  _atom_site_fract_y
  _atom_site_fract_z
  _atom_site_occupancy
  _atom_site_charge
Ce  Ce1       1.0  0.74860  0.33898  0.29069  1.0000 1.8612596759
Ce  Ce2       1.0  0.25140  0.66102  0.70931  1.0000 1.8612596759
H   H1        1.0  0.18940  0.08530  0.35110  1.0000 0.1587985822
H   H2        1.0  0.81060  0.91470  0.64890  1.0000 0.1587985822
H   H3        1.0  0.29710  0.53190  0.13120  1.0000 0.1488951215
H   H4        1.0  0.70290  0.46810  0.86880  1.0000 0.1488951215
H   H5        1.0  0.65100  0.42620  0.52860  1.0000 0.1443211505
H   H6        1.0  0.34900  0.57380  0.47140  1.0000 0.1443211505
C   C1        1.0  0.60070  0.13130  0.52690  1.0000 0.5310559937
C   C2        1.0  0.39930  0.86870  0.47310  1.0000 0.5310559937
C   C3        1.0  0.10890  0.05170  0.41160  1.0000 0.0844150999
C   C4        1.0  0.89110  0.94830  0.58840  1.0000 0.0854181169
C   C5        1.0  0.81330  0.06030  0.51360  1.0000 0.070955274
C   C6        1.0  0.18670  0.93970  0.48640  1.0000 0.070955274
C   C7        1.0  0.68260  0.42620  0.02230  1.0000 0.070955274
C   C8        1.0  0.31740  0.57380  0.97770  1.0000 0.070955274
C   C9        1.0  0.89080  0.34300  0.04810  1.0000 0.5474727967
C   C10       1.0  0.10920  0.65700  0.95190  1.0000 0.5474727967
C   C11       1.0  0.38260  0.51770  0.07830  1.0000 0.070955274
C   C12       1.0  0.61740  0.48230  0.92170  1.0000 0.070955274
C   C13       1.0  0.24750  0.43260  0.34330  1.0000 0.5474727967
C   C14       1.0  0.75250  0.56740  0.65670  1.0000 0.5474727967
C   C15       1.0  0.11660  0.47100  0.42570  1.0000 0.0854181169
C   C16       1.0  0.88340  0.52900  0.57430  1.0000 0.0854181169
C   C17       1.0  0.79460  0.45580  0.51560  1.0000 0.070955274
C   C18       1.0  0.20540  0.54420  0.48440  1.0000 0.070955274
N   N1        1.0  0.56560  0.44370  0.10050  1.0000 -0.2320657304
N   N2        1.0  0.43440  0.55630  0.89950  1.0000 -0.2320657304
N   N3        1.0  0.92140  0.11190  0.42490  1.0000 -0.2413747764
N   N4        1.0  0.07860  0.88810  0.57510  1.0000 -0.2413747764
N   N5        1.0  0.91020  0.42730  0.44130  1.0000 -0.249245905
N   N6        1.0  0.08980  0.57270  0.55870  1.0000 -0.249245905
O   O1        1.0  0.54580  0.22840  0.45290  1.0000 -0.5587685338
O   O2        1.0  0.45420  0.77160  0.54710  1.0000 -0.5587685338
O   O3        1.0  0.49740  0.08940  0.60970  1.0000 -0.4303994855
O   O4        1.0  0.50260  0.91060  0.39030  1.0000 -0.4303994855
O   O5        1.0  0.93760  0.30240  0.14160  1.0000 -0.5236243984
O   O6        1.0  0.06240  0.69760  0.85840  1.0000 -0.5236243984
O   O7        1.0  0.00150  0.32110  0.97780  1.0000 -0.4123977354
O   O8        1.0  0.99850  0.67890  0.02220  1.0000 -0.4123977354
O   O9        1.0  0.84710  0.58290  0.21840  1.0000 -0.3117745599
O   O10       1.0  0.15290  0.41710  0.78160  1.0000 -0.3117745599
O   O11       1.0  0.56480  0.15040  0.25210  1.0000 -0.3721019855
O   O12       1.0  0.43520  0.84960  0.74790  1.0000 -0.3721019855
O   O13       1.0  0.43900  0.47740  0.32510  1.0000 -0.5380544296
O   O14       1.0  0.56100  0.52260  0.67490  1.0000 -0.5380544296
O   O15       1.0  0.15540  0.35890  0.30110  1.0000 -0.5236243984
O   O16       1.0  0.84460  0.64110  0.69890  1.0000 -0.5236243984
