# DDEC6 charges by PACMAN v1.1 (https://github.com/mtap-research/PACMAN-charge/)
data_2017[Cd][nan]3[FSR]1
_chemical_formula_sum              "Cd12 H200 C264 N4 O114"
_cell_length_a       10.4978
_cell_length_b       20.305
_cell_length_c       37.0941
_cell_angle_alpha    85.733
_cell_angle_beta     88.106
_cell_angle_gamma    80.345

_symmetry_space_group_name_H-M    "P 1"
_symmetry_Int_Tables_number       1

loop_
  _symmetry_equiv_pos_as_xyz
  'x, y, z'

loop_
  _atom_site_type_symbol
  _atom_site_label
  _atom_site_symmetry_multiplicity
  _atom_site_fract_x
  _atom_site_fract_y
  _atom_site_fract_z
  _atom_site_occupancy
  _atom_site_charge
Cd  Cd1       1.0  0.55154  0.01115  0.33508  1.0000 1.0442184948
Cd  Cd2       1.0  0.70297  0.83133  0.27985  1.0000 1.0043261789
Cd  Cd3       1.0  0.81139  0.68337  0.22281  1.0000 1.0072455349
Cd  Cd4       1.0  0.01373  0.49949  0.82826  1.0000 1.056090548
Cd  Cd5       1.0  0.14630  0.30040  0.22042  1.0000 1.0299059891
Cd  Cd6       1.0  0.34867  0.21708  0.29160  1.0000 1.0299059891
Cd  Cd7       1.0  0.44846  0.98885  0.66492  1.0000 1.0442184948
Cd  Cd8       1.0  0.29703  0.16867  0.72015  1.0000 1.0072455349
Cd  Cd9       1.0  0.18861  0.31663  0.77719  1.0000 1.0072455349
Cd  Cd10      1.0  0.98627  0.50051  0.17174  1.0000 1.056090548
Cd  Cd11      1.0  0.85370  0.69960  0.77958  1.0000 1.0299059891
Cd  Cd12      1.0  0.65133  0.78292  0.70840  1.0000 1.0299059891
H   H1        1.0  0.62910  0.86290  0.11320  1.0000 0.0987628606
H   H2        1.0  0.59090  0.81930  0.14860  1.0000 0.0987628606
H   H3        1.0  0.60600  0.91140  0.18450  1.0000 0.1101368478
H   H4        1.0  0.65000  0.95270  0.14900  1.0000 0.1101368478
H   H5        1.0  0.83870  0.86880  0.14290  1.0000 0.1298792579
H   H6        1.0  0.83760  0.90200  0.18080  1.0000 0.1298792579
H   H7        1.0  0.07030  0.83730  0.20370  1.0000 0.0987628606
H   H8        1.0  0.09460  0.91260  0.20660  1.0000 0.0923382132
H   H9        1.0  0.29420  0.79900  0.21730  1.0000 0.1101368478
H   H10       1.0  0.21160  0.83240  0.25020  1.0000 0.0987628606
H   H11       1.0  0.36760  0.90490  0.20280  1.0000 0.1383934458
H   H12       1.0  0.29780  0.93060  0.23930  1.0000 0.1383934458
H   H13       1.0  0.81730  0.62970  0.07180  1.0000 0.1101368478
H   H14       1.0  0.66760  0.62610  0.06620  1.0000 0.1101368478
H   H15       1.0  0.61510  0.72760  0.09910  1.0000 0.1101368478
H   H16       1.0  0.76430  0.71820  0.10900  1.0000 0.1101368478
H   H17       1.0  0.63440  0.67800  0.15740  1.0000 0.1298792579
H   H18       1.0  0.60010  0.62300  0.13220  1.0000 0.1383934458
H   H19       1.0  0.67270  0.76410  0.91160  1.0000 0.0923382132
H   H20       1.0  0.62350  0.70230  0.93440  1.0000 0.0987628606
H   H21       1.0  0.82180  0.63370  0.92190  1.0000 0.1183487637
H   H22       1.0  0.86940  0.69510  0.89880  1.0000 0.1101368478
H   H23       1.0  0.65370  0.63650  0.87900  1.0000 0.1383934458
H   H24       1.0  0.71060  0.69450  0.85530  1.0000 0.1298792579
H   H25       1.0  0.33280  0.71430  0.88450  1.0000 0.0923382132
H   H26       1.0  0.43720  0.73670  0.85550  1.0000 0.0987628606
H   H27       1.0  0.28000  0.70510  0.82280  1.0000 0.0987628606
H   H28       1.0  0.26210  0.78500  0.81720  1.0000 0.1101368478
H   H29       1.0  0.11630  0.72090  0.87130  1.0000 0.1298792579
H   H30       1.0  0.08810  0.79810  0.85710  1.0000 0.1383934458
H   H31       1.0  0.72820  0.88740  0.87170  1.0000 0.0987628606
H   H32       1.0  0.63650  0.95930  0.86990  1.0000 0.0987628606
H   H33       1.0  0.54480  0.93850  0.81730  1.0000 0.1183487637
H   H34       1.0  0.69810  0.91970  0.81120  1.0000 0.1298792579
H   H35       1.0  0.52210  0.83140  0.82720  1.0000 0.1298792579
H   H36       1.0  0.67330  0.80750  0.83230  1.0000 0.1383934458
H   H37       1.0  0.85010  0.87100  0.43900  1.0000 0.1101368478
H   H38       1.0  0.69920  0.86880  0.43410  1.0000 0.0987628606
H   H39       1.0  0.74290  0.78680  0.39490  1.0000 0.1101368478
H   H40       1.0  0.89170  0.77110  0.40510  1.0000 0.1101368478
H   H41       1.0  0.92400  0.87470  0.37200  1.0000 0.1383934458
H   H42       1.0  0.88000  0.82280  0.34650  1.0000 0.1298792579
H   H43       1.0  0.91820  0.78920  0.56190  1.0000 0.0987628606
H   H44       1.0  0.85830  0.73790  0.59000  1.0000 0.0923382132
H   H45       1.0  0.73770  0.87360  0.57400  1.0000 0.1183487637
H   H46       1.0  0.82280  0.84990  0.60910  1.0000 0.1183487637
H   H47       1.0  0.58200  0.80890  0.59520  1.0000 0.1383934458
H   H48       1.0  0.67010  0.77740  0.62870  1.0000 0.1298792579
H   H49       1.0  0.18970  0.35040  0.35360  1.0000 0.1101368478
H   H50       1.0  0.18980  0.40890  0.38030  1.0000 0.0923382132
H   H51       1.0  0.07920  0.48710  0.34190  1.0000 0.1183487637
H   H52       1.0  0.02080  0.43280  0.32110  1.0000 0.1183487637
H   H53       1.0  0.19020  0.48040  0.28700  1.0000 0.1183487637
H   H54       1.0  0.29060  0.44290  0.31640  1.0000 0.1383934458
H   H55       1.0  0.69740  0.27270  0.34070  1.0000 0.0923382132
H   H56       1.0  0.73070  0.23340  0.37920  1.0000 0.0923382132
H   H57       1.0  0.95480  0.21990  0.36300  1.0000 0.1298792579
H   H58       1.0  0.87560  0.18300  0.33700  1.0000 0.0814366781
H   H59       1.0  0.93170  0.31330  0.31720  1.0000 0.1383934458
H   H60       1.0  0.88150  0.26430  0.29100  1.0000 0.1298792579
H   H61       1.0  0.41440  0.61170  0.29690  1.0000 0.0923382132
H   H62       1.0  0.43000  0.68780  0.30180  1.0000 0.0987628606
H   H63       1.0  0.29540  0.69200  0.25370  1.0000 0.0987628606
H   H64       1.0  0.20610  0.72120  0.28660  1.0000 0.1101368478
H   H65       1.0  0.22180  0.59050  0.26150  1.0000 0.1383934458
H   H66       1.0  0.14820  0.61090  0.29850  1.0000 0.1383934458
H   H67       1.0  0.91170  0.69360  0.35500  1.0000 0.0923382132
H   H68       1.0  0.87200  0.64970  0.39010  1.0000 0.0987628606
H   H69       1.0  0.84860  0.56120  0.35390  1.0000 0.1101368478
H   H70       1.0  0.89580  0.60200  0.31870  1.0000 0.1183487637
H   H71       1.0  0.66360  0.61400  0.32160  1.0000 0.1298792579
H   H72       1.0  0.66250  0.64700  0.35950  1.0000 0.1298792579
H   H73       1.0  0.75190  0.07440  0.35490  1.0000 0.4010629677
H   H74       1.0  0.71590  0.10500  0.31830  1.0000 0.378584455
H   H75       1.0  0.45430  0.06130  0.26660  1.0000 0.3924077966
H   H76       1.0  0.49890  0.98410  0.26390  1.0000 0.3924077966
H   H77       1.0  0.47730  0.88830  0.38010  1.0000 0.1101368478
H   H78       1.0  0.23230  0.88160  0.32260  1.0000 0.1383934458
H   H79       1.0  0.18420  0.81900  0.34440  1.0000 0.1298792579
H   H80       1.0  0.30250  0.80710  0.31600  1.0000 0.1298792579
H   H81       1.0  0.42200  0.74390  0.37490  1.0000 0.1383934458
H   H82       1.0  0.29400  0.77030  0.39780  1.0000 0.1383934458
H   H83       1.0  0.42880  0.79120  0.40720  1.0000 0.1383934458
H   H84       1.0  0.94480  0.86900  0.26920  1.0000 0.378584455
H   H85       1.0  0.96600  0.79640  0.26450  1.0000 0.3924077966
H   H86       1.0  0.54940  0.71790  0.23910  1.0000 0.4010629677
H   H87       1.0  0.56860  0.64520  0.23170  1.0000 0.3924077966
H   H88       1.0  0.19620  0.57670  0.85270  1.0000 0.4010629677
H   H89       1.0  0.13950  0.61460  0.81740  1.0000 0.3924077966
H   H90       1.0  0.94920  0.55420  0.75460  1.0000 0.378584455
H   H91       1.0  0.97850  0.47350  0.75400  1.0000 0.378584455
H   H92       1.0  0.95780  0.37380  0.87060  1.0000 0.1101368478
H   H93       1.0  0.89190  0.22720  0.86650  1.0000 0.1383934458
H   H94       1.0  0.78560  0.25790  0.89520  1.0000 0.1383934458
H   H95       1.0  0.93010  0.27310  0.89630  1.0000 0.1383934458
H   H96       1.0  0.68890  0.36680  0.82180  1.0000 0.1383934458
H   H97       1.0  0.66570  0.29620  0.84060  1.0000 0.1298792579
H   H98       1.0  0.77240  0.29890  0.80890  1.0000 0.1383934458
H   H99       1.0  0.56650  0.28860  0.27930  1.0000 0.4072732869
H   H100      1.0  0.61950  0.21170  0.27150  1.0000 0.3924077966
H   H101      1.0  0.37090  0.13710  0.88680  1.0000 0.0987628606
H   H102      1.0  0.40910  0.18070  0.85140  1.0000 0.0987628606
H   H103      1.0  0.39400  0.08860  0.81550  1.0000 0.1101368478
H   H104      1.0  0.35000  0.04730  0.85100  1.0000 0.1101368478
H   H105      1.0  0.16130  0.13120  0.85710  1.0000 0.1298792579
H   H106      1.0  0.16240  0.09800  0.81920  1.0000 0.1298792579
H   H107      1.0  0.92970  0.16270  0.79630  1.0000 0.0987628606
H   H108      1.0  0.90540  0.08740  0.79340  1.0000 0.0923382132
H   H109      1.0  0.70580  0.20100  0.78270  1.0000 0.1101368478
H   H110      1.0  0.78840  0.16760  0.74980  1.0000 0.0987628606
H   H111      1.0  0.63240  0.09510  0.79720  1.0000 0.1383934458
H   H112      1.0  0.70220  0.06940  0.76070  1.0000 0.1383934458
H   H113      1.0  0.18270  0.37030  0.92820  1.0000 0.1101368478
H   H114      1.0  0.33240  0.37390  0.93380  1.0000 0.1101368478
H   H115      1.0  0.38490  0.27240  0.90090  1.0000 0.1101368478
H   H116      1.0  0.23570  0.28180  0.89100  1.0000 0.1101368478
H   H117      1.0  0.36560  0.32200  0.84260  1.0000 0.1298792579
H   H118      1.0  0.39990  0.37700  0.86780  1.0000 0.1383934458
H   H119      1.0  0.32730  0.23590  0.08840  1.0000 0.0923382132
H   H120      1.0  0.37650  0.29770  0.06560  1.0000 0.0987628606
H   H121      1.0  0.17820  0.36630  0.07810  1.0000 0.1183487637
H   H122      1.0  0.13060  0.30490  0.10120  1.0000 0.1101368478
H   H123      1.0  0.34630  0.36350  0.12100  1.0000 0.1383934458
H   H124      1.0  0.28940  0.30550  0.14470  1.0000 0.1298792579
H   H125      1.0  0.66720  0.28570  0.11550  1.0000 0.0923382132
H   H126      1.0  0.56280  0.26330  0.14450  1.0000 0.0987628606
H   H127      1.0  0.72000  0.29490  0.17720  1.0000 0.0987628606
H   H128      1.0  0.73790  0.21500  0.18280  1.0000 0.1101368478
H   H129      1.0  0.88370  0.27910  0.12870  1.0000 0.1298792579
H   H130      1.0  0.91190  0.20190  0.14290  1.0000 0.1383934458
H   H131      1.0  0.27180  0.11260  0.12830  1.0000 0.0987628606
H   H132      1.0  0.36350  0.04070  0.13010  1.0000 0.0987628606
H   H133      1.0  0.45520  0.06150  0.18270  1.0000 0.1183487637
H   H134      1.0  0.30190  0.08030  0.18880  1.0000 0.1298792579
H   H135      1.0  0.47790  0.16860  0.17280  1.0000 0.1298792579
H   H136      1.0  0.32670  0.19250  0.16770  1.0000 0.1383934458
H   H137      1.0  0.14990  0.12900  0.56100  1.0000 0.1101368478
H   H138      1.0  0.30080  0.13120  0.56590  1.0000 0.0987628606
H   H139      1.0  0.25710  0.21320  0.60510  1.0000 0.1101368478
H   H140      1.0  0.10830  0.22890  0.59490  1.0000 0.1101368478
H   H141      1.0  0.07600  0.12530  0.62800  1.0000 0.1383934458
H   H142      1.0  0.12000  0.17720  0.65350  1.0000 0.1298792579
H   H143      1.0  0.08180  0.21080  0.43810  1.0000 0.0987628606
H   H144      1.0  0.14170  0.26210  0.41000  1.0000 0.0923382132
H   H145      1.0  0.26230  0.12640  0.42600  1.0000 0.1183487637
H   H146      1.0  0.17720  0.15010  0.39090  1.0000 0.1183487637
H   H147      1.0  0.41800  0.19110  0.40480  1.0000 0.1383934458
H   H148      1.0  0.32990  0.22260  0.37130  1.0000 0.1298792579
H   H149      1.0  0.81030  0.64960  0.64640  1.0000 0.1101368478
H   H150      1.0  0.81020  0.59110  0.61970  1.0000 0.0923382132
H   H151      1.0  0.92080  0.51290  0.65810  1.0000 0.1101368478
H   H152      1.0  0.97920  0.56720  0.67890  1.0000 0.1183487637
H   H153      1.0  0.80980  0.51960  0.71300  1.0000 0.1183487637
H   H154      1.0  0.70940  0.55710  0.68360  1.0000 0.1383934458
H   H155      1.0  0.30260  0.72730  0.65930  1.0000 0.0923382132
H   H156      1.0  0.26930  0.76660  0.62080  1.0000 0.0923382132
H   H157      1.0  0.04520  0.78010  0.63700  1.0000 0.1298792579
H   H158      1.0  0.12440  0.81700  0.66300  1.0000 0.0814366781
H   H159      1.0  0.06830  0.68670  0.68280  1.0000 0.1383934458
H   H160      1.0  0.11850  0.73570  0.70900  1.0000 0.1298792579
H   H161      1.0  0.58560  0.38830  0.70310  1.0000 0.0923382132
H   H162      1.0  0.57000  0.31220  0.69820  1.0000 0.0987628606
H   H163      1.0  0.70460  0.30800  0.74630  1.0000 0.0987628606
H   H164      1.0  0.79390  0.27880  0.71340  1.0000 0.1101368478
H   H165      1.0  0.77820  0.40950  0.73850  1.0000 0.1383934458
H   H166      1.0  0.85180  0.38910  0.70150  1.0000 0.1383934458
H   H167      1.0  0.08830  0.30640  0.64500  1.0000 0.0923382132
H   H168      1.0  0.12800  0.35030  0.60990  1.0000 0.0987628606
H   H169      1.0  0.15140  0.43880  0.64610  1.0000 0.1101368478
H   H170      1.0  0.10420  0.39800  0.68130  1.0000 0.1183487637
H   H171      1.0  0.33640  0.38600  0.67840  1.0000 0.1298792579
H   H172      1.0  0.33750  0.35300  0.64050  1.0000 0.1298792579
H   H173      1.0  0.24810  0.92560  0.64510  1.0000 0.4010629677
H   H174      1.0  0.28410  0.89500  0.68170  1.0000 0.378584455
H   H175      1.0  0.54570  0.93870  0.73340  1.0000 0.3924077966
H   H176      1.0  0.50110  0.01590  0.73610  1.0000 0.3924077966
H   H177      1.0  0.52270  0.11170  0.61990  1.0000 0.1101368478
H   H178      1.0  0.76770  0.11840  0.67740  1.0000 0.1383934458
H   H179      1.0  0.81580  0.18100  0.65560  1.0000 0.1298792579
H   H180      1.0  0.69750  0.19290  0.68400  1.0000 0.1298792579
H   H181      1.0  0.57800  0.25610  0.62510  1.0000 0.1383934458
H   H182      1.0  0.70600  0.22970  0.60220  1.0000 0.1383934458
H   H183      1.0  0.57120  0.20880  0.59280  1.0000 0.1383934458
H   H184      1.0  0.05520  0.13100  0.73080  1.0000 0.378584455
H   H185      1.0  0.03400  0.20360  0.73550  1.0000 0.3924077966
H   H186      1.0  0.45060  0.28210  0.76090  1.0000 0.4010629677
H   H187      1.0  0.43140  0.35480  0.76830  1.0000 0.3924077966
H   H188      1.0  0.80380  0.42330  0.14730  1.0000 0.4072732869
H   H189      1.0  0.86050  0.38540  0.18260  1.0000 0.3924077966
H   H190      1.0  0.05080  0.44580  0.24540  1.0000 0.378584455
H   H191      1.0  0.02150  0.52650  0.24600  1.0000 0.378584455
H   H192      1.0  0.04220  0.62620  0.12940  1.0000 0.1101368478
H   H193      1.0  0.10810  0.77280  0.13350  1.0000 0.1383934458
H   H194      1.0  0.21440  0.74210  0.10480  1.0000 0.1383934458
H   H195      1.0  0.06990  0.72690  0.10370  1.0000 0.1383934458
H   H196      1.0  0.31110  0.63320  0.17820  1.0000 0.1383934458
H   H197      1.0  0.33430  0.70380  0.15940  1.0000 0.1298792579
H   H198      1.0  0.22760  0.70110  0.19110  1.0000 0.1383934458
H   H199      1.0  0.43350  0.71140  0.72070  1.0000 0.4072732869
H   H200      1.0  0.38050  0.78830  0.72850  1.0000 0.3924077966
C   C1        1.0  0.15680  0.90450  0.08121  1.0000 0.0591415788
C   C2        1.0  0.18410  0.86170  0.04960  1.0000 -0.0098001295
C   C3        1.0  0.06960  0.83700  0.04251  1.0000 -0.0098001295
C   C4        1.0  0.96420  0.86850  0.06537  1.0000 -0.0098001295
C   C5        1.0  0.01350  0.91340  0.08710  1.0000 -0.0386952237
C   C6        1.0  0.93980  0.97470  0.09374  1.0000 -0.0098001295
C   C7        1.0  0.99750  0.03660  0.09146  1.0000 -0.002302279
C   C8        1.0  0.12700  0.03500  0.08275  1.0000 -0.0184389948
C   C9        1.0  0.21850  0.97150  0.07897  1.0000 0.0591415788
C   C10       1.0  0.29820  0.98330  0.04545  1.0000 -0.002302279
C   C11       1.0  0.32750  0.93650  0.01975  1.0000 -0.002302279
C   C12       1.0  0.26900  0.87530  0.02155  1.0000 0.0073613927
C   C13       1.0  0.24690  0.86040  0.98583  1.0000 -0.0098001295
C   C14       1.0  0.13450  0.83550  0.97885  1.0000 -0.0098001295
C   C15       1.0  0.04770  0.82110  0.00744  1.0000 -0.0098001295
C   C16       1.0  0.91500  0.82990  0.99300  1.0000 0.0591415788
C   C17       1.0  0.79960  0.86440  0.01791  1.0000 0.0669652589
C   C18       1.0  0.83730  0.88460  0.05333  1.0000 -0.0318987675
C   C19       1.0  0.76240  0.94800  0.06009  1.0000 0.0019895156
C   C20       1.0  0.81010  0.99170  0.08137  1.0000 -0.0184389948
C   C21       1.0  0.77780  0.06620  0.07498  1.0000 0.0591415788
C   C22       1.0  0.90250  0.09060  0.07771  1.0000 -0.0318987675
C   C23       1.0  0.94070  0.13990  0.05356  1.0000 -0.0098001295
C   C24       1.0  0.07350  0.13850  0.04414  1.0000 -0.0318987675
C   C25       1.0  0.16560  0.08550  0.05754  1.0000 -0.0184389948
C   C26       1.0  0.27180  0.05310  0.03459  1.0000 -0.002302279
C   C27       1.0  0.28420  0.07460  0.99818  1.0000 -0.0184389948
C   C28       1.0  0.31370  0.02680  0.97196  1.0000 0.0019895156
C   C29       1.0  0.34010  0.95870  0.98225  1.0000 -0.0098001295
C   C30       1.0  0.30440  0.90650  0.95974  1.0000 0.0669652589
C   C31       1.0  0.25120  0.91640  0.10845  1.0000 -0.1922150112
C   C32       1.0  0.80540  0.79380  0.00625  1.0000 -0.1793330628
C   C33       1.0  0.35410  0.88960  0.92220  1.0000 -0.1793330628
C   C34       1.0  0.38620  0.87630  0.10903  1.0000 0.5178421848
C   C35       1.0  0.58630  0.86540  0.13735  1.0000 -0.0098001295
C   C36       1.0  0.65220  0.90720  0.16085  1.0000 -0.1490832106
C   C37       1.0  0.79330  0.87340  0.16666  1.0000 -0.3321194742
C   C38       1.0  0.80030  0.80500  0.18650  1.0000 0.6296192475
C   C39       1.0  0.19520  0.92870  0.14645  1.0000 0.5178421848
C   C40       1.0  0.13590  0.86710  0.20059  1.0000 -0.0184389948
C   C41       1.0  0.24690  0.84180  0.22558  1.0000 -0.1793330628
C   C42       1.0  0.34170  0.89040  0.22763  1.0000 -0.3321194742
C   C43       1.0  0.46140  0.86070  0.24844  1.0000 0.6199163341
C   C44       1.0  0.83100  0.73690  0.03522  1.0000 0.5178421848
C   C45       1.0  0.72970  0.65660  0.06975  1.0000 -0.0184389948
C   C46       1.0  0.69350  0.69390  0.10390  1.0000 -0.1793330628
C   C47       1.0  0.66790  0.64920  0.13764  1.0000 -0.3321194742
C   C48       1.0  0.78590  0.60160  0.15047  1.0000 0.6387035989
C   C49       1.0  0.71310  0.78400  0.97767  1.0000 0.5178421848
C   C50       1.0  0.70070  0.72210  0.92663  1.0000 -0.0098001295
C   C51       1.0  0.79260  0.67440  0.90599  1.0000 -0.1575280087
C   C52       1.0  0.73380  0.65450  0.87220  1.0000 -0.3321194742
C   C53       1.0  0.82730  0.60220  0.85345  1.0000 0.6387035989
C   C54       1.0  0.35720  0.81770  0.91267  1.0000 0.5178421848
C   C55       1.0  0.34700  0.74800  0.86466  1.0000 -0.0184389948
C   C56       1.0  0.25580  0.74710  0.83518  1.0000 -0.1575280087
C   C57       1.0  0.11760  0.75210  0.84952  1.0000 -0.3216013915
C   C58       1.0  0.02250  0.73650  0.82268  1.0000 0.6199163341
C   C59       1.0  0.46420  0.92280  0.90597  1.0000 0.5178421848
C   C60       1.0  0.64180  0.91180  0.86462  1.0000 -0.0184389948
C   C61       1.0  0.62290  0.90700  0.82516  1.0000 -0.1490832106
C   C62       1.0  0.60840  0.83880  0.81790  1.0000 -0.3321194742
C   C63       1.0  0.62160  0.81950  0.77930  1.0000 0.6387035989
C   C64       1.0  0.71230  0.63180  0.48494  1.0000 0.0669652589
C   C65       1.0  0.67110  0.61500  0.44915  1.0000 -0.0386952237
C   C66       1.0  0.74130  0.55150  0.44077  1.0000 -0.002302279
C   C67       1.0  0.81760  0.52160  0.47237  1.0000 -0.002302279
C   C68       1.0  0.79240  0.56800  0.49974  1.0000 -0.0184389948
C   C69       1.0  0.77930  0.54450  0.53561  1.0000 0.0019895156
C   C70       1.0  0.67610  0.57640  0.55939  1.0000 -0.0184389948
C   C71       1.0  0.58670  0.63220  0.54720  1.0000 -0.0318987675
C   C72       1.0  0.59920  0.66630  0.51057  1.0000 0.0591415788
C   C73       1.0  0.46630  0.67770  0.49643  1.0000 -0.0098001295
C   C74       1.0  0.44110  0.66610  0.46103  1.0000 -0.0098001295
C   C75       1.0  0.54470  0.63440  0.43729  1.0000 -0.0098001295
C   C76       1.0  0.49020  0.59280  0.41467  1.0000 -0.0386952237
C   C77       1.0  0.55970  0.53110  0.40678  1.0000 -0.0098001295
C   C78       1.0  0.68950  0.51080  0.41862  1.0000 -0.0184389948
C   C79       1.0  0.71500  0.43640  0.42360  1.0000 0.0591415788
C   C80       1.0  0.79740  0.40430  0.45759  1.0000 0.0669652589
C   C81       1.0  0.83860  0.45360  0.48106  1.0000 -0.002302279
C   C82       1.0  0.82530  0.42900  0.51810  1.0000 -0.0098001295
C   C83       1.0  0.80060  0.47380  0.54524  1.0000 -0.0184389948
C   C84       1.0  0.72020  0.46110  0.57842  1.0000 0.0591415788
C   C85       1.0  0.63350  0.52560  0.58317  1.0000 -0.0184389948
C   C86       1.0  0.50330  0.52880  0.59216  1.0000 -0.002302279
C   C87       1.0  0.41270  0.58480  0.57956  1.0000 -0.0318987675
C   C88       1.0  0.45390  0.63510  0.55656  1.0000 -0.0098001295
C   C89       1.0  0.37830  0.66360  0.52484  1.0000 -0.0098001295
C   C90       1.0  0.26400  0.64190  0.51720  1.0000 -0.0098001295
C   C91       1.0  0.23900  0.63040  0.48100  1.0000 0.0073613927
C   C92       1.0  0.32360  0.64440  0.45333  1.0000 -0.0184389948
C   C93       1.0  0.34720  0.60450  0.42105  1.0000 0.0531817388
C   C94       1.0  0.71060  0.70090  0.49755  1.0000 -0.1793330628
C   C95       1.0  0.84200  0.38890  0.41962  1.0000 -0.1724289513
C   C96       1.0  0.25140  0.59660  0.39329  1.0000 -0.1922150112
C   C97       1.0  0.68380  0.75990  0.46959  1.0000 0.5132170462
C   C98       1.0  0.78660  0.84140  0.43500  1.0000 -0.0184389948
C   C99       1.0  0.81770  0.80770  0.40066  1.0000 -0.1724289513
C   C100      1.0  0.85140  0.85200  0.36648  1.0000 -0.3321194742
C   C101      1.0  0.73880  0.90360  0.35432  1.0000 0.6387035989
C   C102      1.0  0.80560  0.70990  0.52585  1.0000 0.5178421848
C   C103      1.0  0.83670  0.77750  0.57265  1.0000 -0.0098001295
C   C104      1.0  0.76430  0.83550  0.59194  1.0000 -0.1418627657
C   C105      1.0  0.64550  0.81820  0.61249  1.0000 -0.3321194742
C   C106      1.0  0.58490  0.87560  0.63452  1.0000 0.6387035989
C   C107      1.0  0.95810  0.41680  0.40352  1.0000 0.5132170462
C   C108      1.0  0.13660  0.39060  0.36320  1.0000 -0.0098001295
C   C109      1.0  0.09930  0.44200  0.33253  1.0000 -0.1724289513
C   C110      1.0  0.20890  0.44080  0.30437  1.0000 -0.3355593599
C   C111      1.0  0.22360  0.37730  0.28430  1.0000 0.6519152664
C   C112      1.0  0.82940  0.31990  0.40790  1.0000 0.5178421848
C   C113      1.0  0.76300  0.26290  0.35979  1.0000 -0.0184389948
C   C114      1.0  0.88850  0.22730  0.34412  1.0000 -0.1793330628
C   C115      1.0  0.93760  0.26580  0.31176  1.0000 -0.3216013915
C   C116      1.0  0.07730  0.23820  0.30120  1.0000 0.6296192475
C   C117      1.0  0.30950  0.58850  0.35533  1.0000 0.5178421848
C   C118      1.0  0.36790  0.65590  0.30345  1.0000 -0.0318987675
C   C119      1.0  0.25880  0.68010  0.27782  1.0000 -0.1724289513
C   C120      1.0  0.17230  0.62840  0.27405  1.0000 -0.3321194742
C   C121      1.0  0.05030  0.65490  0.25346  1.0000 0.6296192475
C   C122      1.0  0.11740  0.63710  0.39354  1.0000 0.5178421848
C   C123      1.0  0.91510  0.64740  0.36599  1.0000 -0.0098001295
C   C124      1.0  0.84860  0.60660  0.34217  1.0000 -0.1490832106
C   C125      1.0  0.70870  0.64190  0.33592  1.0000 -0.3321194742
C   C126      1.0  0.70510  0.71050  0.31613  1.0000 0.6296192475
C   C127      1.0  0.41400  0.89030  0.36212  1.0000 0.2955173098
C   C128      1.0  0.25980  0.83670  0.33410  1.0000 -0.3355593599
C   C129      1.0  0.37560  0.78170  0.38760  1.0000 -0.3499121077
C   C130      1.0  0.89080  0.37520  0.85384  1.0000 0.2946838581
C   C131      1.0  0.86130  0.26600  0.88050  1.0000 -0.3499121077
C   C132      1.0  0.73070  0.32140  0.82970  1.0000 -0.3355593599
C   C133      1.0  0.84320  0.09550  0.91879  1.0000 0.0591415788
C   C134      1.0  0.81590  0.13830  0.95040  1.0000 -0.0098001295
C   C135      1.0  0.93040  0.16300  0.95749  1.0000 -0.0098001295
C   C136      1.0  0.03580  0.13150  0.93463  1.0000 -0.002302279
C   C137      1.0  0.98650  0.08660  0.91290  1.0000 -0.0386952237
C   C138      1.0  0.06020  0.02530  0.90626  1.0000 -0.0098001295
C   C139      1.0  0.00250  0.96340  0.90854  1.0000 0.0019895156
C   C140      1.0  0.87300  0.96500  0.91725  1.0000 -0.0184389948
C   C141      1.0  0.78150  0.02850  0.92103  1.0000 0.0591415788
C   C142      1.0  0.70180  0.01670  0.95455  1.0000 -0.002302279
C   C143      1.0  0.67250  0.06350  0.98025  1.0000 -0.002302279
C   C144      1.0  0.73100  0.12470  0.97845  1.0000 0.0073613927
C   C145      1.0  0.75310  0.13960  0.01417  1.0000 -0.0098001295
C   C146      1.0  0.86550  0.16450  0.02115  1.0000 -0.0098001295
C   C147      1.0  0.95230  0.17890  0.99256  1.0000 -0.0098001295
C   C148      1.0  0.08500  0.17010  0.00700  1.0000 0.0591415788
C   C149      1.0  0.20040  0.13560  0.98209  1.0000 0.0669652589
C   C150      1.0  0.16270  0.11540  0.94667  1.0000 -0.0318987675
C   C151      1.0  0.23760  0.05200  0.93991  1.0000 0.0019895156
C   C152      1.0  0.18990  0.00830  0.91863  1.0000 -0.0184389948
C   C153      1.0  0.22220  0.93380  0.92502  1.0000 0.0591415788
C   C154      1.0  0.09750  0.90940  0.92229  1.0000 -0.0318987675
C   C155      1.0  0.05930  0.86010  0.94644  1.0000 -0.0098001295
C   C156      1.0  0.92650  0.86150  0.95586  1.0000 -0.0318987675
C   C157      1.0  0.83440  0.91450  0.94246  1.0000 -0.0184389948
C   C158      1.0  0.72820  0.94690  0.96541  1.0000 0.0019895156
C   C159      1.0  0.71580  0.92540  0.00182  1.0000 -0.0184389948
C   C160      1.0  0.68630  0.97320  0.02804  1.0000 0.0019895156
C   C161      1.0  0.65990  0.04130  0.01775  1.0000 -0.0098001295
C   C162      1.0  0.69560  0.09350  0.04026  1.0000 0.0669652589
C   C163      1.0  0.74880  0.08360  0.89155  1.0000 -0.1922150112
C   C164      1.0  0.19460  0.20620  0.99375  1.0000 -0.1793330628
C   C165      1.0  0.64590  0.11040  0.07780  1.0000 -0.1793330628
C   C166      1.0  0.61380  0.12370  0.89097  1.0000 0.5178421848
C   C167      1.0  0.41370  0.13460  0.86265  1.0000 -0.0098001295
C   C168      1.0  0.34780  0.09280  0.83915  1.0000 -0.1490832106
C   C169      1.0  0.20670  0.12660  0.83334  1.0000 -0.3321194742
C   C170      1.0  0.19970  0.19500  0.81350  1.0000 0.6296192475
C   C171      1.0  0.80480  0.07130  0.85355  1.0000 0.5178421848
C   C172      1.0  0.86410  0.13290  0.79941  1.0000 -0.0184389948
C   C173      1.0  0.75310  0.15820  0.77442  1.0000 -0.1793330628
C   C174      1.0  0.65830  0.10960  0.77237  1.0000 -0.3321194742
C   C175      1.0  0.53860  0.13930  0.75156  1.0000 0.6199163341
C   C176      1.0  0.16900  0.26310  0.96478  1.0000 0.5178421848
C   C177      1.0  0.27030  0.34340  0.93025  1.0000 -0.0184389948
C   C178      1.0  0.30650  0.30610  0.89610  1.0000 -0.1793330628
C   C179      1.0  0.33210  0.35080  0.86236  1.0000 -0.3321194742
C   C180      1.0  0.21410  0.39840  0.84953  1.0000 0.6387035989
C   C181      1.0  0.28690  0.21600  0.02233  1.0000 0.5178421848
C   C182      1.0  0.29930  0.27790  0.07337  1.0000 -0.0098001295
C   C183      1.0  0.20740  0.32560  0.09401  1.0000 -0.1490832106
C   C184      1.0  0.26620  0.34550  0.12780  1.0000 -0.3321194742
C   C185      1.0  0.17270  0.39780  0.14655  1.0000 0.6387035989
C   C186      1.0  0.64280  0.18230  0.08733  1.0000 0.5178421848
C   C187      1.0  0.65300  0.25200  0.13534  1.0000 -0.0184389948
C   C188      1.0  0.74420  0.25290  0.16482  1.0000 -0.1575280087
C   C189      1.0  0.88240  0.24790  0.15048  1.0000 -0.3216013915
C   C190      1.0  0.97750  0.26350  0.17732  1.0000 0.6199163341
C   C191      1.0  0.53580  0.07720  0.09403  1.0000 0.5178421848
C   C192      1.0  0.35820  0.08820  0.13538  1.0000 -0.0184389948
C   C193      1.0  0.37710  0.09300  0.17484  1.0000 -0.1490832106
C   C194      1.0  0.39160  0.16120  0.18210  1.0000 -0.3321194742
C   C195      1.0  0.37840  0.18050  0.22070  1.0000 0.6387035989
C   C196      1.0  0.28770  0.36820  0.51506  1.0000 0.0669652589
C   C197      1.0  0.32890  0.38500  0.55085  1.0000 -0.0386952237
C   C198      1.0  0.25870  0.44850  0.55923  1.0000 -0.002302279
C   C199      1.0  0.18240  0.47840  0.52763  1.0000 -0.002302279
C   C200      1.0  0.20760  0.43200  0.50026  1.0000 -0.0184389948
C   C201      1.0  0.22070  0.45550  0.46439  1.0000 0.0019895156
C   C202      1.0  0.32390  0.42360  0.44061  1.0000 -0.0184389948
C   C203      1.0  0.41330  0.36780  0.45280  1.0000 -0.0318987675
C   C204      1.0  0.40080  0.33370  0.48943  1.0000 0.0591415788
C   C205      1.0  0.53370  0.32230  0.50357  1.0000 -0.0098001295
C   C206      1.0  0.55890  0.33390  0.53897  1.0000 -0.0098001295
C   C207      1.0  0.45530  0.36560  0.56271  1.0000 -0.0098001295
C   C208      1.0  0.50980  0.40720  0.58533  1.0000 -0.0386952237
C   C209      1.0  0.44030  0.46890  0.59322  1.0000 -0.0098001295
C   C210      1.0  0.31050  0.48920  0.58138  1.0000 -0.0184389948
C   C211      1.0  0.28500  0.56360  0.57640  1.0000 0.0591415788
C   C212      1.0  0.20260  0.59570  0.54241  1.0000 0.0669652589
C   C213      1.0  0.16140  0.54640  0.51894  1.0000 -0.002302279
C   C214      1.0  0.17470  0.57100  0.48190  1.0000 -0.0098001295
C   C215      1.0  0.19940  0.52620  0.45476  1.0000 -0.0184389948
C   C216      1.0  0.27980  0.53890  0.42158  1.0000 0.0591415788
C   C217      1.0  0.36650  0.47440  0.41683  1.0000 -0.0184389948
C   C218      1.0  0.49670  0.47120  0.40784  1.0000 -0.002302279
C   C219      1.0  0.58730  0.41520  0.42044  1.0000 -0.0318987675
C   C220      1.0  0.54610  0.36490  0.44344  1.0000 -0.0098001295
C   C221      1.0  0.62170  0.33640  0.47516  1.0000 -0.0098001295
C   C222      1.0  0.73600  0.35810  0.48280  1.0000 -0.0098001295
C   C223      1.0  0.76100  0.36960  0.51900  1.0000 0.0073613927
C   C224      1.0  0.67640  0.35560  0.54667  1.0000 -0.0184389948
C   C225      1.0  0.65280  0.39550  0.57895  1.0000 0.0531817388
C   C226      1.0  0.28940  0.29910  0.50245  1.0000 -0.1793330628
C   C227      1.0  0.15800  0.61110  0.58038  1.0000 -0.1793330628
C   C228      1.0  0.74860  0.40340  0.60671  1.0000 -0.1922150112
C   C229      1.0  0.31620  0.24010  0.53041  1.0000 0.5132170462
C   C230      1.0  0.21340  0.15860  0.56500  1.0000 -0.0184389948
C   C231      1.0  0.18230  0.19230  0.59934  1.0000 -0.1724289513
C   C232      1.0  0.14860  0.14800  0.63352  1.0000 -0.3321194742
C   C233      1.0  0.26120  0.09640  0.64568  1.0000 0.6387035989
C   C234      1.0  0.19440  0.29010  0.47415  1.0000 0.5178421848
C   C235      1.0  0.16330  0.22250  0.42735  1.0000 -0.0098001295
C   C236      1.0  0.23570  0.16450  0.40806  1.0000 -0.1418627657
C   C237      1.0  0.35450  0.18180  0.38751  1.0000 -0.3321194742
C   C238      1.0  0.41510  0.12440  0.36548  1.0000 0.6387035989
C   C239      1.0  0.04190  0.58320  0.59648  1.0000 0.5132170462
C   C240      1.0  0.86340  0.60940  0.63680  1.0000 -0.0098001295
C   C241      1.0  0.90070  0.55800  0.66747  1.0000 -0.1724289513
C   C242      1.0  0.79110  0.55920  0.69563  1.0000 -0.3355593599
C   C243      1.0  0.77640  0.62270  0.71570  1.0000 0.6519152664
C   C244      1.0  0.17060  0.68010  0.59210  1.0000 0.5178421848
C   C245      1.0  0.23700  0.73710  0.64021  1.0000 -0.0184389948
C   C246      1.0  0.11150  0.77270  0.65588  1.0000 -0.1793330628
C   C247      1.0  0.06240  0.73420  0.68824  1.0000 -0.3216013915
C   C248      1.0  0.92270  0.76180  0.69880  1.0000 0.6296192475
C   C249      1.0  0.69050  0.41150  0.64467  1.0000 0.5178421848
C   C250      1.0  0.63210  0.34410  0.69655  1.0000 -0.0318987675
C   C251      1.0  0.74120  0.31990  0.72218  1.0000 -0.1724289513
C   C252      1.0  0.82770  0.37160  0.72595  1.0000 -0.3321194742
C   C253      1.0  0.94970  0.34510  0.74654  1.0000 0.6296192475
C   C254      1.0  0.88260  0.36290  0.60646  1.0000 0.5178421848
C   C255      1.0  0.08490  0.35260  0.63401  1.0000 -0.0098001295
C   C256      1.0  0.15140  0.39340  0.65783  1.0000 -0.1490832106
C   C257      1.0  0.29130  0.35810  0.66408  1.0000 -0.3321194742
C   C258      1.0  0.29490  0.28950  0.68387  1.0000 0.6296192475
C   C259      1.0  0.58600  0.10970  0.63788  1.0000 0.2946838581
C   C260      1.0  0.74020  0.16330  0.66590  1.0000 -0.3321194742
C   C261      1.0  0.62440  0.21830  0.61240  1.0000 -0.3499121077
C   C262      1.0  0.10920  0.62480  0.14616  1.0000 0.2946838581
C   C263      1.0  0.13870  0.73400  0.11950  1.0000 -0.3499121077
C   C264      1.0  0.26930  0.67860  0.17030  1.0000 -0.3355593599
N   N1        1.0  0.34900  0.84000  0.36254  1.0000 0.0531817388
N   N2        1.0  0.82620  0.32510  0.85596  1.0000 0.0531817388
N   N3        1.0  0.65100  0.16000  0.63746  1.0000 0.0531817388
N   N4        1.0  0.17380  0.67490  0.14404  1.0000 0.0531817388
O   O1        1.0  0.42690  0.83220  0.08975  1.0000 -0.4395794905
O   O2        1.0  0.45220  0.89791  0.13415  1.0000 -0.2189502097
O   O3        1.0  0.85060  0.75320  0.17139  1.0000 -0.5579898812
O   O4        1.0  0.75250  0.80131  0.21831  1.0000 -0.6106722114
O   O5        1.0  0.16750  0.98179  0.15871  1.0000 -0.4292806245
O   O6        1.0  0.18460  0.86887  0.16315  1.0000 -0.239781507
O   O7        1.0  0.48560  0.80044  0.25844  1.0000 -0.5579898812
O   O8        1.0  0.53860  0.90150  0.25433  1.0000 -0.5795061148
O   O9        1.0  0.92820  0.72090  0.05128  1.0000 -0.4292806245
O   O10       1.0  0.72590  0.70710  0.03926  1.0000 -0.2189502097
O   O11       1.0  0.85010  0.56330  0.12900  1.0000 -0.5579898812
O   O12       1.0  0.81720  0.59820  0.18360  1.0000 -0.5959553874
O   O13       1.0  0.60850  0.81639  0.97242  1.0000 -0.4201860882
O   O14       1.0  0.77090  0.73505  0.95786  1.0000 -0.2036466605
O   O15       1.0  0.88880  0.55400  0.87200  1.0000 -0.5513443582
O   O16       1.0  0.84430  0.60870  0.81955  1.0000 -0.6106722114
O   O17       1.0  0.38400  0.76969  0.93316  1.0000 -0.4292806245
O   O18       1.0  0.32500  0.81568  0.87824  1.0000 -0.2470593906
O   O19       1.0  0.06310  0.69340  0.79969  1.0000 -0.5907035477
O   O20       1.0  0.90770  0.76420  0.82394  1.0000 -0.5513443582
O   O21       1.0  0.47650  0.97952  0.91112  1.0000 -0.4395794905
O   O22       1.0  0.54040  0.88230  0.88523  1.0000 -0.2318081676
O   O23       1.0  0.60980  0.85930  0.75220  1.0000 -0.5513443582
O   O24       1.0  0.65370  0.75640  0.77618  1.0000 -0.6106722114
O   O25       1.0  0.58420  0.78070  0.45667  1.0000 -0.4201860882
O   O26       1.0  0.79260  0.78710  0.46439  1.0000 -0.2189502097
O   O27       1.0  0.68090  0.94140  0.37717  1.0000 -0.5579898812
O   O28       1.0  0.70650  0.91131  0.32114  1.0000 -0.5907035477
O   O29       1.0  0.90690  0.67496  0.53147  1.0000 -0.4201860882
O   O30       1.0  0.75550  0.76217  0.54443  1.0000 -0.2036466605
O   O31       1.0  0.57290  0.86780  0.66832  1.0000 -0.6106722114
O   O32       1.0  0.54760  0.93130  0.61837  1.0000 -0.5408759929
O   O33       1.0  0.98290  0.47051  0.40857  1.0000 -0.4292806245
O   O34       1.0  0.02460  0.37150  0.38233  1.0000 -0.2318081676
O   O35       1.0  0.14140  0.37690  0.26026  1.0000 -0.5731115398
O   O36       1.0  0.31150  0.33070  0.29314  1.0000 -0.5731115398
O   O37       1.0  0.85410  0.26855  0.42627  1.0000 -0.4292806245
O   O38       1.0  0.78160  0.32582  0.37453  1.0000 -0.2189502097
O   O39       1.0  0.15900  0.22970  0.32539  1.0000 -0.5408759929
O   O40       1.0  0.10720  0.22740  0.26867  1.0000 -0.6106722114
O   O41       1.0  0.34660  0.53745  0.34219  1.0000 -0.4144438959
O   O42       1.0  0.31440  0.65057  0.34034  1.0000 -0.239781507
O   O43       1.0  0.02380  0.71530  0.24217  1.0000 -0.5795061148
O   O44       1.0  0.97410  0.61315  0.24958  1.0000 -0.5731115398
O   O45       1.0  0.07930  0.68240  0.41226  1.0000 -0.4292806245
O   O46       1.0  0.04850  0.61415  0.36928  1.0000 -0.2189502097
O   O47       1.0  0.76150  0.71391  0.28540  1.0000 -0.6106722114
O   O48       1.0  0.65060  0.76150  0.33055  1.0000 -0.5513443582
O   O49       1.0  0.72930  0.06450  0.33228  1.0000 -0.7018166042
O   O50       1.0  0.52430  0.02350  0.27547  1.0000 -0.7706333107
O   O51       1.0  0.39930  0.93970  0.34029  1.0000 -0.4711976356
O   O52       1.0  0.92340  0.82900  0.27848  1.0000 -0.7198147929
O   O53       1.0  0.59270  0.68650  0.22365  1.0000 -0.7266714431
O   O54       1.0  0.16750  0.56880  0.82847  1.0000 -0.7564235188
O   O55       1.0  0.00820  0.51180  0.76826  1.0000 -0.7706333107
O   O56       1.0  0.87110  0.42430  0.83148  1.0000 -0.4711976356
O   O57       1.0  0.55430  0.24000  0.28857  1.0000 -0.7499997473
O   O58       1.0  0.57310  0.16780  0.91025  1.0000 -0.4395794905
O   O59       1.0  0.54780  0.10209  0.86585  1.0000 -0.2189502097
O   O60       1.0  0.14940  0.24680  0.82861  1.0000 -0.5579898812
O   O61       1.0  0.24750  0.19869  0.78169  1.0000 -0.6106722114
O   O62       1.0  0.83250  0.01821  0.84129  1.0000 -0.4201860882
O   O63       1.0  0.81540  0.13113  0.83685  1.0000 -0.239781507
O   O64       1.0  0.51440  0.19956  0.74156  1.0000 -0.5579898812
O   O65       1.0  0.46140  0.09850  0.74567  1.0000 -0.5795061148
O   O66       1.0  0.07180  0.27910  0.94872  1.0000 -0.4292806245
O   O67       1.0  0.27410  0.29290  0.96074  1.0000 -0.2189502097
O   O68       1.0  0.14990  0.43670  0.87100  1.0000 -0.5579898812
O   O69       1.0  0.18280  0.40180  0.81640  1.0000 -0.5959553874
O   O70       1.0  0.39150  0.18361  0.02758  1.0000 -0.4201860882
O   O71       1.0  0.22910  0.26495  0.04214  1.0000 -0.2036466605
O   O72       1.0  0.11120  0.44600  0.12800  1.0000 -0.5513443582
O   O73       1.0  0.15570  0.39130  0.18045  1.0000 -0.6106722114
O   O74       1.0  0.61600  0.23031  0.06684  1.0000 -0.4292806245
O   O75       1.0  0.67500  0.18432  0.12176  1.0000 -0.2470593906
O   O76       1.0  0.93690  0.30660  0.20031  1.0000 -0.5907035477
O   O77       1.0  0.09230  0.23580  0.17606  1.0000 -0.5513443582
O   O78       1.0  0.52350  0.02048  0.08888  1.0000 -0.4395794905
O   O79       1.0  0.45960  0.11770  0.11477  1.0000 -0.2318081676
O   O80       1.0  0.39020  0.14070  0.24780  1.0000 -0.5408759929
O   O81       1.0  0.34630  0.24360  0.22382  1.0000 -0.6106722114
O   O82       1.0  0.41580  0.21930  0.54333  1.0000 -0.4201860882
O   O83       1.0  0.20740  0.21290  0.53561  1.0000 -0.2189502097
O   O84       1.0  0.31910  0.05860  0.62283  1.0000 -0.5513443582
O   O85       1.0  0.29350  0.08869  0.67886  1.0000 -0.5907035477
O   O86       1.0  0.09310  0.32504  0.46853  1.0000 -0.4201860882
O   O87       1.0  0.24450  0.23783  0.45557  1.0000 -0.2036466605
O   O88       1.0  0.42710  0.13220  0.33168  1.0000 -0.6106722114
O   O89       1.0  0.45240  0.06870  0.38163  1.0000 -0.5408759929
O   O90       1.0  0.01710  0.52949  0.59143  1.0000 -0.4292806245
O   O91       1.0  0.97540  0.62850  0.61767  1.0000 -0.2318081676
O   O92       1.0  0.85860  0.62310  0.73974  1.0000 -0.5731115398
O   O93       1.0  0.68850  0.66930  0.70686  1.0000 -0.5731115398
O   O94       1.0  0.14590  0.73145  0.57373  1.0000 -0.4292806245
O   O95       1.0  0.21840  0.67418  0.62547  1.0000 -0.2189502097
O   O96       1.0  0.84100  0.77030  0.67461  1.0000 -0.5408759929
O   O97       1.0  0.89280  0.77260  0.73133  1.0000 -0.6106722114
O   O98       1.0  0.65340  0.46255  0.65781  1.0000 -0.4144438959
O   O99       1.0  0.68560  0.34943  0.65966  1.0000 -0.239781507
O   O100      1.0  0.97620  0.28470  0.75783  1.0000 -0.5795061148
O   O101      1.0  0.02590  0.38685  0.75042  1.0000 -0.5731115398
O   O102      1.0  0.92070  0.31760  0.58774  1.0000 -0.4395794905
O   O103      1.0  0.95150  0.38585  0.63072  1.0000 -0.2189502097
O   O104      1.0  0.23850  0.28609  0.71460  1.0000 -0.6106722114
O   O105      1.0  0.34940  0.23850  0.66945  1.0000 -0.5513443582
O   O106      1.0  0.27070  0.93550  0.66772  1.0000 -0.7018166042
O   O107      1.0  0.47570  0.97650  0.72453  1.0000 -0.7706333107
O   O108      1.0  0.60070  0.06030  0.65971  1.0000 -0.4711976356
O   O109      1.0  0.07660  0.17100  0.72152  1.0000 -0.7198147929
O   O110      1.0  0.40730  0.31350  0.77635  1.0000 -0.7266714431
O   O111      1.0  0.83250  0.43120  0.17153  1.0000 -0.7564235188
O   O112      1.0  0.99180  0.48820  0.23174  1.0000 -0.7706333107
O   O113      1.0  0.12890  0.57570  0.16852  1.0000 -0.4711976356
O   O114      1.0  0.44570  0.76000  0.71143  1.0000 -0.7499997473
