# DDEC6 charges by PACMAN v1.1 (https://github.com/mtap-research/PACMAN-charge/)
data_2017[Cu][kgd]2[FSR]1
_chemical_formula_sum              "Cu4 H72 C114 N4 O60"
_cell_length_a       12.865
_cell_length_b       16.2889
_cell_length_c       20.1106
_cell_angle_alpha    111.308
_cell_angle_beta     101.254
_cell_angle_gamma    90.736

_symmetry_space_group_name_H-M    "P 1"
_symmetry_Int_Tables_number       1

loop_
  _symmetry_equiv_pos_as_xyz
  'x, y, z'

loop_
  _atom_site_type_symbol
  _atom_site_label
  _atom_site_symmetry_multiplicity
  _atom_site_fract_x
  _atom_site_fract_y
  _atom_site_fract_z
  _atom_site_occupancy
  _atom_site_charge
Cu  Cu1       1.0  0.19576  0.13433  0.41427  1.0000 0.9669106864
Cu  Cu2       1.0  0.97776  0.98953  0.88274  1.0000 0.9155580663
Cu  Cu3       1.0  0.80424  0.86567  0.58573  1.0000 0.9669106864
Cu  Cu4       1.0  0.02224  0.01047  0.11726  1.0000 0.9155580663
H   H1        1.0  0.90300  0.50050  0.76120  1.0000 0.1387128056
H   H2        1.0  0.87430  0.46400  0.81980  1.0000 0.1387128056
H   H3        1.0  0.06680  0.30500  0.73300  1.0000 0.3808846735
H   H4        1.0  0.94350  0.73730  0.07570  1.0000 0.1304947191
H   H5        1.0  0.86200  0.73420  0.00360  1.0000 0.1236348861
H   H6        1.0  0.34570  0.02220  0.57490  1.0000 0.1387128056
H   H7        1.0  0.42350  0.10880  0.59430  1.0000 0.1304947191
H   H8        1.0  0.20020  0.06680  0.85770  1.0000 0.1387128056
H   H9        1.0  0.24090  0.99960  0.78920  1.0000 0.1304947191
H   H10       1.0  0.50810  0.77520  0.68050  1.0000 0.1005892568
H   H11       1.0  0.42690  0.78900  0.73410  1.0000 0.1387128056
H   H12       1.0  0.28600  0.65600  0.54600  1.0000 0.3454633617
H   H13       1.0  0.82470  0.72260  0.78620  1.0000 0.1304947191
H   H14       1.0  0.88790  0.70850  0.85790  1.0000 0.1387128056
H   H15       1.0  0.15920  0.96670  0.39410  1.0000 0.4306962453
H   H16       1.0  0.08310  0.98430  0.33410  1.0000 0.4020992258
H   H17       1.0  0.40000  0.19090  0.40770  1.0000 0.4020992258
H   H18       1.0  0.32380  0.16350  0.33400  1.0000 0.4020992258
H   H19       1.0  0.05740  0.10330  0.29530  1.0000 0.4020992258
H   H20       1.0  0.05480  0.19620  0.34960  1.0000 0.4132874423
H   H21       1.0  0.07990  0.92740  0.97620  1.0000 0.4020992258
H   H22       1.0  0.12650  0.02080  0.99450  1.0000 0.4020992258
H   H23       1.0  0.28660  0.28010  0.55510  1.0000 0.1106597893
H   H24       1.0  0.09040  0.39020  0.49280  1.0000 0.1304947191
H   H25       1.0  0.14380  0.48390  0.55240  1.0000 0.1304947191
H   H26       1.0  0.05890  0.42730  0.57080  1.0000 0.1304947191
H   H27       1.0  0.30320  0.38430  0.66410  1.0000 0.1387128056
H   H28       1.0  0.19870  0.43370  0.67980  1.0000 0.1387128056
H   H29       1.0  0.29120  0.47940  0.65850  1.0000 0.1472903901
H   H30       1.0  0.90470  0.10370  0.80930  1.0000 0.08878937
H   H31       1.0  0.60650  0.04410  0.72620  1.0000 0.1304947191
H   H32       1.0  0.60740  0.12160  0.80310  1.0000 0.1304947191
H   H33       1.0  0.64960  0.02880  0.80070  1.0000 0.1472903901
H   H34       1.0  0.72420  0.22300  0.77320  1.0000 0.1387128056
H   H35       1.0  0.72840  0.14760  0.69620  1.0000 0.1304947191
H   H36       1.0  0.83620  0.19100  0.75540  1.0000 0.1387128056
H   H37       1.0  0.09700  0.49950  0.23880  1.0000 0.1387128056
H   H38       1.0  0.12570  0.53600  0.18020  1.0000 0.1387128056
H   H39       1.0  0.93320  0.69500  0.26700  1.0000 0.3808846735
H   H40       1.0  0.05650  0.26270  0.92430  1.0000 0.1304947191
H   H41       1.0  0.13800  0.26580  0.99640  1.0000 0.1236348861
H   H42       1.0  0.65430  0.97780  0.42510  1.0000 0.1387128056
H   H43       1.0  0.57650  0.89120  0.40570  1.0000 0.1304947191
H   H44       1.0  0.79980  0.93320  0.14230  1.0000 0.1387128056
H   H45       1.0  0.75910  0.00040  0.21080  1.0000 0.1304947191
H   H46       1.0  0.49190  0.22480  0.31950  1.0000 0.1005892568
H   H47       1.0  0.57310  0.21100  0.26590  1.0000 0.1387128056
H   H48       1.0  0.71400  0.34400  0.45400  1.0000 0.3454633617
H   H49       1.0  0.17530  0.27740  0.21380  1.0000 0.1304947191
H   H50       1.0  0.11210  0.29150  0.14210  1.0000 0.1387128056
H   H51       1.0  0.84080  0.03330  0.60590  1.0000 0.4306962453
H   H52       1.0  0.91690  0.01570  0.66590  1.0000 0.4020992258
H   H53       1.0  0.60000  0.80910  0.59230  1.0000 0.4020992258
H   H54       1.0  0.67620  0.83650  0.66600  1.0000 0.4020992258
H   H55       1.0  0.94260  0.89670  0.70470  1.0000 0.4020992258
H   H56       1.0  0.94520  0.80380  0.65040  1.0000 0.4132874423
H   H57       1.0  0.92010  0.07260  0.02380  1.0000 0.4020992258
H   H58       1.0  0.87350  0.97920  0.00550  1.0000 0.4020992258
H   H59       1.0  0.71340  0.71990  0.44490  1.0000 0.1106597893
H   H60       1.0  0.90960  0.60980  0.50720  1.0000 0.1304947191
H   H61       1.0  0.85620  0.51610  0.44760  1.0000 0.1304947191
H   H62       1.0  0.94110  0.57270  0.42920  1.0000 0.1304947191
H   H63       1.0  0.69680  0.61570  0.33590  1.0000 0.1387128056
H   H64       1.0  0.80130  0.56630  0.32020  1.0000 0.1387128056
H   H65       1.0  0.70880  0.52060  0.34150  1.0000 0.1472903901
H   H66       1.0  0.09530  0.89630  0.19070  1.0000 0.08878937
H   H67       1.0  0.39350  0.95590  0.27380  1.0000 0.1304947191
H   H68       1.0  0.39260  0.87840  0.19690  1.0000 0.1304947191
H   H69       1.0  0.35040  0.97120  0.19930  1.0000 0.1472903901
H   H70       1.0  0.27580  0.77700  0.22680  1.0000 0.1387128056
H   H71       1.0  0.27160  0.85240  0.30380  1.0000 0.1304947191
H   H72       1.0  0.16380  0.80900  0.24460  1.0000 0.1387128056
C   C1        1.0  0.26630  0.52350  0.88378  1.0000 -0.0304009779
C   C2        1.0  0.26450  0.43230  0.86382  1.0000 -0.0100323421
C   C3        1.0  0.33790  0.38420  0.82335  1.0000 -0.0304009779
C   C4        1.0  0.41720  0.43010  0.80859  1.0000 -0.0028328661
C   C5        1.0  0.41930  0.52380  0.82845  1.0000 -0.0100323421
C   C6        1.0  0.34710  0.56980  0.86793  1.0000 0.0080385446
C   C7        1.0  0.37940  0.65390  0.93008  1.0000 0.0027891702
C   C8        1.0  0.31890  0.65900  0.98360  1.0000 -0.0028328661
C   C9        1.0  0.23680  0.58180  0.95208  1.0000 0.0513246563
C   C10       1.0  0.21510  0.53630  0.00636  1.0000 0.0738296993
C   C11       1.0  0.22750  0.43940  0.98245  1.0000 -0.0100323421
C   C12       1.0  0.24460  0.39010  0.91411  1.0000 -0.0100323421
C   C13       1.0  0.30700  0.31639  0.90397  1.0000 -0.0418663919
C   C14       1.0  0.35770  0.30400  0.84121  1.0000 0.0603110013
C   C15       1.0  0.47590  0.27720  0.84993  1.0000 0.0603110013
C   C16       1.0  0.55570  0.33640  0.83947  1.0000 -0.0304009779
C   C17       1.0  0.52640  0.40610  0.81672  1.0000 0.0027891702
C   C18       1.0  0.59610  0.48490  0.84236  1.0000 -0.0228205211
C   C19       1.0  0.53140  0.55980  0.84214  1.0000 0.0603110013
C   C20       1.0  0.56650  0.65100  0.90933  1.0000 0.0603110013
C   C21       1.0  0.48490  0.69013  0.95151  1.0000 -0.0028328661
C   C22       1.0  0.53390  0.72647  0.02731  1.0000 -0.0100323421
C   C23       1.0  0.47570  0.73100  0.07961  1.0000 -0.0100323421
C   C24       1.0  0.36770  0.69460  0.05737  1.0000 -0.0028328661
C   C25       1.0  0.34830  0.65180  0.10745  1.0000 0.0027891702
C   C26       1.0  0.27970  0.57540  0.08254  1.0000 0.0027891702
C   C27       1.0  0.31010  0.50510  0.10644  1.0000 -0.0100323421
C   C28       1.0  0.27760  0.42040  0.04426  1.0000 -0.0100323421
C   C29       1.0  0.33870  0.34900  0.03500  1.0000 -0.0304009779
C   C30       1.0  0.35540  0.29747  0.96422  1.0000 -0.0028328661
C   C31       1.0  0.12730  0.57510  0.96890  1.0000 -0.1782253297
C   C32       1.0  0.38490  0.21540  0.79250  1.0000 -0.1782253297
C   C33       1.0  0.57150  0.64180  0.83229  1.0000 -0.1678777647
C   C34       1.0  0.04090  0.50900  0.91053  1.0000 0.5201662444
C   C35       1.0  0.93150  0.47080  0.79520  1.0000 -0.1891771272
C   C36       1.0  0.95910  0.37940  0.75090  1.0000 0.5922885203
C   C37       1.0  0.08610  0.65830  0.01494  1.0000 0.5324510001
C   C38       1.0  0.93840  0.73930  0.02650  1.0000 -0.1614834877
C   C39       1.0  0.98970  0.82790  0.03476  1.0000 0.6125940942
C   C40       1.0  0.38060  0.19840  0.71331  1.0000 0.5201662444
C   C41       1.0  0.35270  0.08770  0.59730  1.0000 -0.1614834877
C   C42       1.0  0.26760  0.12240  0.55310  1.0000 0.5955200457
C   C43       1.0  0.34870  0.13520  0.80703  1.0000 0.5136059983
C   C44       1.0  0.19810  0.05060  0.80500  1.0000 -0.1678777647
C   C45       1.0  0.08430  0.02460  0.76240  1.0000 0.6182521694
C   C46       1.0  0.49240  0.68580  0.79332  1.0000 0.5324510001
C   C47       1.0  0.46530  0.74460  0.70190  1.0000 -0.1678777647
C   C48       1.0  0.38660  0.67550  0.64200  1.0000 0.6182521694
C   C49       1.0  0.68180  0.64390  0.81636  1.0000 0.5201662444
C   C50       1.0  0.83250  0.74140  0.83970  1.0000 -0.1614834877
C   C51       1.0  0.86340  0.84020  0.87668  1.0000 0.6125940942
C   C52       1.0  0.23000  0.30490  0.53300  1.0000 0.3022884467
C   C53       1.0  0.11690  0.42400  0.54510  1.0000 -0.30705503
C   C54       1.0  0.25290  0.42300  0.65020  1.0000 -0.3460468388
C   C55       1.0  0.83790  0.07720  0.80810  1.0000 0.3022884467
C   C56       1.0  0.64520  0.07220  0.77720  1.0000 -0.3237234689
C   C57       1.0  0.76100  0.17210  0.74860  1.0000 -0.3288896518
C   C58       1.0  0.73370  0.47650  0.11622  1.0000 -0.0304009779
C   C59       1.0  0.73550  0.56770  0.13618  1.0000 -0.0100323421
C   C60       1.0  0.66210  0.61580  0.17665  1.0000 -0.0304009779
C   C61       1.0  0.58280  0.56990  0.19141  1.0000 -0.0028328661
C   C62       1.0  0.58070  0.47620  0.17155  1.0000 -0.0100323421
C   C63       1.0  0.65290  0.43020  0.13207  1.0000 0.0080385446
C   C64       1.0  0.62060  0.34610  0.06992  1.0000 -0.0028328661
C   C65       1.0  0.68110  0.34100  0.01640  1.0000 -0.0028328661
C   C66       1.0  0.76320  0.41820  0.04792  1.0000 0.0513246563
C   C67       1.0  0.78490  0.46370  0.99364  1.0000 0.0738296993
C   C68       1.0  0.77250  0.56060  0.01755  1.0000 -0.0100323421
C   C69       1.0  0.75540  0.60990  0.08589  1.0000 -0.0100323421
C   C70       1.0  0.69300  0.68361  0.09603  1.0000 -0.0418663919
C   C71       1.0  0.64230  0.69600  0.15879  1.0000 0.0603110013
C   C72       1.0  0.52410  0.72280  0.15007  1.0000 0.0603110013
C   C73       1.0  0.44430  0.66360  0.16053  1.0000 -0.0304009779
C   C74       1.0  0.47360  0.59390  0.18328  1.0000 0.0027891702
C   C75       1.0  0.40390  0.51510  0.15764  1.0000 -0.0228205211
C   C76       1.0  0.46860  0.44020  0.15786  1.0000 0.0603110013
C   C77       1.0  0.43350  0.34900  0.09067  1.0000 0.0603110013
C   C78       1.0  0.51510  0.30987  0.04849  1.0000 -0.0100323421
C   C79       1.0  0.46610  0.27353  0.97269  1.0000 -0.0028328661
C   C80       1.0  0.52430  0.26900  0.92039  1.0000 -0.0100323421
C   C81       1.0  0.63230  0.30540  0.94263  1.0000 -0.0028328661
C   C82       1.0  0.65170  0.34820  0.89255  1.0000 0.0027891702
C   C83       1.0  0.72030  0.42460  0.91746  1.0000 0.0027891702
C   C84       1.0  0.68990  0.49490  0.89356  1.0000 -0.0100323421
C   C85       1.0  0.72240  0.57960  0.95574  1.0000 -0.0100323421
C   C86       1.0  0.66130  0.65100  0.96500  1.0000 -0.0304009779
C   C87       1.0  0.64460  0.70253  0.03578  1.0000 -0.0028328661
C   C88       1.0  0.87270  0.42490  0.03110  1.0000 -0.1782253297
C   C89       1.0  0.61510  0.78460  0.20750  1.0000 -0.1782253297
C   C90       1.0  0.42850  0.35820  0.16771  1.0000 -0.1678777647
C   C91       1.0  0.95910  0.49100  0.08947  1.0000 0.5201662444
C   C92       1.0  0.06850  0.52920  0.20480  1.0000 -0.1891771272
C   C93       1.0  0.04090  0.62060  0.24910  1.0000 0.5922885203
C   C94       1.0  0.91390  0.34170  0.98506  1.0000 0.5324510001
C   C95       1.0  0.06160  0.26070  0.97350  1.0000 -0.1614834877
C   C96       1.0  0.01030  0.17210  0.96524  1.0000 0.6125940942
C   C97       1.0  0.61940  0.80160  0.28669  1.0000 0.5201662444
C   C98       1.0  0.64730  0.91230  0.40270  1.0000 -0.1614834877
C   C99       1.0  0.73240  0.87760  0.44690  1.0000 0.5955200457
C   C100      1.0  0.65130  0.86480  0.19297  1.0000 0.5136059983
C   C101      1.0  0.80190  0.94940  0.19500  1.0000 -0.1678777647
C   C102      1.0  0.91570  0.97540  0.23760  1.0000 0.6182521694
C   C103      1.0  0.50760  0.31420  0.20668  1.0000 0.5324510001
C   C104      1.0  0.53470  0.25540  0.29810  1.0000 -0.1678777647
C   C105      1.0  0.61340  0.32450  0.35800  1.0000 0.6182521694
C   C106      1.0  0.31820  0.35610  0.18364  1.0000 0.5136059983
C   C107      1.0  0.16750  0.25860  0.16030  1.0000 -0.1614834877
C   C108      1.0  0.13660  0.15980  0.12332  1.0000 0.6125940942
C   C109      1.0  0.77000  0.69510  0.46700  1.0000 0.3022884467
C   C110      1.0  0.88310  0.57600  0.45490  1.0000 -0.30705503
C   C111      1.0  0.74710  0.57700  0.34980  1.0000 -0.3460468388
C   C112      1.0  0.16210  0.92280  0.19190  1.0000 0.3022884467
C   C113      1.0  0.35480  0.92780  0.22280  1.0000 -0.3288896518
C   C114      1.0  0.23900  0.82790  0.25140  1.0000 -0.3288896518
N   N1        1.0  0.20180  0.38070  0.57340  1.0000 0.0513246563
N   N2        1.0  0.75220  0.10510  0.77930  1.0000 0.0383196548
N   N3        1.0  0.79820  0.61930  0.42660  1.0000 0.0513246563
N   N4        1.0  0.24780  0.89490  0.22070  1.0000 0.0383196548
O   O1        1.0  0.99700  0.44935  0.91833  1.0000 -0.4315890607
O   O2        1.0  0.01980  0.52729  0.84968  1.0000 -0.1891771272
O   O3        1.0  0.88950  0.32540  0.70900  1.0000 -0.4830335117
O   O4        1.0  0.05800  0.36620  0.76239  1.0000 -0.4491909183
O   O5        1.0  0.13588  0.71073  0.07199  1.0000 -0.4394647292
O   O6        1.0  0.98664  0.66459  0.98319  1.0000 -0.1975663103
O   O7        1.0  0.04790  0.83297  0.99426  1.0000 -0.5236051815
O   O8        1.0  0.96220  0.89114  0.08601  1.0000 -0.5737996138
O   O9        1.0  0.40540  0.25241  0.69061  1.0000 -0.4315890607
O   O10       1.0  0.34790  0.11405  0.67292  1.0000 -0.1782253297
O   O11       1.0  0.18820  0.15290  0.57459  1.0000 -0.5236051815
O   O12       1.0  0.29040  0.11426  0.49174  1.0000 -0.6047203875
O   O13       1.0  0.40800  0.08975  0.82852  1.0000 -0.4394647292
O   O14       1.0  0.24330  0.12430  0.79339  1.0000 -0.1891771272
O   O15       1.0  0.04590  0.05949  0.71810  1.0000 -0.5408801771
O   O16       1.0  0.03670  0.96538  0.77543  1.0000 -0.6110838986
O   O17       1.0  0.40640  0.70141  0.80479  1.0000 -0.4101234115
O   O18       1.0  0.53450  0.70435  0.74417  1.0000 -0.1975663103
O   O19       1.0  0.38420  0.59750  0.63180  1.0000 -0.5047298408
O   O20       1.0  0.32480  0.71070  0.60190  1.0000 -0.4938381202
O   O21       1.0  0.71680  0.58402  0.77418  1.0000 -0.4315890607
O   O22       1.0  0.73288  0.72371  0.85654  1.0000 -0.1891771272
O   O23       1.0  0.82830  0.88529  0.92979  1.0000 -0.5236051815
O   O24       1.0  0.92900  0.86671  0.84653  1.0000 -0.5464883185
O   O25       1.0  0.14880  0.00710  0.36914  1.0000 -0.7283113188
O   O26       1.0  0.34240  0.14800  0.37622  1.0000 -0.7438595034
O   O27       1.0  0.10200  0.15140  0.33412  1.0000 -0.7205521203
O   O28       1.0  0.09290  0.96868  0.95420  1.0000 -0.7283113188
O   O29       1.0  0.18750  0.26300  0.46778  1.0000 -0.5236051815
O   O30       1.0  0.83850  0.01772  0.83461  1.0000 -0.460923735
O   O31       1.0  0.00300  0.55065  0.08167  1.0000 -0.4315890607
O   O32       1.0  0.98020  0.47271  0.15032  1.0000 -0.1891771272
O   O33       1.0  0.11050  0.67460  0.29100  1.0000 -0.4830335117
O   O34       1.0  0.94200  0.63380  0.23761  1.0000 -0.4491909183
O   O35       1.0  0.86412  0.28927  0.92801  1.0000 -0.4394647292
O   O36       1.0  0.01336  0.33541  0.01681  1.0000 -0.1975663103
O   O37       1.0  0.95210  0.16703  0.00574  1.0000 -0.5254378653
O   O38       1.0  0.03780  0.10886  0.91399  1.0000 -0.5737996138
O   O39       1.0  0.59460  0.74759  0.30939  1.0000 -0.4315890607
O   O40       1.0  0.65210  0.88595  0.32708  1.0000 -0.1782253297
O   O41       1.0  0.81180  0.84710  0.42541  1.0000 -0.5236051815
O   O42       1.0  0.70960  0.88574  0.50826  1.0000 -0.6047203875
O   O43       1.0  0.59200  0.91025  0.17148  1.0000 -0.4394647292
O   O44       1.0  0.75670  0.87570  0.20661  1.0000 -0.1975663103
O   O45       1.0  0.95410  0.94051  0.28190  1.0000 -0.5408801771
O   O46       1.0  0.96330  0.03462  0.22457  1.0000 -0.6110838986
O   O47       1.0  0.59360  0.29859  0.19521  1.0000 -0.4101234115
O   O48       1.0  0.46550  0.29565  0.25583  1.0000 -0.1975663103
O   O49       1.0  0.61580  0.40250  0.36820  1.0000 -0.5054357386
O   O50       1.0  0.67520  0.28930  0.39810  1.0000 -0.4938381202
O   O51       1.0  0.28320  0.41598  0.22582  1.0000 -0.4315890607
O   O52       1.0  0.26712  0.27629  0.14346  1.0000 -0.1891771272
O   O53       1.0  0.17170  0.11471  0.07021  1.0000 -0.5236051815
O   O54       1.0  0.07100  0.13329  0.15347  1.0000 -0.5464883185
O   O55       1.0  0.85120  0.99290  0.63086  1.0000 -0.7283113188
O   O56       1.0  0.65760  0.85200  0.62378  1.0000 -0.7438595034
O   O57       1.0  0.89800  0.84860  0.66588  1.0000 -0.7205521203
O   O58       1.0  0.90710  0.03132  0.04580  1.0000 -0.7283113188
O   O59       1.0  0.81250  0.73700  0.53222  1.0000 -0.5254378653
O   O60       1.0  0.16150  0.98228  0.16539  1.0000 -0.460923735
