# DDEC6 charges by PACMAN v1.1 (https://github.com/mtap-research/PACMAN-charge/)
data_2017[Mn][utp]3[FSR]1
_chemical_formula_sum              "Mn4 H28 C40 N12 O20"
_cell_length_a       7.8401
_cell_length_b       10.3176
_cell_length_c       15.8809
_cell_angle_alpha    90
_cell_angle_beta     90
_cell_angle_gamma    90

_symmetry_space_group_name_H-M    "P 1"
_symmetry_Int_Tables_number       1

loop_
  _symmetry_equiv_pos_as_xyz
  'x, y, z'

loop_
  _atom_site_type_symbol
  _atom_site_label
  _atom_site_symmetry_multiplicity
  _atom_site_fract_x
  _atom_site_fract_y
  _atom_site_fract_z
  _atom_site_occupancy
  _atom_site_charge
Mn  Mn1       1.0  0.35574  0.02704  0.46966  1.0000 0.9155046019
Mn  Mn2       1.0  0.64426  0.97296  0.96966  1.0000 0.9155046019
Mn  Mn3       1.0  0.85574  0.47296  0.46966  1.0000 0.9155046019
Mn  Mn4       1.0  0.14426  0.52704  0.96966  1.0000 0.9155046019
H   H1        1.0  0.23300  0.80360  0.52300  1.0000 0.3615699979
H   H2        1.0  0.08330  0.87700  0.52300  1.0000 0.3718219372
H   H3        1.0  0.58790  0.55000  0.15830  1.0000 0.3161744597
H   H4        1.0  0.44910  0.08100  0.28240  1.0000 0.1191414493
H   H5        1.0  0.56720  0.98460  0.16640  1.0000 0.1401839527
H   H6        1.0  0.44000  0.64020  0.26470  1.0000 0.1401839527
H   H7        1.0  0.33350  0.74670  0.37950  1.0000 0.1112658131
H   H8        1.0  0.76700  0.19640  0.02300  1.0000 0.3615699979
H   H9        1.0  0.91670  0.12300  0.02300  1.0000 0.3718219372
H   H10       1.0  0.41210  0.45000  0.65830  1.0000 0.3161744597
H   H11       1.0  0.55090  0.91900  0.78240  1.0000 0.1191414493
H   H12       1.0  0.43280  0.01540  0.66640  1.0000 0.1401839527
H   H13       1.0  0.56000  0.35980  0.76470  1.0000 0.1401839527
H   H14       1.0  0.66650  0.25330  0.87950  1.0000 0.1112658131
H   H15       1.0  0.73300  0.69640  0.52300  1.0000 0.3615699979
H   H16       1.0  0.58330  0.62300  0.52300  1.0000 0.3718219372
H   H17       1.0  0.08790  0.95000  0.15830  1.0000 0.3161744597
H   H18       1.0  0.94910  0.41900  0.28240  1.0000 0.1191414493
H   H19       1.0  0.06720  0.51540  0.16640  1.0000 0.1401839527
H   H20       1.0  0.94000  0.85980  0.26470  1.0000 0.1401839527
H   H21       1.0  0.83350  0.75330  0.37950  1.0000 0.1112658131
H   H22       1.0  0.26700  0.30360  0.02300  1.0000 0.3615699979
H   H23       1.0  0.41670  0.37700  0.02300  1.0000 0.3718219372
H   H24       1.0  0.91210  0.05000  0.65830  1.0000 0.3161744597
H   H25       1.0  0.05090  0.58100  0.78240  1.0000 0.1191414493
H   H26       1.0  0.93280  0.48460  0.66640  1.0000 0.1401839527
H   H27       1.0  0.06000  0.14020  0.76470  1.0000 0.1401839527
H   H28       1.0  0.16650  0.24670  0.87950  1.0000 0.1112658131
C   C1        1.0  0.45040  0.99100  0.27940  1.0000 0.0877051028
C   C2        1.0  0.52040  0.93390  0.20903  1.0000 -0.1771683981
C   C3        1.0  0.52030  0.79980  0.20250  1.0000 0.0521968874
C   C4        1.0  0.44610  0.73010  0.26744  1.0000 -0.2049018768
C   C5        1.0  0.38150  0.79500  0.33610  1.0000 0.0745327967
C   C6        1.0  0.60690  0.73740  0.13149  1.0000 0.2753044637
C   C7        1.0  0.76590  0.70460  0.02278  1.0000 -0.0123990205
C   C8        1.0  0.73220  0.58430  0.05765  1.0000 0.0248838487
C   C9        1.0  0.78160  0.44690  0.03549  1.0000 0.5454607281
C   C10       1.0  0.86760  0.74430  0.94821  1.0000 0.5764422091
C   C11       1.0  0.54960  0.00900  0.77940  1.0000 0.0877051028
C   C12       1.0  0.47960  0.06610  0.70903  1.0000 -0.1771683981
C   C13       1.0  0.47970  0.20020  0.70250  1.0000 0.0521968874
C   C14       1.0  0.55390  0.26990  0.76744  1.0000 -0.2049018768
C   C15       1.0  0.61850  0.20500  0.83610  1.0000 0.0745327967
C   C16       1.0  0.39310  0.26260  0.63149  1.0000 0.2753044637
C   C17       1.0  0.23410  0.29540  0.52278  1.0000 -0.0123990205
C   C18       1.0  0.26780  0.41570  0.55765  1.0000 0.0248838487
C   C19       1.0  0.21840  0.55310  0.53549  1.0000 0.5454607281
C   C20       1.0  0.13240  0.25570  0.44821  1.0000 0.5764422091
C   C21       1.0  0.95040  0.50900  0.27940  1.0000 0.0877051028
C   C22       1.0  0.02040  0.56610  0.20903  1.0000 -0.1771683981
C   C23       1.0  0.02030  0.70020  0.20250  1.0000 0.0521968874
C   C24       1.0  0.94610  0.76990  0.26744  1.0000 -0.2049018768
C   C25       1.0  0.88150  0.70500  0.33610  1.0000 0.0745327967
C   C26       1.0  0.10690  0.76260  0.13149  1.0000 0.2753044637
C   C27       1.0  0.26590  0.79540  0.02278  1.0000 -0.0123990205
C   C28       1.0  0.23220  0.91570  0.05765  1.0000 0.0248838487
C   C29       1.0  0.28160  0.05310  0.03549  1.0000 0.5454607281
C   C30       1.0  0.36760  0.75570  0.94821  1.0000 0.5764422091
C   C31       1.0  0.04960  0.49100  0.77940  1.0000 0.0877051028
C   C32       1.0  0.97960  0.43390  0.70903  1.0000 -0.1771683981
C   C33       1.0  0.97970  0.29980  0.70250  1.0000 0.0521968874
C   C34       1.0  0.05390  0.23010  0.76744  1.0000 -0.2049018768
C   C35       1.0  0.11850  0.29500  0.83610  1.0000 0.0745327967
C   C36       1.0  0.89310  0.23740  0.63149  1.0000 0.2753044637
C   C37       1.0  0.73410  0.20460  0.52278  1.0000 -0.0123990205
C   C38       1.0  0.76780  0.08430  0.55765  1.0000 0.0248838487
C   C39       1.0  0.71840  0.94690  0.53549  1.0000 0.5454607281
C   C40       1.0  0.63240  0.24430  0.44821  1.0000 0.5764422091
N   N1        1.0  0.38420  0.92410  0.34353  1.0000 -0.23683058
N   N2        1.0  0.68340  0.79910  0.06908  1.0000 -0.381260666
N   N3        1.0  0.63020  0.60760  0.12522  1.0000 -0.256610143
N   N4        1.0  0.61580  0.07590  0.84353  1.0000 -0.23683058
N   N5        1.0  0.31660  0.20090  0.56908  1.0000 -0.381260666
N   N6        1.0  0.36980  0.39240  0.62522  1.0000 -0.256610143
N   N7        1.0  0.88420  0.57590  0.34353  1.0000 -0.23683058
N   N8        1.0  0.18340  0.70090  0.06908  1.0000 -0.381260666
N   N9        1.0  0.13020  0.89240  0.12522  1.0000 -0.256610143
N   N10       1.0  0.11580  0.42410  0.84353  1.0000 -0.23683058
N   N11       1.0  0.81660  0.29910  0.56908  1.0000 -0.381260666
N   N12       1.0  0.86980  0.10760  0.62522  1.0000 -0.256610143
O   O1        1.0  0.84990  0.85930  0.92261  1.0000 -0.5327035514
O   O2        1.0  0.19300  0.88040  0.52442  1.0000 -0.6796922562
O   O3        1.0  0.96610  0.66380  0.91519  1.0000 -0.5490510789
O   O4        1.0  0.93190  0.42267  0.01617  1.0000 -0.5490510789
O   O5        1.0  0.66570  0.36470  0.04215  1.0000 -0.5327035514
O   O6        1.0  0.15010  0.14070  0.42261  1.0000 -0.5327035514
O   O7        1.0  0.80700  0.11960  0.02442  1.0000 -0.6796922562
O   O8        1.0  0.03390  0.33620  0.41519  1.0000 -0.5490510789
O   O9        1.0  0.06810  0.57733  0.51617  1.0000 -0.5490510789
O   O10       1.0  0.33430  0.63530  0.54215  1.0000 -0.5327035514
O   O11       1.0  0.34990  0.64070  0.92261  1.0000 -0.5327035514
O   O12       1.0  0.69300  0.61960  0.52442  1.0000 -0.6796922562
O   O13       1.0  0.46610  0.83620  0.91519  1.0000 -0.5490510789
O   O14       1.0  0.43190  0.07733  0.01617  1.0000 -0.5490510789
O   O15       1.0  0.16570  0.13530  0.04215  1.0000 -0.5327035514
O   O16       1.0  0.65010  0.35930  0.42261  1.0000 -0.5327035514
O   O17       1.0  0.30700  0.38040  0.02442  1.0000 -0.6796922562
O   O18       1.0  0.53390  0.16380  0.41519  1.0000 -0.5490510789
O   O19       1.0  0.56810  0.92267  0.51617  1.0000 -0.5490510789
O   O20       1.0  0.83430  0.86470  0.54215  1.0000 -0.5327035514
