# DDEC6 charges by PACMAN v1.1 (https://github.com/mtap-research/PACMAN-charge/)
data_2017[CrCo][pcu]3[FSR]2
_chemical_formula_sum              "Cr4 Co2 H80 C80 N8 O14"
_cell_length_a       9.1091
_cell_length_b       15.2324
_cell_length_c       15.587
_cell_angle_alpha    102.771
_cell_angle_beta     95.335
_cell_angle_gamma    104.33

_symmetry_space_group_name_H-M    "P 1"
_symmetry_Int_Tables_number       1

loop_
  _symmetry_equiv_pos_as_xyz
  'x, y, z'

loop_
  _atom_site_type_symbol
  _atom_site_label
  _atom_site_symmetry_multiplicity
  _atom_site_fract_x
  _atom_site_fract_y
  _atom_site_fract_z
  _atom_site_occupancy
  _atom_site_charge
Cr  Cr1       1.0  0.82559  0.65198  0.69505  1.0000 1.7504161424
Cr  Cr2       1.0  0.14003  0.82372  0.71749  1.0000 1.7584464379
Cr  Cr3       1.0  0.17441  0.34802  0.30495  1.0000 1.7504161424
Cr  Cr4       1.0  0.85997  0.17628  0.28251  1.0000 1.7584464379
Co  Co1       1.0  0.49195  0.74626  0.71633  1.0000 0.8150663204
Co  Co2       1.0  0.50805  0.25374  0.28367  1.0000 0.8150663204
H   H1        1.0  0.51630  0.56460  0.76430  1.0000 0.1040887214
H   H2        1.0  0.36910  0.42020  0.77020  1.0000 0.1409789626
H   H3        1.0  0.00530  0.47180  0.64310  1.0000 0.1496184603
H   H4        1.0  0.16830  0.61330  0.63580  1.0000 0.1184838294
H   H5        1.0  0.13130  0.33620  0.55110  1.0000 0.1315690405
H   H6        1.0  0.08310  0.22520  0.51000  1.0000 0.1409789626
H   H7        1.0  0.95700  0.28180  0.50810  1.0000 0.1496184603
H   H8        1.0  0.78010  0.05030  0.56140  1.0000 0.1315690405
H   H9        1.0  0.83700  0.12420  0.50450  1.0000 0.1409789626
H   H10       1.0  0.94970  0.06810  0.53650  1.0000 0.1496184603
H   H11       1.0  0.02720  0.23820  0.93070  1.0000 0.1409789626
H   H12       1.0  0.85610  0.24680  0.91240  1.0000 0.1409789626
H   H13       1.0  0.88990  0.14710  0.88250  1.0000 0.1315690405
H   H14       1.0  0.10120  0.45880  0.86450  1.0000 0.1496184603
H   H15       1.0  0.04530  0.38700  0.92360  1.0000 0.1409789626
H   H16       1.0  0.21410  0.40340  0.89770  1.0000 0.1409789626
H   H17       1.0  0.95800  0.99350  0.68910  1.0000 0.1589150555
H   H18       1.0  0.80290  0.84790  0.68480  1.0000 0.110375227
H   H19       1.0  0.61940  0.10360  0.76620  1.0000 0.1409789626
H   H20       1.0  0.47960  0.95680  0.76800  1.0000 0.1184838294
H   H21       1.0  0.52990  0.61630  0.54370  1.0000 0.1184838294
H   H22       1.0  0.54360  0.61250  0.39630  1.0000 0.1409789626
H   H23       1.0  0.39340  0.84230  0.43050  1.0000 0.1409789626
H   H24       1.0  0.38920  0.84230  0.57700  1.0000 0.110375227
H   H25       1.0  0.68640  0.93940  0.37170  1.0000 0.1496184603
H   H26       1.0  0.70910  0.85860  0.41760  1.0000 0.1315690405
H   H27       1.0  0.81950  0.89040  0.34950  1.0000 0.1409789626
H   H28       1.0  0.83250  0.88230  0.18160  1.0000 0.1409789626
H   H29       1.0  0.69850  0.90400  0.12290  1.0000 0.1315690405
H   H30       1.0  0.74100  0.95240  0.22750  1.0000 0.1409789626
H   H31       1.0  0.30450  0.53170  0.24540  1.0000 0.1409789626
H   H32       1.0  0.24440  0.60840  0.30940  1.0000 0.1315690405
H   H33       1.0  0.17720  0.57400  0.20530  1.0000 0.1409789626
H   H34       1.0  0.20480  0.58760  0.06790  1.0000 0.1496184603
H   H35       1.0  0.34210  0.60400  0.01110  1.0000 0.1315690405
H   H36       1.0  0.33130  0.53160  0.07210  1.0000 0.1409789626
H   H37       1.0  0.70530  0.70040  0.01060  1.0000 0.1496184603
H   H38       1.0  0.70480  0.71230  0.86700  1.0000 0.1184838294
H   H39       1.0  0.35230  0.81510  0.02620  1.0000 0.1496184603
H   H40       1.0  0.35700  0.82060  0.87900  1.0000 0.1184838294
H   H41       1.0  0.48370  0.43540  0.23570  1.0000 0.1040887214
H   H42       1.0  0.63090  0.57980  0.22980  1.0000 0.1409789626
H   H43       1.0  0.99470  0.52820  0.35690  1.0000 0.1496184603
H   H44       1.0  0.83170  0.38670  0.36420  1.0000 0.1184838294
H   H45       1.0  0.86870  0.66380  0.44890  1.0000 0.1315690405
H   H46       1.0  0.91690  0.77480  0.49000  1.0000 0.1409789626
H   H47       1.0  0.04300  0.71820  0.49190  1.0000 0.1496184603
H   H48       1.0  0.21990  0.94970  0.43860  1.0000 0.1315690405
H   H49       1.0  0.16300  0.87580  0.49550  1.0000 0.1409789626
H   H50       1.0  0.05030  0.93190  0.46350  1.0000 0.1496184603
H   H51       1.0  0.97280  0.76180  0.06930  1.0000 0.1409789626
H   H52       1.0  0.14390  0.75320  0.08760  1.0000 0.1409789626
H   H53       1.0  0.11010  0.85290  0.11750  1.0000 0.1315690405
H   H54       1.0  0.89880  0.54120  0.13550  1.0000 0.1496184603
H   H55       1.0  0.95470  0.61300  0.07640  1.0000 0.1409789626
H   H56       1.0  0.78590  0.59660  0.10230  1.0000 0.1409789626
H   H57       1.0  0.04200  0.00650  0.31090  1.0000 0.1589150555
H   H58       1.0  0.19710  0.15210  0.31520  1.0000 0.110375227
H   H59       1.0  0.38060  0.89640  0.23380  1.0000 0.1409789626
H   H60       1.0  0.52040  0.04320  0.23200  1.0000 0.1184838294
H   H61       1.0  0.47010  0.38370  0.45630  1.0000 0.1184838294
H   H62       1.0  0.45640  0.38750  0.60370  1.0000 0.1409789626
H   H63       1.0  0.60660  0.15770  0.56950  1.0000 0.1409789626
H   H64       1.0  0.61080  0.15770  0.42300  1.0000 0.110375227
H   H65       1.0  0.31360  0.06060  0.62830  1.0000 0.1496184603
H   H66       1.0  0.29090  0.14140  0.58240  1.0000 0.1315690405
H   H67       1.0  0.18050  0.10960  0.65050  1.0000 0.1409789626
H   H68       1.0  0.16750  0.11770  0.81840  1.0000 0.1409789626
H   H69       1.0  0.30150  0.09600  0.87710  1.0000 0.1315690405
H   H70       1.0  0.25900  0.04760  0.77250  1.0000 0.1409789626
H   H71       1.0  0.69550  0.46830  0.75460  1.0000 0.1409789626
H   H72       1.0  0.75560  0.39160  0.69060  1.0000 0.1315690405
H   H73       1.0  0.82280  0.42600  0.79470  1.0000 0.1409789626
H   H74       1.0  0.79520  0.41240  0.93210  1.0000 0.1496184603
H   H75       1.0  0.65790  0.39600  0.98890  1.0000 0.1315690405
H   H76       1.0  0.66870  0.46840  0.92790  1.0000 0.1409789626
H   H77       1.0  0.29470  0.29960  0.98940  1.0000 0.1496184603
H   H78       1.0  0.29520  0.28770  0.13300  1.0000 0.1184838294
H   H79       1.0  0.64770  0.18490  0.97380  1.0000 0.1496184603
H   H80       1.0  0.64300  0.17940  0.12100  1.0000 0.1184838294
C   C1        1.0  0.41090  0.54560  0.73920  1.0000 0.0615403145
C   C2        1.0  0.32360  0.45890  0.74260  1.0000 -0.1898502731
C   C3        1.0  0.16960  0.42790  0.70590  1.0000 0.1315690405
C   C4        1.0  0.11080  0.48840  0.66760  1.0000 -0.1688473247
C   C5        1.0  0.20910  0.57440  0.66560  1.0000 0.110375227
C   C6        1.0  0.07280  0.33470  0.70940  1.0000 -0.0722383582
C   C7        1.0  0.01580  0.26290  0.63190  1.0000 0.0770830799
C   C8        1.0  0.92760  0.17460  0.63780  1.0000 0.0770830799
C   C9        1.0  0.90110  0.16070  0.72050  1.0000 -0.083664946
C   C10       1.0  0.95840  0.23260  0.79830  1.0000 0.0699508416
C   C11       1.0  0.04630  0.32070  0.79320  1.0000 0.0699508416
C   C12       1.0  0.04980  0.27780  0.54250  1.0000 -0.431876155
C   C13       1.0  0.86830  0.09750  0.55250  1.0000 -0.4424646626
C   C14       1.0  0.93040  0.21450  0.88920  1.0000 -0.449530112
C   C15       1.0  0.10710  0.39940  0.87720  1.0000 -0.449530112
C   C16       1.0  0.80710  0.06720  0.72490  1.0000 0.1409789626
C   C17       1.0  0.85780  0.98800  0.70380  1.0000 -0.1819913808
C   C18       1.0  0.76600  0.90100  0.70360  1.0000 0.0911559638
C   C19       1.0  0.66140  0.05230  0.74970  1.0000 -0.1898502731
C   C20       1.0  0.57830  0.96410  0.75070  1.0000 0.0699508416
C   C21       1.0  0.50390  0.66430  0.52080  1.0000 0.0911559638
C   C22       1.0  0.51310  0.66170  0.43240  1.0000 -0.1688473247
C   C23       1.0  0.47840  0.72980  0.39640  1.0000 0.1409789626
C   C24       1.0  0.42620  0.79590  0.45280  1.0000 -0.1819913808
C   C25       1.0  0.42180  0.79470  0.54000  1.0000 0.0699508416
C   C26       1.0  0.49410  0.73400  0.30330  1.0000 -0.083664946
C   C27       1.0  0.60590  0.80810  0.28720  1.0000 0.0699508416
C   C28       1.0  0.61700  0.81400  0.19940  1.0000 0.0699508416
C   C29       1.0  0.52010  0.74550  0.12870  1.0000 -0.083664946
C   C30       1.0  0.41040  0.66960  0.14500  1.0000 0.0615403145
C   C31       1.0  0.39430  0.66540  0.23210  1.0000 0.0615403145
C   C32       1.0  0.71470  0.88040  0.36310  1.0000 -0.4424646626
C   C33       1.0  0.73240  0.89540  0.18130  1.0000 -0.449530112
C   C34       1.0  0.26900  0.58800  0.24960  1.0000 -0.4424646626
C   C35       1.0  0.31350  0.59120  0.06710  1.0000 -0.449530112
C   C36       1.0  0.52610  0.75370  0.03550  1.0000 0.1409789626
C   C37       1.0  0.63090  0.72500  0.98490  1.0000 -0.1819913808
C   C38       1.0  0.62940  0.73130  0.89900  1.0000 0.0770830799
C   C39       1.0  0.42420  0.79150  0.99440  1.0000 -0.1898502731
C   C40       1.0  0.42790  0.79470  0.90620  1.0000 0.0911559638
C   C41       1.0  0.58910  0.45440  0.26080  1.0000 0.0615403145
C   C42       1.0  0.67640  0.54110  0.25740  1.0000 -0.1898502731
C   C43       1.0  0.83040  0.57210  0.29410  1.0000 0.1315690405
C   C44       1.0  0.88920  0.51160  0.33240  1.0000 -0.1688473247
C   C45       1.0  0.79090  0.42560  0.33440  1.0000 0.110375227
C   C46       1.0  0.92720  0.66530  0.29060  1.0000 -0.0722383582
C   C47       1.0  0.98420  0.73710  0.36810  1.0000 0.0770830799
C   C48       1.0  0.07240  0.82540  0.36220  1.0000 0.0770830799
C   C49       1.0  0.09890  0.83930  0.27950  1.0000 -0.083664946
C   C50       1.0  0.04160  0.76740  0.20170  1.0000 0.0699508416
C   C51       1.0  0.95370  0.67930  0.20680  1.0000 0.0699508416
C   C52       1.0  0.95020  0.72220  0.45750  1.0000 -0.431876155
C   C53       1.0  0.13170  0.90250  0.44750  1.0000 -0.4424646626
C   C54       1.0  0.06960  0.78550  0.11080  1.0000 -0.449530112
C   C55       1.0  0.89290  0.60060  0.12280  1.0000 -0.449530112
C   C56       1.0  0.19290  0.93280  0.27510  1.0000 0.1409789626
C   C57       1.0  0.14220  0.01200  0.29620  1.0000 -0.1819913808
C   C58       1.0  0.23400  0.09900  0.29640  1.0000 0.0911559638
C   C59       1.0  0.33860  0.94770  0.25030  1.0000 -0.1898502731
C   C60       1.0  0.42170  0.03590  0.24930  1.0000 0.0699508416
C   C61       1.0  0.49610  0.33570  0.47920  1.0000 0.0911559638
C   C62       1.0  0.48690  0.33830  0.56760  1.0000 -0.1688473247
C   C63       1.0  0.52160  0.27020  0.60360  1.0000 0.1409789626
C   C64       1.0  0.57380  0.20410  0.54720  1.0000 -0.1819913808
C   C65       1.0  0.57820  0.20530  0.46000  1.0000 0.0699508416
C   C66       1.0  0.50590  0.26600  0.69670  1.0000 -0.083664946
C   C67       1.0  0.39410  0.19190  0.71280  1.0000 0.0699508416
C   C68       1.0  0.38300  0.18600  0.80060  1.0000 0.0699508416
C   C69       1.0  0.47990  0.25450  0.87130  1.0000 -0.083664946
C   C70       1.0  0.58960  0.33040  0.85500  1.0000 0.0615403145
C   C71       1.0  0.60570  0.33460  0.76790  1.0000 0.0615403145
C   C72       1.0  0.28530  0.11960  0.63690  1.0000 -0.4424646626
C   C73       1.0  0.26760  0.10460  0.81870  1.0000 -0.4424646626
C   C74       1.0  0.73100  0.41200  0.75040  1.0000 -0.4424646626
C   C75       1.0  0.68650  0.40880  0.93290  1.0000 -0.449530112
C   C76       1.0  0.47390  0.24630  0.96450  1.0000 0.1409789626
C   C77       1.0  0.36910  0.27500  0.01510  1.0000 -0.1819913808
C   C78       1.0  0.37060  0.26870  0.10100  1.0000 0.0770830799
C   C79       1.0  0.57580  0.20850  0.00560  1.0000 -0.1898502731
C   C80       1.0  0.57210  0.20530  0.09380  1.0000 0.0911559638
N   N1        1.0  0.35500  0.60480  0.70240  1.0000 -0.2379345991
N   N2        1.0  0.46070  0.73030  0.57590  1.0000 -0.2329068989
N   N3        1.0  0.62830  0.88820  0.72870  1.0000 -0.2379345991
N   N4        1.0  0.52590  0.76320  0.85810  1.0000 -0.2329068989
N   N5        1.0  0.64500  0.39520  0.29760  1.0000 -0.2379345991
N   N6        1.0  0.53930  0.26970  0.42410  1.0000 -0.2329068989
N   N7        1.0  0.37170  0.11180  0.27130  1.0000 -0.2379345991
N   N8        1.0  0.47410  0.23680  0.14190  1.0000 -0.2329068989
O   O1        1.0  0.68540  0.70090  0.70850  1.0000 -0.8062308007
O   O2        1.0  0.88300  0.63060  0.78700  1.0000 -0.7084694478
O   O3        1.0  0.77060  0.55780  0.61580  1.0000 -0.7018631472
O   O4        1.0  0.98010  0.72930  0.66330  1.0000 -0.8592789345
O   O5        1.0  0.11620  0.86970  0.81640  1.0000 -0.6937174671
O   O6        1.0  0.15760  0.90050  0.65920  1.0000 -0.7018631472
O   O7        1.0  0.29310  0.78640  0.72180  1.0000 -0.8009011619
O   O8        1.0  0.31460  0.29910  0.29150  1.0000 -0.8062308007
O   O9        1.0  0.11700  0.36940  0.21300  1.0000 -0.7084694478
O   O10       1.0  0.22940  0.44220  0.38420  1.0000 -0.7018631472
O   O11       1.0  0.01990  0.27070  0.33670  1.0000 -0.8592789345
O   O12       1.0  0.88380  0.13030  0.18360  1.0000 -0.6937174671
O   O13       1.0  0.84240  0.09950  0.34080  1.0000 -0.7084694478
O   O14       1.0  0.70690  0.21360  0.27820  1.0000 -0.8009011619
