# DDEC6 charges by PACMAN v1.1 (https://github.com/mtap-research/PACMAN-charge/)
data_2017[Zn][sql]2[FSR]16
_chemical_formula_sum              "Zn4 H48 C44 N12 Cl4 O8"
_cell_length_a       12.6802
_cell_length_b       8.7301
_cell_length_c       19.3812
_cell_angle_alpha    90
_cell_angle_beta     121.977
_cell_angle_gamma    90

_symmetry_space_group_name_H-M    "P 1"
_symmetry_Int_Tables_number       1

loop_
  _symmetry_equiv_pos_as_xyz
  'x, y, z'

loop_
  _atom_site_type_symbol
  _atom_site_label
  _atom_site_symmetry_multiplicity
  _atom_site_fract_x
  _atom_site_fract_y
  _atom_site_fract_z
  _atom_site_occupancy
  _atom_site_charge
Zn  Zn1       1.0  0.93473  0.20512  0.32461  1.0000 0.7349683434
Zn  Zn2       1.0  0.06527  0.70512  0.17539  1.0000 0.7363759071
Zn  Zn3       1.0  0.06527  0.79488  0.67539  1.0000 0.7349683434
Zn  Zn4       1.0  0.93473  0.29488  0.82461  1.0000 0.7349683434
H   H1        1.0  0.16781  0.55549  0.32873  1.0000 0.1601335508
H   H2        1.0  0.13447  0.42497  0.36956  1.0000 0.1601335508
H   H3        1.0  0.17555  0.38356  0.30846  1.0000 0.1683883459
H   H4        1.0  0.76046  0.66771  0.03986  1.0000 0.1527003456
H   H5        1.0  0.65638  0.29758  0.17015  1.0000 0.1601335508
H   H6        1.0  0.93649  0.22592  0.47673  1.0000 0.1139965854
H   H7        1.0  0.20801  0.41363  0.55137  1.0000 0.1325139344
H   H8        1.0  0.22605  0.44597  0.63655  1.0000 0.1410147088
H   H9        1.0  0.26856  0.28897  0.61989  1.0000 0.1527003456
H   H10       1.0  0.10885  0.20428  0.66667  1.0000 0.1410147088
H   H11       1.0  0.06104  0.37342  0.65597  1.0000 0.1410147088
H   H12       1.0  0.96970  0.24280  0.60171  1.0000 0.1410147088
H   H13       1.0  0.83219  0.05549  0.17127  1.0000 0.1601335508
H   H14       1.0  0.86553  0.92497  0.13044  1.0000 0.1601335508
H   H15       1.0  0.82445  0.88356  0.19154  1.0000 0.1683883459
H   H16       1.0  0.23954  0.16771  0.46014  1.0000 0.1527003456
H   H17       1.0  0.34362  0.79758  0.32985  1.0000 0.1601335508
H   H18       1.0  0.06351  0.72592  0.02327  1.0000 0.1139965854
H   H19       1.0  0.79199  0.91363  0.94863  1.0000 0.1325139344
H   H20       1.0  0.77395  0.94597  0.86345  1.0000 0.1410147088
H   H21       1.0  0.73144  0.78897  0.88011  1.0000 0.1527003456
H   H22       1.0  0.89115  0.70428  0.83333  1.0000 0.1410147088
H   H23       1.0  0.93896  0.87342  0.84403  1.0000 0.1410147088
H   H24       1.0  0.03030  0.74280  0.89829  1.0000 0.1410147088
H   H25       1.0  0.83219  0.44451  0.67127  1.0000 0.1601335508
H   H26       1.0  0.86553  0.57503  0.63044  1.0000 0.1601335508
H   H27       1.0  0.82445  0.61644  0.69154  1.0000 0.1683883459
H   H28       1.0  0.23954  0.33229  0.96014  1.0000 0.1527003456
H   H29       1.0  0.34362  0.70242  0.82985  1.0000 0.1601335508
H   H30       1.0  0.06351  0.77408  0.52327  1.0000 0.1139965854
H   H31       1.0  0.79199  0.58637  0.44863  1.0000 0.1325139344
H   H32       1.0  0.77395  0.55403  0.36345  1.0000 0.1410147088
H   H33       1.0  0.73144  0.71103  0.38011  1.0000 0.1527003456
H   H34       1.0  0.89115  0.79572  0.33333  1.0000 0.1410147088
H   H35       1.0  0.93896  0.62658  0.34403  1.0000 0.1410147088
H   H36       1.0  0.03030  0.75720  0.39829  1.0000 0.1410147088
H   H37       1.0  0.16781  0.94451  0.82873  1.0000 0.1601335508
H   H38       1.0  0.13447  0.07503  0.86956  1.0000 0.1601335508
H   H39       1.0  0.17555  0.11644  0.80846  1.0000 0.1683883459
H   H40       1.0  0.76046  0.83229  0.53986  1.0000 0.1527003456
H   H41       1.0  0.65638  0.20242  0.67015  1.0000 0.1601335508
H   H42       1.0  0.93649  0.27408  0.97673  1.0000 0.1139965854
H   H43       1.0  0.20801  0.08637  0.05137  1.0000 0.1325139344
H   H44       1.0  0.22605  0.05403  0.13655  1.0000 0.1410147088
H   H45       1.0  0.26856  0.21103  0.11989  1.0000 0.1527003456
H   H46       1.0  0.10885  0.29572  0.16667  1.0000 0.1410147088
H   H47       1.0  0.06104  0.12658  0.15597  1.0000 0.1410147088
H   H48       1.0  0.96970  0.25720  0.10171  1.0000 0.1410147088
C   C1        1.0  0.99760  0.46200  0.25160  1.0000 0.4098340288
C   C2        1.0  0.13090  0.45600  0.32080  1.0000 -0.5384535402
C   C3        1.0  0.79980  0.42020  0.17830  1.0000 0.1410147088
C   C4        1.0  0.83080  0.52980  0.13990  1.0000 0.1410147088
C   C5        1.0  0.74030  0.59470  0.06600  1.0000 -0.2717723794
C   C6        1.0  0.62040  0.54560  0.03370  1.0000 0.1410147088
C   C7        1.0  0.58970  0.43740  0.07230  1.0000 0.1410147088
C   C8        1.0  0.67750  0.37120  0.14480  1.0000 -0.2717723794
C   C9        1.0  0.01340  0.26790  0.49230  1.0000 0.2669127301
C   C10       1.0  0.20730  0.36880  0.59630  1.0000 -0.3030068337
C   C11       1.0  0.05370  0.27930  0.62810  1.0000 -0.334709844
C   C12       1.0  0.00240  0.96200  0.24840  1.0000 0.4098340288
C   C13       1.0  0.86910  0.95600  0.17920  1.0000 -0.5384535402
C   C14       1.0  0.20020  0.92020  0.32170  1.0000 0.1410147088
C   C15       1.0  0.16920  0.02980  0.36010  1.0000 0.1410147088
C   C16       1.0  0.25970  0.09470  0.43400  1.0000 -0.2717723794
C   C17       1.0  0.37960  0.04560  0.46630  1.0000 0.1410147088
C   C18       1.0  0.41030  0.93740  0.42770  1.0000 0.1410147088
C   C19       1.0  0.32250  0.87120  0.35520  1.0000 -0.2717723794
C   C20       1.0  0.98660  0.76790  0.00770  1.0000 0.2669127301
C   C21       1.0  0.79270  0.86880  0.90370  1.0000 -0.3030068337
C   C22       1.0  0.94630  0.77930  0.87190  1.0000 -0.334709844
C   C23       1.0  0.00240  0.53800  0.74840  1.0000 0.4098340288
C   C24       1.0  0.86910  0.54400  0.67920  1.0000 -0.5384535402
C   C25       1.0  0.20020  0.57980  0.82170  1.0000 0.1410147088
C   C26       1.0  0.16920  0.47020  0.86010  1.0000 0.1410147088
C   C27       1.0  0.25970  0.40530  0.93400  1.0000 -0.2717723794
C   C28       1.0  0.37960  0.45440  0.96630  1.0000 0.1410147088
C   C29       1.0  0.41030  0.56260  0.92770  1.0000 0.1410147088
C   C30       1.0  0.32250  0.62880  0.85520  1.0000 -0.2717723794
C   C31       1.0  0.98660  0.73210  0.50770  1.0000 0.2669127301
C   C32       1.0  0.79270  0.63120  0.40370  1.0000 -0.3030068337
C   C33       1.0  0.94630  0.72070  0.37190  1.0000 -0.334709844
C   C34       1.0  0.99760  0.03800  0.75160  1.0000 0.4098340288
C   C35       1.0  0.13090  0.04400  0.82080  1.0000 -0.5384535402
C   C36       1.0  0.79980  0.07980  0.67830  1.0000 0.1410147088
C   C37       1.0  0.83080  0.97020  0.63990  1.0000 0.1410147088
C   C38       1.0  0.74030  0.90530  0.56600  1.0000 -0.2717723794
C   C39       1.0  0.62040  0.95440  0.53370  1.0000 0.1410147088
C   C40       1.0  0.58970  0.06260  0.57230  1.0000 0.1410147088
C   C41       1.0  0.67750  0.12880  0.64480  1.0000 -0.2717723794
C   C42       1.0  0.01340  0.23210  0.99230  1.0000 0.2669127301
C   C43       1.0  0.20730  0.13120  0.09630  1.0000 -0.3030068337
C   C44       1.0  0.05370  0.22070  0.12810  1.0000 -0.334709844
N   N1        1.0  0.90836  0.37710  0.25066  1.0000 -0.4256649375
N   N2        1.0  0.95834  0.55510  0.18814  1.0000 -0.4166518807
N   N3        1.0  0.08632  0.30550  0.56822  1.0000 0.0356581114
N   N4        1.0  0.09164  0.87710  0.24934  1.0000 -0.4256649375
N   N5        1.0  0.04166  0.05510  0.31186  1.0000 -0.4166518807
N   N6        1.0  0.91368  0.80550  0.93178  1.0000 0.0356581114
N   N7        1.0  0.09164  0.62290  0.74934  1.0000 -0.4256649375
N   N8        1.0  0.04166  0.44490  0.81186  1.0000 -0.4166518807
N   N9        1.0  0.91368  0.69450  0.43178  1.0000 0.0356581114
N   N10       1.0  0.90836  0.12290  0.75066  1.0000 -0.4256649375
N   N11       1.0  0.95834  0.94490  0.68814  1.0000 -0.4166518807
N   N12       1.0  0.08632  0.19450  0.06822  1.0000 0.0356581114
Cl  Cl1       1.0  0.76581  0.10626  0.31536  1.0000 -0.581708303
Cl  Cl2       1.0  0.23419  0.60626  0.18464  1.0000 -0.581708303
Cl  Cl3       1.0  0.23419  0.89374  0.68464  1.0000 -0.581708303
Cl  Cl4       1.0  0.76581  0.39374  0.81536  1.0000 -0.581708303
O   O1        1.0  0.46804  0.38840  0.03994  1.0000 -0.18260715
O   O2        1.0  0.03847  0.28370  0.43897  1.0000 -0.4501957357
O   O3        1.0  0.53196  0.88840  0.46006  1.0000 -0.18260715
O   O4        1.0  0.96153  0.78370  0.06103  1.0000 -0.4501957357
O   O5        1.0  0.53196  0.61160  0.96006  1.0000 -0.18260715
O   O6        1.0  0.96153  0.71630  0.56103  1.0000 -0.4501957357
O   O7        1.0  0.46804  0.11160  0.53994  1.0000 -0.18260715
O   O8        1.0  0.03847  0.21630  0.93897  1.0000 -0.4501957357
