# DDEC6 charges by PACMAN v1.1 (https://github.com/mtap-research/PACMAN-charge/)
data_2017[Ag][hcb]2[FSR]1
_chemical_formula_sum              "Ag2 H42 C56 S2 N6 O18 F6"
_cell_length_a       9.3158
_cell_length_b       12.9783
_cell_length_c       16.4536
_cell_angle_alpha    108.665
_cell_angle_beta     100.797
_cell_angle_gamma    103.063

_symmetry_space_group_name_H-M    "P 1"
_symmetry_Int_Tables_number       1

loop_
  _symmetry_equiv_pos_as_xyz
  'x, y, z'

loop_
  _atom_site_type_symbol
  _atom_site_label
  _atom_site_symmetry_multiplicity
  _atom_site_fract_x
  _atom_site_fract_y
  _atom_site_fract_z
  _atom_site_occupancy
  _atom_site_charge
Ag  Ag1       1.0  0.93792  0.11657  0.68161  1.0000 0.3006201734
Ag  Ag2       1.0  0.06208  0.88343  0.31839  1.0000 0.3006201734
H   H1        1.0  0.91870  0.87980  0.54620  1.0000 0.1082010922
H   H2        1.0  0.02320  0.73160  0.52400  1.0000 0.1292683345
H   H3        1.0  0.23440  0.86330  0.78790  1.0000 0.1381781672
H   H4        1.0  0.12530  0.00910  0.80380  1.0000 0.1082010922
H   H5        1.0  0.37060  0.56590  0.56870  1.0000 0.1082010922
H   H6        1.0  0.21980  0.47870  0.57070  1.0000 0.1170887296
H   H7        1.0  0.34750  0.36390  0.45430  1.0000 0.1292683345
H   H8        1.0  0.74860  0.95860  0.47650  1.0000 0.1082010922
H   H9        1.0  0.57250  0.95500  0.35710  1.0000 0.1381781672
H   H10       1.0  0.55620  0.26220  0.51210  1.0000 0.1292683345
H   H11       1.0  0.73680  0.25880  0.62810  1.0000 0.1082010922
H   H12       1.0  0.37150  0.23650  0.24540  1.0000 0.1170887296
H   H13       1.0  0.22380  0.14960  0.25060  1.0000 0.1082010922
H   H14       1.0  0.13180  0.30360  0.19870  1.0000 0.1170887296
H   H15       1.0  0.76070  0.18540  0.82800  1.0000 0.1170887296
H   H16       1.0  0.80770  0.28500  0.98030  1.0000 0.1381781672
H   H17       1.0  0.23750  0.44410  0.98770  1.0000 0.1381781672
H   H18       1.0  0.18360  0.33500  0.83740  1.0000 0.1025467192
H   H19       1.0  0.02200  0.54610  0.24100  1.0000 0.1082010922
H   H20       1.0  0.88170  0.44810  0.24020  1.0000 0.1170887296
H   H21       1.0  0.08340  0.55620  0.40270  1.0000 0.1292683345
H   H22       1.0  0.08130  0.12020  0.45380  1.0000 0.1082010922
H   H23       1.0  0.97680  0.26840  0.47600  1.0000 0.1292683345
H   H24       1.0  0.76560  0.13670  0.21210  1.0000 0.1381781672
H   H25       1.0  0.87470  0.99090  0.19620  1.0000 0.1082010922
H   H26       1.0  0.62940  0.43410  0.43130  1.0000 0.1082010922
H   H27       1.0  0.78020  0.52130  0.42930  1.0000 0.1170887296
H   H28       1.0  0.65250  0.63610  0.54570  1.0000 0.1292683345
H   H29       1.0  0.25140  0.04140  0.52350  1.0000 0.1082010922
H   H30       1.0  0.42750  0.04500  0.64290  1.0000 0.1381781672
H   H31       1.0  0.44380  0.73780  0.48790  1.0000 0.1292683345
H   H32       1.0  0.26320  0.74120  0.37190  1.0000 0.1082010922
H   H33       1.0  0.62850  0.76350  0.75460  1.0000 0.1170887296
H   H34       1.0  0.77620  0.85040  0.74940  1.0000 0.1082010922
H   H35       1.0  0.86820  0.69640  0.80130  1.0000 0.1170887296
H   H36       1.0  0.23930  0.81460  0.17200  1.0000 0.1170887296
H   H37       1.0  0.19230  0.71500  0.01970  1.0000 0.1381781672
H   H38       1.0  0.76250  0.55590  0.01230  1.0000 0.1381781672
H   H39       1.0  0.81640  0.66500  0.16260  1.0000 0.1025467192
H   H40       1.0  0.97800  0.45390  0.75900  1.0000 0.1082010922
H   H41       1.0  0.11830  0.55190  0.75980  1.0000 0.1170887296
H   H42       1.0  0.91660  0.44380  0.59730  1.0000 0.1292683345
C   C1        1.0  0.98490  0.87670  0.59630  1.0000 0.0782793214
C   C2        1.0  0.04680  0.78800  0.58230  1.0000 -0.1426080229
C   C3        1.0  0.14280  0.78180  0.65320  1.0000 -0.0054185064
C   C4        1.0  0.17010  0.86570  0.73680  1.0000 -0.1580226819
C   C5        1.0  0.10460  0.95220  0.74610  1.0000 0.0703381126
C   C6        1.0  0.21970  0.69160  0.64440  1.0000 0.4921294947
C   C7        1.0  0.25790  0.53250  0.54270  1.0000 -0.0683139886
C   C8        1.0  0.21940  0.47010  0.44280  1.0000 0.1082010922
C   C9        1.0  0.28180  0.38130  0.41250  1.0000 -0.2104897127
C   C10       1.0  0.70950  0.02160  0.48370  1.0000 0.0703381126
C   C11       1.0  0.60490  0.01870  0.41230  1.0000 -0.1426080229
C   C12       1.0  0.54630  0.10970  0.42100  1.0000 -0.0021623125
C   C13       1.0  0.59550  0.19920  0.50320  1.0000 -0.1507751743
C   C14       1.0  0.70260  0.19620  0.57220  1.0000 0.0782793214
C   C15       1.0  0.43850  0.10980  0.34170  1.0000 0.4987978612
C   C16       1.0  0.31000  0.22080  0.28550  1.0000 -0.0683139886
C   C17       1.0  0.24830  0.31880  0.32170  1.0000 0.1082010922
C   C18       1.0  0.15380  0.34580  0.26090  1.0000 -0.2104897127
C   C19       1.0  0.86020  0.23700  0.86140  1.0000 0.091775765
C   C20       1.0  0.88650  0.29660  0.95190  1.0000 -0.1507751743
C   C21       1.0  0.02970  0.37330  0.99970  1.0000 -0.0021623125
C   C22       1.0  0.13940  0.38920  0.95630  1.0000 -0.1507751743
C   C23       1.0  0.10590  0.32500  0.86680  1.0000 0.0703381126
C   C24       1.0  0.06750  0.44030  0.09810  1.0000 0.4987978612
C   C25       1.0  0.98300  0.46330  0.22810  1.0000 -0.0769203032
C   C26       1.0  0.09120  0.43350  0.29000  1.0000 0.1082010922
C   C27       1.0  0.12550  0.49580  0.38210  1.0000 -0.2104897127
C   C28       1.0  0.44660  0.37930  0.73190  1.0000 0.4921294947
C   C29       1.0  0.01510  0.12330  0.40370  1.0000 0.0782793214
C   C30       1.0  0.95320  0.21200  0.41770  1.0000 -0.1426080229
C   C31       1.0  0.85720  0.21820  0.34680  1.0000 -0.0054185064
C   C32       1.0  0.82990  0.13430  0.26320  1.0000 -0.1580226819
C   C33       1.0  0.89540  0.04780  0.25390  1.0000 0.0703381126
C   C34       1.0  0.78030  0.30840  0.35560  1.0000 0.4921294947
C   C35       1.0  0.74210  0.46750  0.45730  1.0000 -0.0683139886
C   C36       1.0  0.78060  0.52990  0.55720  1.0000 0.1082010922
C   C37       1.0  0.71820  0.61870  0.58750  1.0000 -0.2104897127
C   C38       1.0  0.29050  0.97840  0.51630  1.0000 0.0703381126
C   C39       1.0  0.39510  0.98130  0.58770  1.0000 -0.1426080229
C   C40       1.0  0.45370  0.89030  0.57900  1.0000 -0.0021623125
C   C41       1.0  0.40450  0.80080  0.49680  1.0000 -0.1507751743
C   C42       1.0  0.29740  0.80380  0.42780  1.0000 0.0782793214
C   C43       1.0  0.56150  0.89020  0.65830  1.0000 0.4987978612
C   C44       1.0  0.69000  0.77920  0.71450  1.0000 -0.0683139886
C   C45       1.0  0.75170  0.68120  0.67830  1.0000 0.1082010922
C   C46       1.0  0.84620  0.65420  0.73910  1.0000 -0.2104897127
C   C47       1.0  0.13980  0.76300  0.13860  1.0000 0.091775765
C   C48       1.0  0.11350  0.70340  0.04810  1.0000 -0.1507751743
C   C49       1.0  0.97030  0.62670  0.00030  1.0000 -0.0021623125
C   C50       1.0  0.86060  0.61080  0.04370  1.0000 -0.1507751743
C   C51       1.0  0.89410  0.67500  0.13320  1.0000 0.0703381126
C   C52       1.0  0.93250  0.55970  0.90190  1.0000 0.4987978612
C   C53       1.0  0.01700  0.53670  0.77190  1.0000 -0.0769203032
C   C54       1.0  0.90880  0.56650  0.71000  1.0000 0.1082010922
C   C55       1.0  0.87450  0.50420  0.61790  1.0000 -0.2104897127
C   C56       1.0  0.55340  0.62070  0.26810  1.0000 0.4921294947
S   S1        1.0  0.26198  0.28798  0.65269  1.0000 0.9698810478
S   S2        1.0  0.73802  0.71202  0.34731  1.0000 0.9698810478
N   N1        1.0  0.01260  0.95870  0.67620  1.0000 -0.1834387531
N   N2        1.0  0.76060  0.10890  0.56400  1.0000 -0.2104897127
N   N3        1.0  0.96720  0.24820  0.81900  1.0000 -0.187602664
N   N4        1.0  0.98740  0.04130  0.32380  1.0000 -0.1834387531
N   N5        1.0  0.23940  0.89110  0.43600  1.0000 -0.2104897127
N   N6        1.0  0.03280  0.75180  0.18100  1.0000 -0.187602664
O   O1        1.0  0.30320  0.68450  0.70590  1.0000 -0.438185672
O   O2        1.0  0.18610  0.62160  0.55947  1.0000 -0.2104897127
O   O3        1.0  0.39080  0.03200  0.27050  1.0000 -0.4737352828
O   O4        1.0  0.40470  0.20700  0.35907  1.0000 -0.2104897127
O   O5        1.0  0.18090  0.52110  0.13910  1.0000 -0.4483506481
O   O6        1.0  0.96290  0.40030  0.13423  1.0000 -0.2181327294
O   O7        1.0  0.16170  0.35730  0.66230  1.0000 -0.5622950693
O   O8        1.0  0.29860  0.25800  0.56900  1.0000 -0.5622950693
O   O9        1.0  0.22340  0.19540  0.68260  1.0000 -0.5622950693
O   O10       1.0  0.69680  0.31550  0.29410  1.0000 -0.438185672
O   O11       1.0  0.81390  0.37840  0.44053  1.0000 -0.2104897127
O   O12       1.0  0.60920  0.96800  0.72950  1.0000 -0.4737352828
O   O13       1.0  0.59530  0.79300  0.64093  1.0000 -0.2104897127
O   O14       1.0  0.81910  0.47890  0.86090  1.0000 -0.4483506481
O   O15       1.0  0.03710  0.59970  0.86577  1.0000 -0.2181327294
O   O16       1.0  0.83830  0.64270  0.33770  1.0000 -0.5622950693
O   O17       1.0  0.70140  0.74200  0.43100  1.0000 -0.5622950693
O   O18       1.0  0.77660  0.80460  0.31740  1.0000 -0.5622950693
F   F1        1.0  0.50380  0.46630  0.71140  1.0000 -0.1664895738
F   F2        1.0  0.54420  0.31720  0.72950  1.0000 -0.1834387531
F   F3        1.0  0.43800  0.41810  0.81430  1.0000 -0.1834387531
F   F4        1.0  0.49620  0.53370  0.28860  1.0000 -0.1664895738
F   F5        1.0  0.45580  0.68280  0.27050  1.0000 -0.1834387531
F   F6        1.0  0.56200  0.58190  0.18570  1.0000 -0.1834387531
