# DDEC6 charges by PACMAN v1.1 (https://github.com/mtap-research/PACMAN-charge/)
data_2017[Cu][ths]3[FSR]6
_chemical_formula_sum              "Cu8 C24 O48"
_cell_length_a       8.7281
_cell_length_b       33.8944
_cell_length_c       8.7734
_cell_angle_alpha    90
_cell_angle_beta     107.797
_cell_angle_gamma    90

_symmetry_space_group_name_H-M    "P 1"
_symmetry_Int_Tables_number       1

loop_
  _symmetry_equiv_pos_as_xyz
  'x, y, z'

loop_
  _atom_site_type_symbol
  _atom_site_label
  _atom_site_symmetry_multiplicity
  _atom_site_fract_x
  _atom_site_fract_y
  _atom_site_fract_z
  _atom_site_occupancy
  _atom_site_charge
Cu  Cu1       1.0  0.51144  0.79628  0.24944  1.0000 0.9150447816
Cu  Cu2       1.0  0.98856  0.29628  0.75056  1.0000 0.9108002951
Cu  Cu3       1.0  0.48856  0.20372  0.75056  1.0000 0.9108002951
Cu  Cu4       1.0  0.01144  0.70372  0.24944  1.0000 0.9108002951
Cu  Cu5       1.0  0.49980  0.95421  0.25887  1.0000 0.9034300417
Cu  Cu6       1.0  0.00020  0.45421  0.74113  1.0000 0.9108002951
Cu  Cu7       1.0  0.50020  0.04579  0.74113  1.0000 0.9108002951
Cu  Cu8       1.0  0.99980  0.54579  0.25887  1.0000 0.9108002951
C   C1        1.0  0.43330  0.87626  0.17980  1.0000 0.5693064153
C   C2        1.0  0.06670  0.37626  0.82020  1.0000 0.5693064153
C   C3        1.0  0.56670  0.12374  0.82020  1.0000 0.5693064153
C   C4        1.0  0.93330  0.62374  0.17980  1.0000 0.5693064153
C   C5        1.0  0.58690  0.87410  0.32860  1.0000 0.5583021015
C   C6        1.0  0.91310  0.37410  0.67140  1.0000 0.5583021015
C   C7        1.0  0.41310  0.12590  0.67140  1.0000 0.5583021015
C   C8        1.0  0.08690  0.62590  0.32860  1.0000 0.5583021015
C   C9        1.0  0.27100  0.74102  0.18370  1.0000 0.5521786481
C   C10       1.0  0.22900  0.24102  0.81630  1.0000 0.5521786481
C   C11       1.0  0.72900  0.25898  0.81630  1.0000 0.5521786481
C   C12       1.0  0.77100  0.75898  0.18370  1.0000 0.5521786481
C   C13       1.0  0.25760  0.76304  0.33380  1.0000 0.5398150429
C   C14       1.0  0.24240  0.26304  0.66620  1.0000 0.5398150429
C   C15       1.0  0.74240  0.23696  0.66620  1.0000 0.5398150429
C   C16       1.0  0.75760  0.73696  0.33380  1.0000 0.5398150429
C   C17       1.0  0.57830  0.98924  0.99810  1.0000 0.5583021015
C   C18       1.0  0.92170  0.48924  0.00190  1.0000 0.5583021015
C   C19       1.0  0.42170  0.01076  0.00190  1.0000 0.5583021015
C   C20       1.0  0.07830  0.51076  0.99810  1.0000 0.5583021015
C   C21       1.0  0.42870  0.98837  0.51340  1.0000 0.5398150429
C   C22       1.0  0.07130  0.48837  0.48660  1.0000 0.5398150429
C   C23       1.0  0.57130  0.01163  0.48660  1.0000 0.5398150429
C   C24       1.0  0.92870  0.51163  0.51340  1.0000 0.5398150429
O   O1        1.0  0.38379  0.84523  0.10756  1.0000 -0.4179148667
O   O2        1.0  0.11621  0.34523  0.89244  1.0000 -0.4179148667
O   O3        1.0  0.61621  0.15477  0.89244  1.0000 -0.4179148667
O   O4        1.0  0.88379  0.65477  0.10756  1.0000 -0.4179148667
O   O5        1.0  0.37070  0.90964  0.14444  1.0000 -0.4297164969
O   O6        1.0  0.12930  0.40964  0.85556  1.0000 -0.4297164969
O   O7        1.0  0.62930  0.09036  0.85556  1.0000 -0.4297164969
O   O8        1.0  0.87070  0.59036  0.14444  1.0000 -0.4297164969
O   O9        1.0  0.63368  0.84017  0.37846  1.0000 -0.4398073435
O   O10       1.0  0.86632  0.34017  0.62154  1.0000 -0.4398073435
O   O11       1.0  0.36632  0.15983  0.62154  1.0000 -0.4398073435
O   O12       1.0  0.13368  0.65983  0.37846  1.0000 -0.4398073435
O   O13       1.0  0.65068  0.90546  0.38510  1.0000 -0.4179148667
O   O14       1.0  0.84932  0.40546  0.61490  1.0000 -0.4179148667
O   O15       1.0  0.34932  0.09454  0.61490  1.0000 -0.4179148667
O   O16       1.0  0.15068  0.59454  0.38510  1.0000 -0.4179148667
O   O17       1.0  0.34825  0.79275  0.37597  1.0000 -0.449358208
O   O18       1.0  0.15175  0.29275  0.62403  1.0000 -0.449358208
O   O19       1.0  0.65175  0.20725  0.62403  1.0000 -0.449358208
O   O20       1.0  0.84825  0.70725  0.37597  1.0000 -0.449358208
O   O21       1.0  0.16348  0.75061  0.40216  1.0000 -0.4015452643
O   O22       1.0  0.33652  0.25061  0.59784  1.0000 -0.4015452643
O   O23       1.0  0.83652  0.24939  0.59784  1.0000 -0.4015452643
O   O24       1.0  0.66348  0.74939  0.40216  1.0000 -0.4015452643
O   O25       1.0  0.37359  0.75395  0.12223  1.0000 -0.449358208
O   O26       1.0  0.12641  0.25395  0.87777  1.0000 -0.449358208
O   O27       1.0  0.62641  0.24605  0.87777  1.0000 -0.449358208
O   O28       1.0  0.87359  0.74605  0.12223  1.0000 -0.449358208
O   O29       1.0  0.18090  0.71238  0.13493  1.0000 -0.4088457108
O   O30       1.0  0.31910  0.21238  0.86507  1.0000 -0.4088457108
O   O31       1.0  0.81910  0.28762  0.86507  1.0000 -0.4088457108
O   O32       1.0  0.68090  0.78762  0.13493  1.0000 -0.4088457108
O   O33       1.0  0.61898  0.95974  0.09008  1.0000 -0.449358208
O   O34       1.0  0.88102  0.45974  0.90992  1.0000 -0.449358208
O   O35       1.0  0.38102  0.04026  0.90992  1.0000 -0.449358208
O   O36       1.0  0.11898  0.54026  0.09008  1.0000 -0.449358208
O   O37       1.0  0.65130  0.00159  0.90850  1.0000 -0.4015452643
O   O38       1.0  0.84870  0.50159  0.09150  1.0000 -0.4015452643
O   O39       1.0  0.34870  0.99841  0.09150  1.0000 -0.4088457108
O   O40       1.0  0.15130  0.49841  0.90850  1.0000 -0.4088457108
O   O41       1.0  0.38129  0.95885  0.42749  1.0000 -0.4297164969
O   O42       1.0  0.11871  0.45885  0.57251  1.0000 -0.4297164969
O   O43       1.0  0.61871  0.04115  0.57251  1.0000 -0.4297164969
O   O44       1.0  0.88129  0.54115  0.42749  1.0000 -0.4297164969
O   O45       1.0  0.37280  0.00111  0.61884  1.0000 -0.4398073435
O   O46       1.0  0.12720  0.50111  0.38116  1.0000 -0.4398073435
O   O47       1.0  0.62720  0.99889  0.38116  1.0000 -0.4398073435
O   O48       1.0  0.87280  0.49889  0.61884  1.0000 -0.4398073435
