# DDEC6 charges by PACMAN v1.1 (https://github.com/mtap-research/PACMAN-charge/)
data_2017[FeNi][hcb]2[FSR]1
_chemical_formula_sum              "Fe8 Ni4 H288 C192 N12 O52"
_cell_length_a       11.933
_cell_length_b       27.683
_cell_length_c       30.421
_cell_angle_alpha    65.023
_cell_angle_beta     83.52
_cell_angle_gamma    85.419

_symmetry_space_group_name_H-M    "P 1"
_symmetry_Int_Tables_number       1

loop_
  _symmetry_equiv_pos_as_xyz
  'x, y, z'

loop_
  _atom_site_type_symbol
  _atom_site_label
  _atom_site_symmetry_multiplicity
  _atom_site_fract_x
  _atom_site_fract_y
  _atom_site_fract_z
  _atom_site_occupancy
  _atom_site_charge
Fe  Fe1       1.0  0.88905  0.66719  0.85282  1.0000 1.1359094832
Fe  Fe2       1.0  0.86234  0.55175  0.84920  1.0000 1.1195050333
Fe  Fe3       1.0  0.86893  0.90797  0.16127  1.0000 1.1270732933
Fe  Fe4       1.0  0.83705  0.02818  0.15779  1.0000 1.1270732933
Fe  Fe5       1.0  0.11095  0.33281  0.14718  1.0000 1.1359094832
Fe  Fe6       1.0  0.13766  0.44825  0.15080  1.0000 1.1123981927
Fe  Fe7       1.0  0.13107  0.09203  0.83873  1.0000 1.1195050333
Fe  Fe8       1.0  0.16295  0.97182  0.84221  1.0000 1.1270732933
Ni  Ni1       1.0  0.89655  0.65995  0.74832  1.0000 0.9534718547
Ni  Ni2       1.0  0.86823  0.92558  0.26147  1.0000 0.9572775517
Ni  Ni3       1.0  0.10345  0.34005  0.25168  1.0000 0.9534718547
Ni  Ni4       1.0  0.13177  0.07442  0.73853  1.0000 0.9572775517
H   H1        1.0  0.55890  0.51310  0.95740  1.0000 0.1298777047
H   H2        1.0  0.43950  0.54470  0.94740  1.0000 0.1382459114
H   H3        1.0  0.52210  0.54230  0.90300  1.0000 0.1298777047
H   H4        1.0  0.61170  0.62980  0.97270  1.0000 0.1298777047
H   H5        1.0  0.50040  0.59570  0.99260  1.0000 0.1298777047
H   H6        1.0  0.62220  0.56610  0.99780  1.0000 0.1298777047
H   H7        1.0  0.54080  0.67670  0.88920  1.0000 0.1382459114
H   H8        1.0  0.50980  0.64200  0.86170  1.0000 0.1382459114
H   H9        1.0  0.42860  0.64310  0.90690  1.0000 0.1298777047
H   H10       1.0  0.22850  0.59920  0.86490  1.0000 0.1382459114
H   H11       1.0  0.29880  0.54660  0.89680  1.0000 0.1298777047
H   H12       1.0  0.20140  0.54280  0.86650  1.0000 0.1382459114
H   H13       1.0  0.17040  0.61980  0.93440  1.0000 0.1298777047
H   H14       1.0  0.11320  0.57560  0.98360  1.0000 0.1298777047
H   H15       1.0  0.24410  0.56940  0.96770  1.0000 0.1298777047
H   H16       1.0  0.09220  0.48340  0.98840  1.0000 0.1382459114
H   H17       1.0  0.12140  0.47360  0.94010  1.0000 0.1206237111
H   H18       1.0  0.22090  0.48010  0.96810  1.0000 0.1298777047
H   H19       1.0  0.58170  0.77220  0.82420  1.0000 0.1298777047
H   H20       1.0  0.67890  0.81460  0.80750  1.0000 0.1298777047
H   H21       1.0  0.55990  0.83170  0.78470  1.0000 0.1206237111
H   H22       1.0  0.74330  0.82570  0.68770  1.0000 0.1382459114
H   H23       1.0  0.65690  0.86300  0.70480  1.0000 0.1206237111
H   H24       1.0  0.77610  0.84460  0.72740  1.0000 0.1298777047
H   H25       1.0  0.59230  0.75620  0.71490  1.0000 0.1298777047
H   H26       1.0  0.53430  0.73660  0.76940  1.0000 0.1298777047
H   H27       1.0  0.50950  0.79600  0.73010  1.0000 0.1298777047
H   H28       1.0  0.23750  0.70460  0.82420  1.0000 0.1298777047
H   H29       1.0  0.30930  0.75560  0.79000  1.0000 0.1298777047
H   H30       1.0  0.18640  0.76330  0.81370  1.0000 0.1298777047
H   H31       1.0  0.29250  0.68550  0.75290  1.0000 0.1382459114
H   H32       1.0  0.22040  0.71300  0.70670  1.0000 0.1298777047
H   H33       1.0  0.32240  0.74370  0.71220  1.0000 0.1298777047
H   H34       1.0  0.22900  0.81460  0.69700  1.0000 0.1298777047
H   H35       1.0  0.13320  0.78510  0.68580  1.0000 0.1206237111
H   H36       1.0  0.10140  0.81750  0.71870  1.0000 0.1382459114
H   H37       1.0  0.48450  0.51830  0.77030  1.0000 0.1206237111
H   H38       1.0  0.61210  0.49550  0.77560  1.0000 0.1298777047
H   H39       1.0  0.54780  0.51310  0.81590  1.0000 0.1206237111
H   H40       1.0  0.43870  0.60970  0.75250  1.0000 0.1298777047
H   H41       1.0  0.50600  0.60870  0.79550  1.0000 0.1382459114
H   H42       1.0  0.53510  0.65150  0.74080  1.0000 0.1382459114
H   H43       1.0  0.53740  0.58330  0.68910  1.0000 0.1206237111
H   H44       1.0  0.63090  0.62580  0.67950  1.0000 0.1206237111
H   H45       1.0  0.66790  0.56490  0.69210  1.0000 0.1298777047
H   H46       1.0  0.04360  0.50880  0.70730  1.0000 0.1298777047
H   H47       1.0  0.08240  0.56900  0.67820  1.0000 0.1111090304
H   H48       1.0  0.17180  0.52050  0.68520  1.0000 0.1206237111
H   H49       1.0  0.11790  0.45760  0.80030  1.0000 0.1206237111
H   H50       1.0  0.24140  0.46780  0.77210  1.0000 0.1206237111
H   H51       1.0  0.20470  0.49100  0.81180  1.0000 0.1206237111
H   H52       1.0  0.26450  0.57510  0.75310  1.0000 0.1298777047
H   H53       1.0  0.29010  0.55680  0.70950  1.0000 0.1206237111
H   H54       1.0  0.20400  0.60600  0.70380  1.0000 0.1298777047
H   H55       1.0  0.60790  0.77480  0.23590  1.0000 0.1298777047
H   H56       1.0  0.48280  0.78680  0.25480  1.0000 0.1206237111
H   H57       1.0  0.54840  0.83240  0.20920  1.0000 0.1298777047
H   H58       1.0  0.44320  0.84890  0.29600  1.0000 0.1298777047
H   H59       1.0  0.54550  0.87750  0.30410  1.0000 0.1382459114
H   H60       1.0  0.50790  0.89490  0.25050  1.0000 0.1382459114
H   H61       1.0  0.67400  0.75000  0.31740  1.0000 0.1298777047
H   H62       1.0  0.65510  0.79130  0.34210  1.0000 0.1206237111
H   H63       1.0  0.55000  0.76150  0.33780  1.0000 0.1206237111
H   H64       1.0  0.19400  0.84220  0.30100  1.0000 0.1206237111
H   H65       1.0  0.15670  0.78510  0.30770  1.0000 0.1298777047
H   H66       1.0  0.28340  0.80310  0.28770  1.0000 0.1111090304
H   H67       1.0  0.23760  0.91100  0.21890  1.0000 0.1382459114
H   H68       1.0  0.32550  0.86910  0.20900  1.0000 0.1298777047
H   H69       1.0  0.22940  0.89800  0.17280  1.0000 0.1382459114
H   H70       1.0  0.26570  0.78050  0.22250  1.0000 0.1111090304
H   H71       1.0  0.13490  0.76720  0.23640  1.0000 0.1206237111
H   H72       1.0  0.17590  0.81050  0.18340  1.0000 0.1206237111
H   H73       1.0  0.62030  0.04590  0.02300  1.0000 0.1298777047
H   H74       1.0  0.48800  0.05260  0.03610  1.0000 0.1298777047
H   H75       1.0  0.57730  0.07520  0.05760  1.0000 0.1298777047
H   H76       1.0  0.55120  0.91350  0.10760  1.0000 0.1298777047
H   H77       1.0  0.47380  0.95270  0.06630  1.0000 0.1382459114
H   H78       1.0  0.60680  0.94740  0.05370  1.0000 0.1298777047
H   H79       1.0  0.47800  0.95740  0.16090  1.0000 0.1382459114
H   H80       1.0  0.48930  0.02020  0.14340  1.0000 0.1382459114
H   H81       1.0  0.40100  0.99870  0.12050  1.0000 0.1382459114
H   H82       1.0  0.03580  0.08990  0.01190  1.0000 0.1206237111
H   H83       1.0  0.14860  0.07440  0.98610  1.0000 0.1298777047
H   H84       1.0  0.03590  0.04290  0.99440  1.0000 0.1382459114
H   H85       1.0  0.20510  0.02370  0.11030  1.0000 0.1298777047
H   H86       1.0  0.24830  0.06360  0.05620  1.0000 0.1298777047
H   H87       1.0  0.13410  0.07760  0.08220  1.0000 0.1298777047
H   H88       1.0  0.21050  0.94930  0.08500  1.0000 0.1298777047
H   H89       1.0  0.14410  0.95560  0.04000  1.0000 0.1298777047
H   H90       1.0  0.25500  0.98860  0.03090  1.0000 0.1298777047
H   H91       1.0  0.22320  0.04070  0.19350  1.0000 0.1382459114
H   H92       1.0  0.14870  0.09340  0.16530  1.0000 0.1298777047
H   H93       1.0  0.23600  0.09340  0.20160  1.0000 0.1298777047
H   H94       1.0  0.17650  0.99130  0.28600  1.0000 0.1298777047
H   H95       1.0  0.18690  0.04590  0.29130  1.0000 0.1298777047
H   H96       1.0  0.07170  0.01460  0.30980  1.0000 0.1298777047
H   H97       1.0  0.08540  0.12750  0.24540  1.0000 0.1298777047
H   H98       1.0  0.99940  0.12890  0.20820  1.0000 0.1298777047
H   H99       1.0  0.97030  0.09630  0.26550  1.0000 0.1382459114
H   H100      1.0  0.55990  0.10300  0.28540  1.0000 0.1298777047
H   H101      1.0  0.68930  0.08270  0.28930  1.0000 0.1382459114
H   H102      1.0  0.64090  0.11260  0.23710  1.0000 0.1298777047
H   H103      1.0  0.53700  0.96240  0.32560  1.0000 0.1298777047
H   H104      1.0  0.62380  0.98900  0.34460  1.0000 0.1298777047
H   H105      1.0  0.49570  0.01120  0.33920  1.0000 0.1298777047
H   H106      1.0  0.46760  0.01230  0.24310  1.0000 0.1382459114
H   H107      1.0  0.42930  0.06350  0.25350  1.0000 0.1298777047
H   H108      1.0  0.51710  0.06930  0.20790  1.0000 0.1382459114
H   H109      1.0  0.85700  0.64880  0.95990  1.0000 0.1206237111
H   H110      1.0  0.84910  0.69110  0.01190  1.0000 0.1298777047
H   H111      1.0  0.92990  0.82530  0.89580  1.0000 0.1382459114
H   H112      1.0  0.93460  0.78100  0.84700  1.0000 0.1206237111
H   H113      1.0  0.82530  0.81930  0.98430  1.0000 0.1298777047
H   H114      1.0  0.96020  0.81540  0.98080  1.0000 0.1206237111
H   H115      1.0  0.95450  0.73450  0.05150  1.0000 0.1111090304
H   H116      1.0  0.81930  0.73800  0.05500  1.0000 0.1206237111
H   H117      1.0  0.71410  0.79980  0.08370  1.0000 0.1382459114
H   H118      1.0  0.71360  0.85080  0.12720  1.0000 0.1206237111
H   H119      1.0  0.04430  0.85360  0.11180  1.0000 0.1206237111
H   H120      1.0  0.05520  0.79650  0.07360  1.0000 0.1382459114
H   H121      1.0  0.67210  0.46990  0.89790  1.0000 0.1206237111
H   H122      1.0  0.64430  0.38230  0.94780  1.0000 0.1382459114
H   H123      1.0  0.98020  0.35720  0.93850  1.0000 0.1298777047
H   H124      1.0  0.99990  0.44600  0.88930  1.0000 0.1206237111
H   H125      1.0  0.88000  0.28600  0.97420  1.0000 0.1111090304
H   H126      1.0  0.75640  0.28850  0.95810  1.0000 0.1206237111
H   H127      1.0  0.79560  0.29990  0.04180  1.0000 0.1382459114
H   H128      1.0  0.67660  0.29240  0.02670  1.0000 0.1382459114
H   H129      1.0  0.77400  0.22800  0.11980  1.0000 0.1382459114
H   H130      1.0  0.80890  0.13940  0.16490  1.0000 0.1206237111
H   H131      1.0  0.80070  0.10690  0.05260  1.0000 0.1206237111
H   H132      1.0  0.77040  0.19490  0.00300  1.0000 0.1382459114
H   H133      1.0  0.74790  0.70960  0.66340  1.0000 0.1206237111
H   H134      1.0  0.75450  0.74720  0.57880  1.0000 0.1382459114
H   H135      1.0  0.08220  0.72950  0.57260  1.0000 0.1382459114
H   H136      1.0  0.07160  0.69050  0.65740  1.0000 0.1206237111
H   H137      1.0  0.87130  0.75580  0.50250  1.0000 0.1206237111
H   H138      1.0  0.00320  0.76560  0.49890  1.0000 0.1111090304
H   H139      1.0  0.83170  0.83780  0.51100  1.0000 0.1206237111
H   H140      1.0  0.96440  0.84800  0.50130  1.0000 0.1206237111
H   H141      1.0  0.06020  0.86750  0.41860  1.0000 0.1382459114
H   H142      1.0  0.04010  0.90050  0.33560  1.0000 0.1206237111
H   H143      1.0  0.71750  0.88720  0.35710  1.0000 0.1206237111
H   H144      1.0  0.72330  0.85170  0.44050  1.0000 0.1382459114
H   H145      1.0  0.44110  0.48690  0.04260  1.0000 0.1298777047
H   H146      1.0  0.56050  0.45530  0.05260  1.0000 0.1382459114
H   H147      1.0  0.47790  0.45770  0.09700  1.0000 0.1298777047
H   H148      1.0  0.38830  0.37020  0.02730  1.0000 0.1298777047
H   H149      1.0  0.49960  0.40430  0.00740  1.0000 0.1298777047
H   H150      1.0  0.37780  0.43390  0.00220  1.0000 0.1298777047
H   H151      1.0  0.45920  0.32330  0.11080  1.0000 0.1382459114
H   H152      1.0  0.49020  0.35800  0.13830  1.0000 0.1382459114
H   H153      1.0  0.57140  0.35690  0.09310  1.0000 0.1298777047
H   H154      1.0  0.77150  0.40080  0.13510  1.0000 0.1382459114
H   H155      1.0  0.70120  0.45340  0.10320  1.0000 0.1298777047
H   H156      1.0  0.79860  0.45720  0.13350  1.0000 0.1382459114
H   H157      1.0  0.82960  0.38020  0.06560  1.0000 0.1298777047
H   H158      1.0  0.88680  0.42440  0.01640  1.0000 0.1298777047
H   H159      1.0  0.75590  0.43060  0.03230  1.0000 0.1298777047
H   H160      1.0  0.90780  0.51660  0.01160  1.0000 0.1382459114
H   H161      1.0  0.87860  0.52640  0.05990  1.0000 0.1206237111
H   H162      1.0  0.77910  0.51990  0.03190  1.0000 0.1298777047
H   H163      1.0  0.41830  0.22780  0.17580  1.0000 0.1298777047
H   H164      1.0  0.32110  0.18540  0.19250  1.0000 0.1298777047
H   H165      1.0  0.44010  0.16830  0.21530  1.0000 0.1206237111
H   H166      1.0  0.25670  0.17430  0.31230  1.0000 0.1382459114
H   H167      1.0  0.34310  0.13700  0.29520  1.0000 0.1206237111
H   H168      1.0  0.22390  0.15540  0.27260  1.0000 0.1298777047
H   H169      1.0  0.40770  0.24380  0.28510  1.0000 0.1298777047
H   H170      1.0  0.46570  0.26340  0.23060  1.0000 0.1298777047
H   H171      1.0  0.49050  0.20400  0.26990  1.0000 0.1298777047
H   H172      1.0  0.76250  0.29540  0.17580  1.0000 0.1298777047
H   H173      1.0  0.69070  0.24440  0.21000  1.0000 0.1298777047
H   H174      1.0  0.81360  0.23670  0.18630  1.0000 0.1298777047
H   H175      1.0  0.70750  0.31450  0.24710  1.0000 0.1382459114
H   H176      1.0  0.77960  0.28700  0.29330  1.0000 0.1298777047
H   H177      1.0  0.67760  0.25630  0.28780  1.0000 0.1298777047
H   H178      1.0  0.77100  0.18540  0.30300  1.0000 0.1298777047
H   H179      1.0  0.86680  0.21490  0.31420  1.0000 0.1206237111
H   H180      1.0  0.89860  0.18250  0.28130  1.0000 0.1382459114
H   H181      1.0  0.51550  0.48170  0.22970  1.0000 0.1206237111
H   H182      1.0  0.38790  0.50450  0.22440  1.0000 0.1298777047
H   H183      1.0  0.45220  0.48690  0.18410  1.0000 0.1206237111
H   H184      1.0  0.56130  0.39030  0.24750  1.0000 0.1298777047
H   H185      1.0  0.49400  0.39130  0.20450  1.0000 0.1382459114
H   H186      1.0  0.46490  0.34850  0.25920  1.0000 0.1382459114
H   H187      1.0  0.46260  0.41670  0.31090  1.0000 0.1206237111
H   H188      1.0  0.36910  0.37420  0.32050  1.0000 0.1206237111
H   H189      1.0  0.33210  0.43510  0.30790  1.0000 0.1298777047
H   H190      1.0  0.95640  0.49120  0.29270  1.0000 0.1298777047
H   H191      1.0  0.91760  0.43100  0.32180  1.0000 0.1111090304
H   H192      1.0  0.82820  0.47950  0.31480  1.0000 0.1206237111
H   H193      1.0  0.88210  0.54240  0.19970  1.0000 0.1298777047
H   H194      1.0  0.75860  0.53220  0.22790  1.0000 0.1206237111
H   H195      1.0  0.79530  0.50900  0.18820  1.0000 0.1206237111
H   H196      1.0  0.73550  0.42490  0.24690  1.0000 0.1298777047
H   H197      1.0  0.70990  0.44320  0.29050  1.0000 0.1206237111
H   H198      1.0  0.79600  0.39400  0.29620  1.0000 0.1298777047
H   H199      1.0  0.39210  0.22520  0.76410  1.0000 0.1298777047
H   H200      1.0  0.51720  0.21320  0.74520  1.0000 0.1206237111
H   H201      1.0  0.45160  0.16760  0.79080  1.0000 0.1298777047
H   H202      1.0  0.55680  0.15110  0.70400  1.0000 0.1298777047
H   H203      1.0  0.45450  0.12250  0.69590  1.0000 0.1382459114
H   H204      1.0  0.49210  0.10510  0.74950  1.0000 0.1382459114
H   H205      1.0  0.32600  0.25000  0.68260  1.0000 0.1298777047
H   H206      1.0  0.34490  0.20870  0.65790  1.0000 0.1206237111
H   H207      1.0  0.45000  0.23850  0.66220  1.0000 0.1206237111
H   H208      1.0  0.80600  0.15780  0.69900  1.0000 0.1206237111
H   H209      1.0  0.84330  0.21490  0.69230  1.0000 0.1298777047
H   H210      1.0  0.71660  0.19690  0.71230  1.0000 0.1111090304
H   H211      1.0  0.76240  0.08900  0.78110  1.0000 0.1382459114
H   H212      1.0  0.67450  0.13090  0.79100  1.0000 0.1298777047
H   H213      1.0  0.77060  0.10200  0.82720  1.0000 0.1382459114
H   H214      1.0  0.73430  0.21950  0.77750  1.0000 0.1206237111
H   H215      1.0  0.86510  0.23280  0.76360  1.0000 0.1206237111
H   H216      1.0  0.82410  0.18950  0.81660  1.0000 0.1206237111
H   H217      1.0  0.37970  0.95410  0.97700  1.0000 0.1298777047
H   H218      1.0  0.51200  0.94740  0.96390  1.0000 0.1298777047
H   H219      1.0  0.42270  0.92480  0.94240  1.0000 0.1298777047
H   H220      1.0  0.44880  0.08650  0.89240  1.0000 0.1298777047
H   H221      1.0  0.52620  0.04730  0.93370  1.0000 0.1382459114
H   H222      1.0  0.39320  0.05260  0.94630  1.0000 0.1298777047
H   H223      1.0  0.52200  0.04260  0.83910  1.0000 0.1382459114
H   H224      1.0  0.51070  0.97980  0.85660  1.0000 0.1382459114
H   H225      1.0  0.59900  0.00130  0.87950  1.0000 0.1382459114
H   H226      1.0  0.96420  0.91010  0.98810  1.0000 0.1206237111
H   H227      1.0  0.85140  0.92560  0.01390  1.0000 0.1298777047
H   H228      1.0  0.96410  0.95710  0.00560  1.0000 0.1382459114
H   H229      1.0  0.79490  0.97630  0.88970  1.0000 0.1298777047
H   H230      1.0  0.75170  0.93640  0.94380  1.0000 0.1298777047
H   H231      1.0  0.86590  0.92240  0.91780  1.0000 0.1298777047
H   H232      1.0  0.78950  0.05070  0.91500  1.0000 0.1298777047
H   H233      1.0  0.85590  0.04440  0.96000  1.0000 0.1298777047
H   H234      1.0  0.74500  0.01140  0.96910  1.0000 0.1298777047
H   H235      1.0  0.77680  0.95930  0.80650  1.0000 0.1382459114
H   H236      1.0  0.85130  0.90660  0.83470  1.0000 0.1298777047
H   H237      1.0  0.76400  0.90660  0.79840  1.0000 0.1298777047
H   H238      1.0  0.82350  0.00870  0.71400  1.0000 0.1298777047
H   H239      1.0  0.81310  0.95410  0.70870  1.0000 0.1298777047
H   H240      1.0  0.92830  0.98540  0.69020  1.0000 0.1298777047
H   H241      1.0  0.91460  0.87250  0.75460  1.0000 0.1298777047
H   H242      1.0  0.00060  0.87110  0.79180  1.0000 0.1298777047
H   H243      1.0  0.02970  0.90370  0.73450  1.0000 0.1382459114
H   H244      1.0  0.44010  0.89700  0.71460  1.0000 0.1298777047
H   H245      1.0  0.31070  0.91730  0.71070  1.0000 0.1382459114
H   H246      1.0  0.35910  0.88740  0.76290  1.0000 0.1298777047
H   H247      1.0  0.46300  0.03760  0.67440  1.0000 0.1298777047
H   H248      1.0  0.37620  0.01100  0.65540  1.0000 0.1298777047
H   H249      1.0  0.50430  0.98880  0.66080  1.0000 0.1298777047
H   H250      1.0  0.53240  0.98770  0.75690  1.0000 0.1382459114
H   H251      1.0  0.57070  0.93650  0.74650  1.0000 0.1298777047
H   H252      1.0  0.48290  0.93070  0.79210  1.0000 0.1382459114
H   H253      1.0  0.14300  0.35120  0.04010  1.0000 0.1206237111
H   H254      1.0  0.15090  0.30890  0.98810  1.0000 0.1298777047
H   H255      1.0  0.07010  0.17470  0.10420  1.0000 0.1382459114
H   H256      1.0  0.06540  0.21900  0.15300  1.0000 0.1206237111
H   H257      1.0  0.17470  0.18070  0.01570  1.0000 0.1298777047
H   H258      1.0  0.03980  0.18460  0.01920  1.0000 0.1206237111
H   H259      1.0  0.04550  0.26550  0.94850  1.0000 0.1111090304
H   H260      1.0  0.18070  0.26200  0.94500  1.0000 0.1206237111
H   H261      1.0  0.28590  0.20020  0.91630  1.0000 0.1382459114
H   H262      1.0  0.28640  0.14920  0.87280  1.0000 0.1206237111
H   H263      1.0  0.95570  0.14640  0.88820  1.0000 0.1206237111
H   H264      1.0  0.94480  0.20350  0.92640  1.0000 0.1382459114
H   H265      1.0  0.32790  0.53010  0.10210  1.0000 0.1206237111
H   H266      1.0  0.35570  0.61770  0.05220  1.0000 0.1382459114
H   H267      1.0  0.01980  0.64280  0.06150  1.0000 0.1298777047
H   H268      1.0  0.00010  0.55400  0.11070  1.0000 0.1206237111
H   H269      1.0  0.12000  0.71400  0.02580  1.0000 0.1111090304
H   H270      1.0  0.24360  0.71150  0.04190  1.0000 0.1206237111
H   H271      1.0  0.20440  0.70010  0.95820  1.0000 0.1298777047
H   H272      1.0  0.32340  0.70760  0.97330  1.0000 0.1382459114
H   H273      1.0  0.22600  0.77200  0.88020  1.0000 0.1382459114
H   H274      1.0  0.19110  0.86060  0.83510  1.0000 0.1206237111
H   H275      1.0  0.19930  0.89310  0.94740  1.0000 0.1206237111
H   H276      1.0  0.22960  0.80510  0.99700  1.0000 0.1382459114
H   H277      1.0  0.25210  0.29040  0.33660  1.0000 0.1206237111
H   H278      1.0  0.24550  0.25280  0.42120  1.0000 0.1382459114
H   H279      1.0  0.91780  0.27050  0.42740  1.0000 0.1382459114
H   H280      1.0  0.92840  0.30950  0.34260  1.0000 0.1206237111
H   H281      1.0  0.12870  0.24420  0.49750  1.0000 0.1111090304
H   H282      1.0  0.99680  0.23440  0.50110  1.0000 0.1111090304
H   H283      1.0  0.16830  0.16220  0.48900  1.0000 0.1206237111
H   H284      1.0  0.03560  0.15200  0.49870  1.0000 0.1206237111
H   H285      1.0  0.93980  0.13250  0.58140  1.0000 0.1382459114
H   H286      1.0  0.95990  0.09950  0.66440  1.0000 0.1206237111
H   H287      1.0  0.28250  0.11280  0.64290  1.0000 0.1206237111
H   H288      1.0  0.27670  0.14830  0.55950  1.0000 0.1382459114
C   C1        1.0  0.69630  0.59640  0.90470  1.0000 0.5788010242
C   C2        1.0  0.57390  0.59560  0.92820  1.0000 0.2012503822
C   C3        1.0  0.51860  0.54430  0.93460  1.0000 -0.4802118983
C   C4        1.0  0.57730  0.59690  0.97710  1.0000 -0.4697179959
C   C5        1.0  0.50730  0.64370  0.89340  1.0000 -0.4802118983
C   C6        1.0  0.02670  0.56920  0.90730  1.0000 0.5788010242
C   C7        1.0  0.14000  0.55160  0.92830  1.0000 0.2012503822
C   C8        1.0  0.22450  0.56090  0.88540  1.0000 -0.4503427719
C   C9        1.0  0.16940  0.58170  0.95590  1.0000 -0.4879625287
C   C10       1.0  0.14400  0.49190  0.95890  1.0000 -0.4598842286
C   C11       1.0  0.75360  0.74240  0.77070  1.0000 0.5733710382
C   C12       1.0  0.66190  0.78530  0.75520  1.0000 0.1608221982
C   C13       1.0  0.61640  0.80250  0.79680  1.0000 -0.4503427719
C   C14       1.0  0.71410  0.83380  0.71530  1.0000 -0.4503427719
C   C15       1.0  0.56680  0.76700  0.74130  1.0000 -0.4598842286
C   C16       1.0  0.07020  0.71530  0.77280  1.0000 0.5788010242
C   C17       1.0  0.18270  0.74360  0.75670  1.0000 0.1777604852
C   C18       1.0  0.23330  0.74160  0.79980  1.0000 -0.4697179959
C   C19       1.0  0.26110  0.71940  0.72990  1.0000 -0.4697179959
C   C20       1.0  0.15940  0.79500  0.71020  1.0000 -0.4413921754
C   C21       1.0  0.71190  0.58380  0.76820  1.0000 0.5733710382
C   C22       1.0  0.59840  0.57640  0.75280  1.0000 0.1694452468
C   C23       1.0  0.55710  0.52110  0.78110  1.0000 -0.4413921754
C   C24       1.0  0.51210  0.61490  0.76110  1.0000 -0.4598842286
C   C25       1.0  0.60970  0.58870  0.69840  1.0000 -0.4293102432
C   C26       1.0  0.03270  0.55840  0.76630  1.0000 0.5788010242
C   C27       1.0  0.13510  0.53330  0.74760  1.0000 0.1542494946
C   C28       1.0  0.10560  0.53280  0.70040  1.0000 -0.4293102432
C   C29       1.0  0.17850  0.48310  0.78630  1.0000 -0.4413921754
C   C30       1.0  0.23200  0.57110  0.72660  1.0000 -0.4503427719
C   C31       1.0  0.71800  0.85000  0.25220  1.0000 0.5788010242
C   C32       1.0  0.60480  0.82040  0.27470  1.0000 0.1694452468
C   C33       1.0  0.55680  0.80200  0.24070  1.0000 -0.4503427719
C   C34       1.0  0.51660  0.86480  0.28200  1.0000 -0.4598842286
C   C35       1.0  0.62240  0.77730  0.32190  1.0000 -0.4413921754
C   C36       1.0  0.04860  0.86130  0.23250  1.0000 0.5788010242
C   C37       1.0  0.17050  0.83940  0.23670  1.0000 0.1608221982
C   C38       1.0  0.20410  0.81540  0.28770  1.0000 -0.4293102432
C   C39       1.0  0.24720  0.88310  0.20680  1.0000 -0.4503427719
C   C40       1.0  0.18840  0.79540  0.21810  1.0000 -0.4293102432
C   C41       1.0  0.67890  0.98560  0.11350  1.0000 0.5788010242
C   C42       1.0  0.56650  0.99310  0.09290  1.0000 0.1870416481
C   C43       1.0  0.56270  0.04640  0.04840  1.0000 -0.4697179959
C   C44       1.0  0.54790  0.94760  0.07890  1.0000 -0.4697179959
C   C45       1.0  0.47540  0.99230  0.13310  1.0000 -0.4697179959
C   C46       1.0  0.00810  0.99930  0.09210  1.0000 0.5788010242
C   C47       1.0  0.11530  0.01980  0.05820  1.0000 0.206877165
C   C48       1.0  0.08070  0.06050  0.00810  1.0000 -0.4697179959
C   C49       1.0  0.18150  0.04870  0.07850  1.0000 -0.4802118983
C   C50       1.0  0.18770  0.97430  0.05310  1.0000 -0.4802118983
C   C51       1.0  0.00280  0.02530  0.22650  1.0000 0.5788010242
C   C52       1.0  0.09440  0.05430  0.23620  1.0000 0.1777604852
C   C53       1.0  0.18290  0.07190  0.19580  1.0000 -0.4697179959
C   C54       1.0  0.13590  0.02390  0.28500  1.0000 -0.4598842286
C   C55       1.0  0.03110  0.10700  0.23910  1.0000 -0.4598842286
C   C56       1.0  0.69110  0.01170  0.25070  1.0000 0.5788010242
C   C57       1.0  0.59100  0.03450  0.27370  1.0000 0.1694452468
C   C58       1.0  0.62320  0.08800  0.27110  1.0000 -0.4503427719
C   C59       1.0  0.55910  0.99590  0.32530  1.0000 -0.4598842286
C   C60       1.0  0.49220  0.04590  0.24160  1.0000 -0.4598842286
C   C61       1.0  0.87170  0.68570  0.94630  1.0000 0.0983302964
C   C62       1.0  0.86810  0.71060  0.97800  1.0000 -0.2284800481
C   C63       1.0  0.89200  0.76300  0.96000  1.0000 0.1608221982
C   C64       1.0  0.91490  0.78830  0.91020  1.0000 -0.2212994939
C   C65       1.0  0.91660  0.76180  0.88110  1.0000 0.0983302964
C   C66       1.0  0.89160  0.79410  0.99080  1.0000 -0.2373843264
C   C67       1.0  0.88780  0.75940  0.04460  1.0000 -0.245836034
C   C68       1.0  0.88680  0.79240  0.07300  1.0000 0.1694452468
C   C69       1.0  0.78340  0.80950  0.08980  1.0000 -0.2113044143
C   C70       1.0  0.78390  0.84030  0.11530  1.0000 0.1111090304
C   C71       1.0  0.97660  0.84110  0.10710  1.0000 0.0983302964
C   C72       1.0  0.98340  0.80820  0.08310  1.0000 -0.2113044143
C   C73       1.0  0.73630  0.44640  0.90670  1.0000 0.0983302964
C   C74       1.0  0.71860  0.39440  0.93590  1.0000 -0.2003479497
C   C75       1.0  0.80900  0.35980  0.94780  1.0000 0.1608221982
C   C76       1.0  0.91500  0.38020  0.93030  1.0000 -0.2113044143
C   C77       1.0  0.92630  0.43290  0.90140  1.0000 0.0983302964
C   C78       1.0  0.80290  0.30180  0.97530  1.0000 -0.2373843264
C   C79       1.0  0.75780  0.28200  0.02570  1.0000 -0.2373843264
C   C80       1.0  0.77000  0.22200  0.05520  1.0000 0.1608221982
C   C81       1.0  0.78050  0.20380  0.10480  1.0000 -0.2212994939
C   C82       1.0  0.80000  0.15110  0.13130  1.0000 0.0983302964
C   C83       1.0  0.79590  0.13220  0.06630  1.0000 0.0912323486
C   C84       1.0  0.77780  0.18440  0.03660  1.0000 -0.2212994939
C   C85       1.0  0.81970  0.71510  0.64530  1.0000 0.0728595187
C   C86       1.0  0.82250  0.73810  0.59450  1.0000 -0.2373843264
C   C87       1.0  0.92450  0.74720  0.56800  1.0000 0.1382459114
C   C88       1.0  0.01100  0.72810  0.59050  1.0000 -0.2113044143
C   C89       1.0  0.00390  0.70450  0.64210  1.0000 0.0912323486
C   C90       1.0  0.92780  0.77230  0.51290  1.0000 -0.2113044143
C   C91       1.0  0.90320  0.83090  0.49430  1.0000 -0.2284800481
C   C92       1.0  0.89340  0.85490  0.43850  1.0000 0.1542494946
C   C93       1.0  0.98810  0.86990  0.40720  1.0000 -0.2284800481
C   C94       1.0  0.97440  0.88900  0.35750  1.0000 0.0983302964
C   C95       1.0  0.78900  0.88120  0.36980  1.0000 0.0830116947
C   C96       1.0  0.79110  0.86110  0.41970  1.0000 -0.2212994939
C   C97       1.0  0.30370  0.40360  0.09530  1.0000 0.5788010242
C   C98       1.0  0.42610  0.40440  0.07180  1.0000 0.2012503822
C   C99       1.0  0.48140  0.45570  0.06540  1.0000 -0.4802118983
C   C100      1.0  0.42270  0.40310  0.02290  1.0000 -0.4697179959
C   C101      1.0  0.49270  0.35630  0.10660  1.0000 -0.4802118983
C   C102      1.0  0.97330  0.43080  0.09270  1.0000 0.5788010242
C   C103      1.0  0.86000  0.44840  0.07170  1.0000 0.2012503822
C   C104      1.0  0.77550  0.43910  0.11460  1.0000 -0.4503427719
C   C105      1.0  0.83060  0.41830  0.04410  1.0000 -0.4879625287
C   C106      1.0  0.85600  0.50810  0.04110  1.0000 -0.4598842286
C   C107      1.0  0.24640  0.25760  0.22930  1.0000 0.5788010242
C   C108      1.0  0.33810  0.21470  0.24480  1.0000 0.1608221982
C   C109      1.0  0.38360  0.19750  0.20320  1.0000 -0.4503427719
C   C110      1.0  0.28590  0.16620  0.28470  1.0000 -0.4503427719
C   C111      1.0  0.43320  0.23300  0.25870  1.0000 -0.4598842286
C   C112      1.0  0.92980  0.28470  0.22720  1.0000 0.5788010242
C   C113      1.0  0.81730  0.25640  0.24330  1.0000 0.1777604852
C   C114      1.0  0.76670  0.25840  0.20020  1.0000 -0.4697179959
C   C115      1.0  0.73890  0.28060  0.27010  1.0000 -0.4697179959
C   C116      1.0  0.84060  0.20500  0.28980  1.0000 -0.4413921754
C   C117      1.0  0.28810  0.41620  0.23180  1.0000 0.5733710382
C   C118      1.0  0.40160  0.42360  0.24720  1.0000 0.1694452468
C   C119      1.0  0.44290  0.47890  0.21890  1.0000 -0.4413921754
C   C120      1.0  0.48790  0.38510  0.23890  1.0000 -0.4598842286
C   C121      1.0  0.39030  0.41130  0.30160  1.0000 -0.4293102432
C   C122      1.0  0.96730  0.44160  0.23370  1.0000 0.5788010242
C   C123      1.0  0.86490  0.46670  0.25240  1.0000 0.1608221982
C   C124      1.0  0.89440  0.46720  0.29960  1.0000 -0.4293102432
C   C125      1.0  0.82150  0.51690  0.21370  1.0000 -0.4413921754
C   C126      1.0  0.76800  0.42890  0.27340  1.0000 -0.4503427719
C   C127      1.0  0.28200  0.15000  0.74780  1.0000 0.5788010242
C   C128      1.0  0.39520  0.17960  0.72530  1.0000 0.1694452468
C   C129      1.0  0.44320  0.19800  0.75930  1.0000 -0.4503427719
C   C130      1.0  0.48340  0.13520  0.71800  1.0000 -0.4598842286
C   C131      1.0  0.37760  0.22270  0.67810  1.0000 -0.4413921754
C   C132      1.0  0.95140  0.13870  0.76750  1.0000 0.5788010242
C   C133      1.0  0.82950  0.16060  0.76330  1.0000 0.1608221982
C   C134      1.0  0.79590  0.18460  0.71230  1.0000 -0.4293102432
C   C135      1.0  0.75280  0.11690  0.79320  1.0000 -0.4503427719
C   C136      1.0  0.81160  0.20460  0.78190  1.0000 -0.4293102432
C   C137      1.0  0.32110  0.01440  0.88650  1.0000 0.5788010242
C   C138      1.0  0.43350  0.00690  0.90710  1.0000 0.1870416481
C   C139      1.0  0.43730  0.95360  0.95160  1.0000 -0.4697179959
C   C140      1.0  0.45210  0.05240  0.92110  1.0000 -0.4697179959
C   C141      1.0  0.52460  0.00770  0.86690  1.0000 -0.4598842286
C   C142      1.0  0.99190  0.00070  0.90790  1.0000 0.5788010242
C   C143      1.0  0.88470  0.98020  0.94180  1.0000 0.206877165
C   C144      1.0  0.91930  0.93950  0.99190  1.0000 -0.4697179959
C   C145      1.0  0.81850  0.95130  0.92150  1.0000 -0.4802118983
C   C146      1.0  0.81230  0.02570  0.94690  1.0000 -0.4802118983
C   C147      1.0  0.99720  0.97470  0.77350  1.0000 0.5788010242
C   C148      1.0  0.90560  0.94570  0.76380  1.0000 0.1777604852
C   C149      1.0  0.81710  0.92810  0.80420  1.0000 -0.4697179959
C   C150      1.0  0.86410  0.97610  0.71500  1.0000 -0.4598842286
C   C151      1.0  0.96890  0.89300  0.76090  1.0000 -0.4598842286
C   C152      1.0  0.30890  0.98830  0.74930  1.0000 0.5788010242
C   C153      1.0  0.40900  0.96550  0.72630  1.0000 0.1777604852
C   C154      1.0  0.37680  0.91200  0.72890  1.0000 -0.4503427719
C   C155      1.0  0.44090  0.00410  0.67470  1.0000 -0.4598842286
C   C156      1.0  0.50780  0.95410  0.75840  1.0000 -0.4598842286
C   C157      1.0  0.12830  0.31430  0.05370  1.0000 0.0983302964
C   C158      1.0  0.13190  0.28940  0.02200  1.0000 -0.2284800481
C   C159      1.0  0.10800  0.23700  0.04000  1.0000 0.1608221982
C   C160      1.0  0.08510  0.21170  0.08980  1.0000 -0.2212994939
C   C161      1.0  0.08340  0.23820  0.11890  1.0000 0.0983302964
C   C162      1.0  0.10840  0.20590  0.00920  1.0000 -0.2373843264
C   C163      1.0  0.11220  0.24060  0.95540  1.0000 -0.245836034
C   C164      1.0  0.11320  0.20760  0.92700  1.0000 0.1694452468
C   C165      1.0  0.21660  0.19050  0.91020  1.0000 -0.2113044143
C   C166      1.0  0.21610  0.15970  0.88470  1.0000 0.1111090304
C   C167      1.0  0.02340  0.15890  0.89290  1.0000 0.0983302964
C   C168      1.0  0.01660  0.19180  0.91690  1.0000 -0.2113044143
C   C169      1.0  0.26370  0.55360  0.09330  1.0000 0.0983302964
C   C170      1.0  0.28140  0.60560  0.06410  1.0000 -0.2003479497
C   C171      1.0  0.19100  0.64020  0.05220  1.0000 0.1608221982
C   C172      1.0  0.08500  0.61980  0.06970  1.0000 -0.2113044143
C   C173      1.0  0.07370  0.56710  0.09860  1.0000 0.0983302964
C   C174      1.0  0.19710  0.69820  0.02470  1.0000 -0.2373843264
C   C175      1.0  0.24220  0.71800  0.97430  1.0000 -0.2373843264
C   C176      1.0  0.23000  0.77800  0.94480  1.0000 0.1608221982
C   C177      1.0  0.21950  0.79620  0.89520  1.0000 -0.2212994939
C   C178      1.0  0.20000  0.84890  0.86870  1.0000 0.0983302964
C   C179      1.0  0.20410  0.86780  0.93370  1.0000 0.0912323486
C   C180      1.0  0.22220  0.81560  0.96340  1.0000 -0.2212994939
C   C181      1.0  0.18030  0.28490  0.35470  1.0000 0.0728595187
C   C182      1.0  0.17750  0.26190  0.40550  1.0000 -0.2373843264
C   C183      1.0  0.07550  0.25280  0.43200  1.0000 0.1382459114
C   C184      1.0  0.98900  0.27190  0.40950  1.0000 -0.2113044143
C   C185      1.0  0.99610  0.29550  0.35790  1.0000 0.0912323486
C   C186      1.0  0.07220  0.22770  0.48710  1.0000 -0.2113044143
C   C187      1.0  0.09680  0.16910  0.50570  1.0000 -0.2284800481
C   C188      1.0  0.10660  0.14510  0.56150  1.0000 0.1542494946
C   C189      1.0  0.01190  0.13010  0.59280  1.0000 -0.2284800481
C   C190      1.0  0.02560  0.11100  0.64250  1.0000 0.0983302964
C   C191      1.0  0.21100  0.11880  0.63020  1.0000 0.0830116947
C   C192      1.0  0.20890  0.13890  0.58030  1.0000 -0.2212994939
N   N1        1.0  0.89430  0.71040  0.89825  1.0000 -0.2212994939
N   N2        1.0  0.87760  0.85620  0.12410  1.0000 -0.2373843264
N   N3        1.0  0.83750  0.46690  0.88944  1.0000 -0.2284800481
N   N4        1.0  0.80740  0.11480  0.11355  1.0000 -0.2212994939
N   N5        1.0  0.91060  0.70060  0.67000  1.0000 -0.2113044143
N   N6        1.0  0.87990  0.89260  0.33832  1.0000 -0.2003479497
N   N7        1.0  0.10570  0.28960  0.10175  1.0000 -0.2212994939
N   N8        1.0  0.12240  0.14380  0.87590  1.0000 -0.2373843264
N   N9        1.0  0.16250  0.53310  0.11056  1.0000 -0.2284800481
N   N10       1.0  0.19260  0.88520  0.88645  1.0000 -0.2212994939
N   N11       1.0  0.08940  0.29940  0.33000  1.0000 -0.2113044143
N   N12       1.0  0.12010  0.10740  0.66168  1.0000 -0.2113044143
O   O1        1.0  0.74800  0.63794  0.89682  1.0000 -0.5315432917
O   O2        1.0  0.88250  0.62680  0.81690  1.0000 -0.8010811653
O   O3        1.0  0.73340  0.55907  0.89538  1.0000 -0.5099436686
O   O4        1.0  0.85880  0.95469  0.19311  1.0000 -0.8107244517
O   O5        1.0  0.99110  0.61547  0.90100  1.0000 -0.5393184807
O   O6        1.0  0.98130  0.53814  0.89604  1.0000 -0.521344259
O   O7        1.0  0.79000  0.72958  0.81205  1.0000 -0.5393184807
O   O8        1.0  0.78740  0.72144  0.74316  1.0000 -0.500983819
O   O9        1.0  0.02570  0.70887  0.81409  1.0000 -0.5315432917
O   O10       1.0  0.03130  0.70348  0.74319  1.0000 -0.500983819
O   O11       1.0  0.74080  0.55088  0.80789  1.0000 -0.521344259
O   O12       1.0  0.76270  0.62430  0.74053  1.0000 -0.5099436686
O   O13       1.0  0.98370  0.53133  0.80713  1.0000 -0.5393184807
O   O14       1.0  0.00660  0.60568  0.73894  1.0000 -0.5315432917
O   O15       1.0  0.74940  0.85835  0.20838  1.0000 -0.5476242747
O   O16       1.0  0.76690  0.86451  0.27818  1.0000 -0.5099436686
O   O17       1.0  0.99990  0.86119  0.19795  1.0000 -0.5476242747
O   O18       1.0  0.00920  0.88063  0.26089  1.0000 -0.500983819
O   O19       1.0  0.73940  0.94493  0.11901  1.0000 -0.5315432917
O   O20       1.0  0.70390  0.02205  0.12465  1.0000 -0.5393184807
O   O21       1.0  0.99090  0.95012  0.10892  1.0000 -0.5393184807
O   O22       1.0  0.94590  0.03343  0.10028  1.0000 -0.5476242747
O   O23       1.0  0.96980  0.98230  0.25836  1.0000 -0.521344259
O   O24       1.0  0.96400  0.04983  0.18491  1.0000 -0.5665551569
O   O25       1.0  0.72830  0.96664  0.27532  1.0000 -0.500983819
O   O26       1.0  0.72620  0.04112  0.20722  1.0000 -0.5582171228
O   O27       1.0  0.25200  0.36206  0.10318  1.0000 -0.5315432917
O   O28       1.0  0.11750  0.37320  0.18310  1.0000 -0.8010811653
O   O29       1.0  0.26660  0.44093  0.10462  1.0000 -0.5099436686
O   O30       1.0  0.14120  0.04531  0.80689  1.0000 -0.8107244517
O   O31       1.0  0.00890  0.38453  0.09900  1.0000 -0.5393184807
O   O32       1.0  0.01870  0.46186  0.10396  1.0000 -0.5315432917
O   O33       1.0  0.21000  0.27042  0.18795  1.0000 -0.5393184807
O   O34       1.0  0.21260  0.27856  0.25684  1.0000 -0.500983819
O   O35       1.0  0.97430  0.29113  0.18591  1.0000 -0.5393184807
O   O36       1.0  0.96870  0.29652  0.25681  1.0000 -0.500983819
O   O37       1.0  0.25920  0.44912  0.19211  1.0000 -0.521344259
O   O38       1.0  0.23730  0.37570  0.25947  1.0000 -0.5099436686
O   O39       1.0  0.01630  0.46867  0.19287  1.0000 -0.5393184807
O   O40       1.0  0.99340  0.39432  0.26106  1.0000 -0.521344259
O   O41       1.0  0.25060  0.14165  0.79162  1.0000 -0.5476242747
O   O42       1.0  0.23310  0.13549  0.72182  1.0000 -0.5099436686
O   O43       1.0  0.00010  0.13881  0.80205  1.0000 -0.5476242747
O   O44       1.0  0.99080  0.11937  0.73911  1.0000 -0.500983819
O   O45       1.0  0.26060  0.05507  0.88099  1.0000 -0.5315432917
O   O46       1.0  0.29610  0.97795  0.87535  1.0000 -0.5315432917
O   O47       1.0  0.00910  0.04988  0.89108  1.0000 -0.5393184807
O   O48       1.0  0.05410  0.96657  0.89972  1.0000 -0.5476242747
O   O49       1.0  0.03020  0.01770  0.74164  1.0000 -0.521344259
O   O50       1.0  0.03600  0.95017  0.81509  1.0000 -0.5665551569
O   O51       1.0  0.27170  0.03336  0.72468  1.0000 -0.500983819
O   O52       1.0  0.27380  0.95888  0.79278  1.0000 -0.5582171228
