# DDEC6 charges by PACMAN v1.1 (https://github.com/mtap-research/PACMAN-charge/)
data_2017[Co][nan]3[FSR]17
_chemical_formula_sum              "Co6 H16 C28 N12 O12"
_cell_length_a       10.9105
_cell_length_b       10.9105
_cell_length_c       11.0923
_cell_angle_alpha    86.6164
_cell_angle_beta     93.3836
_cell_angle_gamma    113.801

_symmetry_space_group_name_H-M    "P 1"
_symmetry_Int_Tables_number       1

loop_
  _symmetry_equiv_pos_as_xyz
  'x, y, z'

loop_
  _atom_site_type_symbol
  _atom_site_label
  _atom_site_symmetry_multiplicity
  _atom_site_fract_x
  _atom_site_fract_y
  _atom_site_fract_z
  _atom_site_occupancy
  _atom_site_charge
Co  Co1       1.0  0.10063  0.10063  0.75000  1.0000 0.9107032786
Co  Co2       1.0  0.89937  0.89937  0.25000  1.0000 0.9107032786
Co  Co3       1.0  0.99006  0.14414  0.00434  1.0000 0.8543794969
Co  Co4       1.0  0.14414  0.99006  0.49566  1.0000 0.8543794969
Co  Co5       1.0  0.00994  0.85586  0.99566  1.0000 0.8543794969
Co  Co6       1.0  0.85586  0.00994  0.50434  1.0000 0.8543794969
H   H1        1.0  0.07500  0.57200  0.93250  1.0000 0.1387987244
H   H2        1.0  0.57200  0.07500  0.56750  1.0000 0.1387987244
H   H3        1.0  0.92500  0.42800  0.06750  1.0000 0.1387987244
H   H4        1.0  0.42800  0.92500  0.43250  1.0000 0.1387987244
H   H5        1.0  0.14180  0.66060  0.51400  1.0000 0.1387987244
H   H6        1.0  0.66060  0.14180  0.98600  1.0000 0.1387987244
H   H7        1.0  0.85820  0.33940  0.48600  1.0000 0.1387987244
H   H8        1.0  0.33940  0.85820  0.01400  1.0000 0.1387987244
H   H9        1.0  0.14740  0.46860  0.60910  1.0000 0.1205375512
H   H10       1.0  0.46860  0.14740  0.89090  1.0000 0.1205375512
H   H11       1.0  0.85260  0.53140  0.39090  1.0000 0.1205375512
H   H12       1.0  0.53140  0.85260  0.10910  1.0000 0.1205375512
H   H13       1.0  0.18830  0.10170  0.95300  1.0000 0.3920470248
H   H14       1.0  0.10170  0.18830  0.54700  1.0000 0.3920470248
H   H15       1.0  0.81170  0.89830  0.04700  1.0000 0.3920470248
H   H16       1.0  0.89830  0.81170  0.45300  1.0000 0.3920470248
C   C1        1.0  0.11000  0.37000  0.83240  1.0000 0.5864246855
C   C2        1.0  0.37000  0.11000  0.66760  1.0000 0.5864246855
C   C3        1.0  0.89000  0.63000  0.16760  1.0000 0.5864246855
C   C4        1.0  0.63000  0.89000  0.33240  1.0000 0.5864246855
C   C5        1.0  0.11020  0.50140  0.77860  1.0000 -0.0169388583
C   C6        1.0  0.50140  0.11020  0.72140  1.0000 -0.0169388583
C   C7        1.0  0.88980  0.49860  0.22140  1.0000 -0.0169388583
C   C8        1.0  0.49860  0.88980  0.27860  1.0000 -0.0169388583
C   C9        1.0  0.08740  0.58900  0.85000  1.0000 -0.168597872
C   C10       1.0  0.58900  0.08740  0.65000  1.0000 -0.168597872
C   C11       1.0  0.91260  0.41100  0.15000  1.0000 -0.168597872
C   C12       1.0  0.41100  0.91260  0.35000  1.0000 -0.168597872
C   C13       1.0  0.08410  0.70530  0.79140  1.0000 0.1205375512
C   C14       1.0  0.70530  0.08410  0.70860  1.0000 0.1205375512
C   C15       1.0  0.91590  0.29470  0.20860  1.0000 0.1205375512
C   C16       1.0  0.29470  0.91590  0.29140  1.0000 0.1205375512
C   C17       1.0  0.10570  0.73170  0.66920  1.0000 0.1205375512
C   C18       1.0  0.73170  0.10570  0.83080  1.0000 0.1149718011
C   C19       1.0  0.89430  0.26830  0.33080  1.0000 0.1149718011
C   C20       1.0  0.26830  0.89430  0.16920  1.0000 0.1149718011
C   C21       1.0  0.12880  0.64320  0.59650  1.0000 -0.168597872
C   C22       1.0  0.64320  0.12880  0.90350  1.0000 -0.168597872
C   C23       1.0  0.87120  0.35680  0.40350  1.0000 -0.168597872
C   C24       1.0  0.35680  0.87120  0.09650  1.0000 -0.168597872
C   C25       1.0  0.13120  0.52960  0.65400  1.0000 -0.119799689
C   C26       1.0  0.52960  0.13120  0.84600  1.0000 -0.119799689
C   C27       1.0  0.86880  0.47040  0.34600  1.0000 -0.119799689
C   C28       1.0  0.47040  0.86880  0.15400  1.0000 -0.119799689
N   N1        1.0  0.06481  0.81079  0.83480  1.0000 -0.2395513007
N   N2        1.0  0.81079  0.06481  0.66520  1.0000 -0.2395513007
N   N3        1.0  0.93519  0.18921  0.16520  1.0000 -0.2395513007
N   N4        1.0  0.18921  0.93519  0.33480  1.0000 -0.2395513007
N   N5        1.0  0.07292  0.89508  0.74110  1.0000 -0.0392050338
N   N6        1.0  0.89508  0.07292  0.75890  1.0000 -0.0392050338
N   N7        1.0  0.92708  0.10492  0.25890  1.0000 -0.0392050338
N   N8        1.0  0.10492  0.92708  0.24110  1.0000 -0.0392050338
N   N9        1.0  0.09708  0.85132  0.63980  1.0000 -0.2395513007
N   N10       1.0  0.85132  0.09708  0.86020  1.0000 -0.2395513007
N   N11       1.0  0.90292  0.14868  0.36020  1.0000 -0.2395513007
N   N12       1.0  0.14868  0.90292  0.13980  1.0000 -0.2395513007
O   O1        1.0  0.10581  0.06539  0.93330  1.0000 -0.819380485
O   O2        1.0  0.06539  0.10581  0.56670  1.0000 -0.819380485
O   O3        1.0  0.89419  0.93461  0.06670  1.0000 -0.819380485
O   O4        1.0  0.93461  0.89419  0.43330  1.0000 -0.819380485
O   O5        1.0  0.07440  0.33740  0.94120  1.0000 -0.5629070928
O   O6        1.0  0.33740  0.07440  0.55880  1.0000 -0.5629070928
O   O7        1.0  0.92560  0.66260  0.05880  1.0000 -0.5629070928
O   O8        1.0  0.66260  0.92560  0.44120  1.0000 -0.5629070928
O   O9        1.0  0.14509  0.30291  0.76470  1.0000 -0.5487091323
O   O10       1.0  0.30291  0.14509  0.73530  1.0000 -0.5487091323
O   O11       1.0  0.85491  0.69709  0.23530  1.0000 -0.5487091323
O   O12       1.0  0.69709  0.85491  0.26470  1.0000 -0.5487091323
