# DDEC6 charges by PACMAN v1.1 (https://github.com/mtap-research/PACMAN-charge/)
data_2017[V][nan]3[FSR]4
_chemical_formula_sum              "V8 H24 C64 O40"
_cell_length_a       15.0393
_cell_length_b       15.0393
_cell_length_c       11.9587
_cell_angle_alpha    90
_cell_angle_beta     90
_cell_angle_gamma    90

_symmetry_space_group_name_H-M    "P 1"
_symmetry_Int_Tables_number       1

loop_
  _symmetry_equiv_pos_as_xyz
  'x, y, z'

loop_
  _atom_site_type_symbol
  _atom_site_label
  _atom_site_symmetry_multiplicity
  _atom_site_fract_x
  _atom_site_fract_y
  _atom_site_fract_z
  _atom_site_occupancy
  _atom_site_charge
V   V1        1.0  0.06300  0.93700  0.12500  1.0000 1.8781845718
V   V2        1.0  0.93700  0.06300  0.62500  1.0000 1.8781845718
V   V3        1.0  0.93700  0.93700  0.37500  1.0000 1.8781845718
V   V4        1.0  0.06300  0.06300  0.87500  1.0000 1.8781845718
V   V5        1.0  0.55700  0.55700  0.37500  1.0000 1.7657785265
V   V6        1.0  0.44300  0.44300  0.87500  1.0000 1.7657785265
V   V7        1.0  0.55700  0.44300  0.62500  1.0000 1.7657785265
V   V8        1.0  0.44300  0.55700  0.12500  1.0000 1.7657785265
H   H1        1.0  0.36600  0.67780  0.54150  1.0000 0.141469322
H   H2        1.0  0.25470  0.75480  0.25320  1.0000 0.141469322
H   H3        1.0  0.14400  0.82480  0.54480  1.0000 0.141469322
H   H4        1.0  0.63400  0.32220  0.04150  1.0000 0.141469322
H   H5        1.0  0.74530  0.24520  0.75320  1.0000 0.141469322
H   H6        1.0  0.85600  0.17520  0.04480  1.0000 0.141469322
H   H7        1.0  0.67780  0.63400  0.79150  1.0000 0.141469322
H   H8        1.0  0.75480  0.74530  0.50320  1.0000 0.141469322
H   H9        1.0  0.82480  0.85600  0.79480  1.0000 0.141469322
H   H10       1.0  0.32220  0.36600  0.29150  1.0000 0.141469322
H   H11       1.0  0.24520  0.25470  0.00320  1.0000 0.141469322
H   H12       1.0  0.17520  0.14400  0.29480  1.0000 0.141469322
H   H13       1.0  0.36600  0.32220  0.45850  1.0000 0.141469322
H   H14       1.0  0.25470  0.24520  0.74680  1.0000 0.141469322
H   H15       1.0  0.14400  0.17520  0.45520  1.0000 0.141469322
H   H16       1.0  0.63400  0.67780  0.95850  1.0000 0.141469322
H   H17       1.0  0.74530  0.75480  0.24680  1.0000 0.141469322
H   H18       1.0  0.85600  0.82480  0.95520  1.0000 0.141469322
H   H19       1.0  0.67780  0.36600  0.20850  1.0000 0.141469322
H   H20       1.0  0.75480  0.25470  0.49680  1.0000 0.141469322
H   H21       1.0  0.82480  0.14400  0.20520  1.0000 0.141469322
H   H22       1.0  0.32220  0.63400  0.70850  1.0000 0.141469322
H   H23       1.0  0.24520  0.74530  0.99680  1.0000 0.141469322
H   H24       1.0  0.17520  0.85600  0.70520  1.0000 0.141469322
C   C1        1.0  0.25510  0.75110  0.56201  1.0000 0.0673041045
C   C2        1.0  0.32130  0.70790  0.50330  1.0000 -0.0922414149
C   C3        1.0  0.32120  0.70930  0.38780  1.0000 -0.0691240589
C   C4        1.0  0.25480  0.75390  0.33100  1.0000 -0.0579869404
C   C5        1.0  0.18850  0.79710  0.38970  1.0000 -0.0691240589
C   C6        1.0  0.18870  0.79570  0.50520  1.0000 -0.106707506
C   C7        1.0  0.38840  0.66540  0.32820  1.0000 0.6108655183
C   C8        1.0  0.12110  0.84230  0.33210  1.0000 0.6108655183
C   C9        1.0  0.74490  0.24890  0.06201  1.0000 0.0673041045
C   C10       1.0  0.67870  0.29210  0.00330  1.0000 -0.0922414149
C   C11       1.0  0.67880  0.29070  0.88780  1.0000 -0.0691240589
C   C12       1.0  0.74520  0.24610  0.83100  1.0000 -0.0579869404
C   C13       1.0  0.81150  0.20290  0.88970  1.0000 -0.0691240589
C   C14       1.0  0.81130  0.20430  0.00520  1.0000 -0.106707506
C   C15       1.0  0.61160  0.33460  0.82820  1.0000 0.6108655183
C   C16       1.0  0.87890  0.15770  0.83210  1.0000 0.6108655183
C   C17       1.0  0.75110  0.74490  0.81201  1.0000 0.0673041045
C   C18       1.0  0.70790  0.67870  0.75330  1.0000 -0.0922414149
C   C19       1.0  0.70930  0.67880  0.63780  1.0000 -0.0691240589
C   C20       1.0  0.75390  0.74520  0.58100  1.0000 -0.0579869404
C   C21       1.0  0.79710  0.81150  0.63970  1.0000 -0.0691240589
C   C22       1.0  0.79570  0.81130  0.75520  1.0000 -0.106707506
C   C23       1.0  0.66540  0.61160  0.57820  1.0000 0.6108655183
C   C24       1.0  0.84230  0.87890  0.58210  1.0000 0.6108655183
C   C25       1.0  0.24890  0.25510  0.31201  1.0000 0.0673041045
C   C26       1.0  0.29210  0.32130  0.25330  1.0000 -0.0922414149
C   C27       1.0  0.29070  0.32120  0.13780  1.0000 -0.0691240589
C   C28       1.0  0.24610  0.25480  0.08100  1.0000 -0.0579869404
C   C29       1.0  0.20290  0.18850  0.13970  1.0000 -0.0691240589
C   C30       1.0  0.20430  0.18870  0.25520  1.0000 -0.106707506
C   C31       1.0  0.33460  0.38840  0.07820  1.0000 0.6108655183
C   C32       1.0  0.15770  0.12110  0.08210  1.0000 0.6108655183
C   C33       1.0  0.25510  0.24890  0.43799  1.0000 0.0673041045
C   C34       1.0  0.32130  0.29210  0.49670  1.0000 -0.0922414149
C   C35       1.0  0.32120  0.29070  0.61220  1.0000 -0.0691240589
C   C36       1.0  0.25480  0.24610  0.66900  1.0000 -0.0579869404
C   C37       1.0  0.18850  0.20290  0.61030  1.0000 -0.0691240589
C   C38       1.0  0.18870  0.20430  0.49480  1.0000 -0.106707506
C   C39       1.0  0.38840  0.33460  0.67180  1.0000 0.6108655183
C   C40       1.0  0.12110  0.15770  0.66790  1.0000 0.6108655183
C   C41       1.0  0.74490  0.75110  0.93799  1.0000 0.0673041045
C   C42       1.0  0.67870  0.70790  0.99670  1.0000 -0.0922414149
C   C43       1.0  0.67880  0.70930  0.11220  1.0000 -0.0691240589
C   C44       1.0  0.74520  0.75390  0.16900  1.0000 -0.0579869404
C   C45       1.0  0.81150  0.79710  0.11030  1.0000 -0.0691240589
C   C46       1.0  0.81130  0.79570  0.99480  1.0000 -0.106707506
C   C47       1.0  0.61160  0.66540  0.17180  1.0000 0.6108655183
C   C48       1.0  0.87890  0.84230  0.16790  1.0000 0.6108655183
C   C49       1.0  0.75110  0.25510  0.18799  1.0000 0.0673041045
C   C50       1.0  0.70790  0.32130  0.24670  1.0000 -0.0922414149
C   C51       1.0  0.70930  0.32120  0.36220  1.0000 -0.0691240589
C   C52       1.0  0.75390  0.25480  0.41900  1.0000 -0.0579869404
C   C53       1.0  0.79710  0.18850  0.36030  1.0000 -0.0691240589
C   C54       1.0  0.79570  0.18870  0.24480  1.0000 -0.106707506
C   C55       1.0  0.66540  0.38840  0.42180  1.0000 0.6108655183
C   C56       1.0  0.84230  0.12110  0.41790  1.0000 0.6108655183
C   C57       1.0  0.24890  0.74490  0.68799  1.0000 0.0673041045
C   C58       1.0  0.29210  0.67870  0.74670  1.0000 -0.0922414149
C   C59       1.0  0.29070  0.67880  0.86220  1.0000 -0.0691240589
C   C60       1.0  0.24610  0.74520  0.91900  1.0000 -0.0579869404
C   C61       1.0  0.20290  0.81150  0.86030  1.0000 -0.0691240589
C   C62       1.0  0.20430  0.81130  0.74480  1.0000 -0.106707506
C   C63       1.0  0.33460  0.61160  0.92180  1.0000 0.6108655183
C   C64       1.0  0.15770  0.87890  0.91790  1.0000 0.6108655183
O   O1        1.0  0.46620  0.65000  0.37160  1.0000 -0.5610532277
O   O2        1.0  0.37700  0.63790  0.22610  1.0000 -0.5610532277
O   O3        1.0  0.13400  0.87700  0.23380  1.0000 -0.5694506244
O   O4        1.0  0.04180  0.85230  0.37360  1.0000 -0.5694506244
O   O5        1.0  0.53380  0.35000  0.87160  1.0000 -0.5610532277
O   O6        1.0  0.62300  0.36210  0.72610  1.0000 -0.5610532277
O   O7        1.0  0.86600  0.12300  0.73380  1.0000 -0.5694506244
O   O8        1.0  0.95820  0.14770  0.87360  1.0000 -0.5694506244
O   O9        1.0  0.65000  0.53380  0.62160  1.0000 -0.5610532277
O   O10       1.0  0.63790  0.62300  0.47610  1.0000 -0.5610532277
O   O11       1.0  0.87700  0.86600  0.48380  1.0000 -0.5694506244
O   O12       1.0  0.85230  0.95820  0.62360  1.0000 -0.5694506244
O   O13       1.0  0.35000  0.46620  0.12160  1.0000 -0.5610532277
O   O14       1.0  0.36210  0.37700  0.97610  1.0000 -0.5610532277
O   O15       1.0  0.12300  0.13400  0.98380  1.0000 -0.5694506244
O   O16       1.0  0.14770  0.04180  0.12360  1.0000 -0.5694506244
O   O17       1.0  0.46620  0.35000  0.62840  1.0000 -0.5610532277
O   O18       1.0  0.37700  0.36210  0.77390  1.0000 -0.5610532277
O   O19       1.0  0.13400  0.12300  0.76620  1.0000 -0.5694506244
O   O20       1.0  0.04180  0.14770  0.62640  1.0000 -0.5694506244
O   O21       1.0  0.53380  0.65000  0.12840  1.0000 -0.5610532277
O   O22       1.0  0.62300  0.63790  0.27390  1.0000 -0.5610532277
O   O23       1.0  0.86600  0.87700  0.26620  1.0000 -0.5694506244
O   O24       1.0  0.95820  0.85230  0.12640  1.0000 -0.5694506244
O   O25       1.0  0.65000  0.46620  0.37840  1.0000 -0.5610532277
O   O26       1.0  0.63790  0.37700  0.52390  1.0000 -0.5610532277
O   O27       1.0  0.87700  0.13400  0.51620  1.0000 -0.5694506244
O   O28       1.0  0.85230  0.04180  0.37640  1.0000 -0.5694506244
O   O29       1.0  0.35000  0.53380  0.87840  1.0000 -0.5610532277
O   O30       1.0  0.36210  0.62300  0.02390  1.0000 -0.5610532277
O   O31       1.0  0.12300  0.86600  0.01620  1.0000 -0.5694506244
O   O32       1.0  0.14770  0.95820  0.87640  1.0000 -0.5694506244
O   O33       1.0  0.00000  0.98180  0.25000  1.0000 -0.9242186399
O   O34       1.0  0.00000  0.01820  0.75000  1.0000 -0.9242186399
O   O35       1.0  0.98180  0.00000  0.50000  1.0000 -0.9242186399
O   O36       1.0  0.01820  0.00000  0.00000  1.0000 -0.9242186399
O   O37       1.0  0.50000  0.49010  0.25000  1.0000 -0.8342473061
O   O38       1.0  0.50000  0.50990  0.75000  1.0000 -0.8342473061
O   O39       1.0  0.49010  0.50000  0.50000  1.0000 -0.8342473061
O   O40       1.0  0.50990  0.50000  0.00000  1.0000 -0.8342473061
