# DDEC6 charges by PACMAN v1.1 (https://github.com/mtap-research/PACMAN-charge/)
data_2017[Cu][rob]3[FSR]8
_chemical_formula_sum              "Cu8 H104 C92 N8 O32"
_cell_length_a       8.5728
_cell_length_b       12.9025
_cell_length_c       27.615
_cell_angle_alpha    90
_cell_angle_beta     90
_cell_angle_gamma    90

_symmetry_space_group_name_H-M    "P 1"
_symmetry_Int_Tables_number       1

loop_
  _symmetry_equiv_pos_as_xyz
  'x, y, z'

loop_
  _atom_site_type_symbol
  _atom_site_label
  _atom_site_symmetry_multiplicity
  _atom_site_fract_x
  _atom_site_fract_y
  _atom_site_fract_z
  _atom_site_occupancy
  _atom_site_charge
Cu  Cu1       1.0  0.05258  0.54757  0.53903  1.0000 0.7555970339
Cu  Cu2       1.0  0.05258  0.95243  0.96097  1.0000 0.7555970339
Cu  Cu3       1.0  0.44742  0.45243  0.03903  1.0000 0.7555970339
Cu  Cu4       1.0  0.44742  0.04757  0.46097  1.0000 0.7555970339
Cu  Cu5       1.0  0.94742  0.45243  0.46097  1.0000 0.7555970339
Cu  Cu6       1.0  0.94742  0.04757  0.03903  1.0000 0.7555970339
Cu  Cu7       1.0  0.55258  0.54757  0.96097  1.0000 0.7555970339
Cu  Cu8       1.0  0.55258  0.95243  0.53903  1.0000 0.7555970339
H   H1        1.0  0.50961  0.53065  0.56008  1.0000 0.139177495
H   H2        1.0  0.59670  0.46824  0.60223  1.0000 0.1187188166
H   H3        1.0  0.18723  0.47896  0.63737  1.0000 0.1135808754
H   H4        1.0  0.35183  0.80661  0.73828  1.0000 0.0981457482
H   H5        1.0  0.36686  0.52863  0.69566  1.0000 0.1297720012
H   H6        1.0  0.41003  0.80378  0.62638  1.0000 0.139177495
H   H7        1.0  0.40540  0.36123  0.56573  1.0000 0.0940316108
H   H8        1.0  0.48577  0.37657  0.51387  1.0000 0.0981457482
H   H9        1.0  0.58478  0.76550  0.69477  1.0000 0.1135808754
H   H10       1.0  0.58430  0.65173  0.71822  1.0000 0.1187188166
H   H11       1.0  0.71727  0.29412  0.54636  1.0000 0.139177495
H   H12       1.0  0.62015  0.26854  0.59420  1.0000 0.1297720012
H   H13       1.0  0.23071  0.74587  0.56971  1.0000 0.1187188166
H   H14       1.0  0.50961  0.96935  0.93992  1.0000 0.139177495
H   H15       1.0  0.59670  0.03176  0.89777  1.0000 0.1187188166
H   H16       1.0  0.18723  0.02104  0.86263  1.0000 0.1135808754
H   H17       1.0  0.35183  0.69339  0.76172  1.0000 0.0981457482
H   H18       1.0  0.36686  0.97137  0.80434  1.0000 0.1297720012
H   H19       1.0  0.41003  0.69622  0.87362  1.0000 0.139177495
H   H20       1.0  0.40540  0.13877  0.93427  1.0000 0.0940316108
H   H21       1.0  0.48577  0.12343  0.98613  1.0000 0.0981457482
H   H22       1.0  0.58478  0.73450  0.80523  1.0000 0.1135808754
H   H23       1.0  0.58430  0.84827  0.78178  1.0000 0.1187188166
H   H24       1.0  0.71727  0.20588  0.95364  1.0000 0.139177495
H   H25       1.0  0.62015  0.23146  0.90580  1.0000 0.1297720012
H   H26       1.0  0.23071  0.75413  0.93029  1.0000 0.1187188166
H   H27       1.0  0.99039  0.46935  0.06008  1.0000 0.139177495
H   H28       1.0  0.90330  0.53176  0.10223  1.0000 0.1187188166
H   H29       1.0  0.31277  0.52104  0.13737  1.0000 0.1135808754
H   H30       1.0  0.14817  0.19339  0.23828  1.0000 0.0981457482
H   H31       1.0  0.13314  0.47137  0.19566  1.0000 0.1297720012
H   H32       1.0  0.08997  0.19622  0.12638  1.0000 0.139177495
H   H33       1.0  0.09460  0.63877  0.06573  1.0000 0.0940316108
H   H34       1.0  0.01423  0.62343  0.01387  1.0000 0.0981457482
H   H35       1.0  0.91522  0.23450  0.19477  1.0000 0.1135808754
H   H36       1.0  0.91570  0.34827  0.21822  1.0000 0.1187188166
H   H37       1.0  0.78273  0.70588  0.04636  1.0000 0.139177495
H   H38       1.0  0.87985  0.73146  0.09420  1.0000 0.1297720012
H   H39       1.0  0.26929  0.25413  0.06971  1.0000 0.1187188166
H   H40       1.0  0.99039  0.03065  0.43992  1.0000 0.139177495
H   H41       1.0  0.90330  0.96824  0.39777  1.0000 0.1187188166
H   H42       1.0  0.31277  0.97896  0.36263  1.0000 0.1135808754
H   H43       1.0  0.14817  0.30661  0.26172  1.0000 0.0981457482
H   H44       1.0  0.13314  0.02863  0.30434  1.0000 0.1297720012
H   H45       1.0  0.08997  0.30378  0.37362  1.0000 0.139177495
H   H46       1.0  0.09460  0.86123  0.43427  1.0000 0.0940316108
H   H47       1.0  0.01423  0.87657  0.48613  1.0000 0.0981457482
H   H48       1.0  0.91522  0.26550  0.30523  1.0000 0.1135808754
H   H49       1.0  0.91570  0.15173  0.28178  1.0000 0.1187188166
H   H50       1.0  0.78273  0.79412  0.45364  1.0000 0.139177495
H   H51       1.0  0.87985  0.76854  0.40580  1.0000 0.1297720012
H   H52       1.0  0.26929  0.24587  0.43029  1.0000 0.1187188166
H   H53       1.0  0.49039  0.46935  0.43992  1.0000 0.139177495
H   H54       1.0  0.40330  0.53176  0.39777  1.0000 0.1187188166
H   H55       1.0  0.81277  0.52104  0.36263  1.0000 0.1135808754
H   H56       1.0  0.64817  0.19339  0.26172  1.0000 0.0981457482
H   H57       1.0  0.63314  0.47137  0.30434  1.0000 0.1297720012
H   H58       1.0  0.58997  0.19622  0.37362  1.0000 0.139177495
H   H59       1.0  0.59460  0.63877  0.43427  1.0000 0.0940316108
H   H60       1.0  0.51423  0.62343  0.48613  1.0000 0.0981457482
H   H61       1.0  0.41522  0.23450  0.30523  1.0000 0.1135808754
H   H62       1.0  0.41570  0.34827  0.28178  1.0000 0.1187188166
H   H63       1.0  0.28273  0.70588  0.45364  1.0000 0.139177495
H   H64       1.0  0.37985  0.73146  0.40580  1.0000 0.1297720012
H   H65       1.0  0.76929  0.25413  0.43029  1.0000 0.1187188166
H   H66       1.0  0.49039  0.03065  0.06008  1.0000 0.139177495
H   H67       1.0  0.40330  0.96824  0.10223  1.0000 0.1187188166
H   H68       1.0  0.81277  0.97896  0.13737  1.0000 0.1135808754
H   H69       1.0  0.64817  0.30661  0.23828  1.0000 0.0981457482
H   H70       1.0  0.63314  0.02863  0.19566  1.0000 0.1297720012
H   H71       1.0  0.58997  0.30378  0.12638  1.0000 0.139177495
H   H72       1.0  0.59460  0.86123  0.06573  1.0000 0.0940316108
H   H73       1.0  0.51423  0.87657  0.01387  1.0000 0.0981457482
H   H74       1.0  0.41522  0.26550  0.19477  1.0000 0.1135808754
H   H75       1.0  0.41570  0.15173  0.21822  1.0000 0.1187188166
H   H76       1.0  0.28273  0.79412  0.04636  1.0000 0.139177495
H   H77       1.0  0.37985  0.76854  0.09420  1.0000 0.1297720012
H   H78       1.0  0.76929  0.24587  0.06971  1.0000 0.1187188166
H   H79       1.0  0.00961  0.53065  0.93992  1.0000 0.139177495
H   H80       1.0  0.09670  0.46824  0.89777  1.0000 0.1187188166
H   H81       1.0  0.68723  0.47896  0.86263  1.0000 0.1135808754
H   H82       1.0  0.85183  0.80661  0.76172  1.0000 0.0981457482
H   H83       1.0  0.86686  0.52863  0.80434  1.0000 0.1297720012
H   H84       1.0  0.91003  0.80378  0.87362  1.0000 0.139177495
H   H85       1.0  0.90540  0.36123  0.93427  1.0000 0.0940316108
H   H86       1.0  0.98577  0.37657  0.98613  1.0000 0.0981457482
H   H87       1.0  0.08478  0.76550  0.80523  1.0000 0.1135808754
H   H88       1.0  0.08430  0.65173  0.78178  1.0000 0.1187188166
H   H89       1.0  0.21727  0.29412  0.95364  1.0000 0.139177495
H   H90       1.0  0.12015  0.26854  0.90580  1.0000 0.1297720012
H   H91       1.0  0.73071  0.74587  0.93029  1.0000 0.1187188166
H   H92       1.0  0.00961  0.96935  0.56008  1.0000 0.139177495
H   H93       1.0  0.09670  0.03176  0.60223  1.0000 0.1187188166
H   H94       1.0  0.68723  0.02104  0.63737  1.0000 0.1135808754
H   H95       1.0  0.85183  0.69339  0.73828  1.0000 0.0981457482
H   H96       1.0  0.86686  0.97137  0.69566  1.0000 0.1297720012
H   H97       1.0  0.91003  0.69622  0.62638  1.0000 0.139177495
H   H98       1.0  0.90540  0.13877  0.56573  1.0000 0.0940316108
H   H99       1.0  0.98577  0.12343  0.51387  1.0000 0.0981457482
H   H100      1.0  0.08478  0.73450  0.69477  1.0000 0.1135808754
H   H101      1.0  0.08430  0.84827  0.71822  1.0000 0.1187188166
H   H102      1.0  0.21727  0.20588  0.54636  1.0000 0.139177495
H   H103      1.0  0.12015  0.23146  0.59420  1.0000 0.1297720012
H   H104      1.0  0.73071  0.75413  0.56971  1.0000 0.1187188166
C   C1        1.0  0.55858  0.17664  0.53652  1.0000 0.6270425853
C   C2        1.0  0.73752  0.49360  0.54256  1.0000 0.6270425853
C   C3        1.0  0.58136  0.47225  0.56675  1.0000 -0.3293963323
C   C4        1.0  0.23300  0.54586  0.63523  1.0000 0.0839903441
C   C5        1.0  0.34042  0.57499  0.67022  1.0000 -0.2192896965
C   C6        1.0  0.36591  0.73656  0.62945  1.0000 -0.2048820767
C   C7        1.0  0.40921  0.67248  0.66786  1.0000 0.1689656613
C   C8        1.0  0.50648  0.37138  0.54906  1.0000 -0.0944881054
C   C9        1.0  0.51693  0.70952  0.70731  1.0000 -0.268502331
C   C10       1.0  0.61160  0.27810  0.55873  1.0000 -0.3293963323
C   C11       1.0  0.25816  0.70156  0.59583  1.0000 0.0981457482
C   C12       1.0  0.55858  0.32336  0.96348  1.0000 0.6270425853
C   C13       1.0  0.73752  0.00640  0.95744  1.0000 0.6270425853
C   C14       1.0  0.58136  0.02775  0.93325  1.0000 -0.3293963323
C   C15       1.0  0.23300  0.95414  0.86477  1.0000 0.0839903441
C   C16       1.0  0.34042  0.92501  0.82978  1.0000 -0.2192896965
C   C17       1.0  0.36591  0.76344  0.87055  1.0000 -0.2048820767
C   C18       1.0  0.40921  0.82752  0.83214  1.0000 0.1689656613
C   C19       1.0  0.50648  0.12862  0.95094  1.0000 -0.0944881054
C   C20       1.0  0.51693  0.79048  0.79269  1.0000 -0.268502331
C   C21       1.0  0.61160  0.22190  0.94127  1.0000 -0.3293963323
C   C22       1.0  0.25816  0.79844  0.90417  1.0000 0.0981457482
C   C23       1.0  0.94142  0.82336  0.03652  1.0000 0.6270425853
C   C24       1.0  0.76248  0.50640  0.04256  1.0000 0.6270425853
C   C25       1.0  0.91864  0.52775  0.06675  1.0000 -0.3293963323
C   C26       1.0  0.26700  0.45414  0.13523  1.0000 0.0839903441
C   C27       1.0  0.15958  0.42501  0.17022  1.0000 -0.2192896965
C   C28       1.0  0.13409  0.26344  0.12945  1.0000 -0.2048820767
C   C29       1.0  0.09079  0.32752  0.16786  1.0000 0.1689656613
C   C30       1.0  0.99352  0.62862  0.04906  1.0000 -0.0944881054
C   C31       1.0  0.98307  0.29048  0.20731  1.0000 -0.268502331
C   C32       1.0  0.88840  0.72190  0.05873  1.0000 -0.3293963323
C   C33       1.0  0.24184  0.29844  0.09583  1.0000 0.0981457482
C   C34       1.0  0.94142  0.67664  0.46348  1.0000 0.6270425853
C   C35       1.0  0.76248  0.99360  0.45744  1.0000 0.6270425853
C   C36       1.0  0.91864  0.97225  0.43325  1.0000 -0.3293963323
C   C37       1.0  0.26700  0.04586  0.36477  1.0000 0.0839903441
C   C38       1.0  0.15958  0.07499  0.32978  1.0000 -0.2192896965
C   C39       1.0  0.13409  0.23656  0.37055  1.0000 -0.2048820767
C   C40       1.0  0.09079  0.17248  0.33214  1.0000 0.1689656613
C   C41       1.0  0.99352  0.87138  0.45094  1.0000 -0.0944881054
C   C42       1.0  0.98307  0.20952  0.29269  1.0000 -0.268502331
C   C43       1.0  0.88840  0.77810  0.44127  1.0000 -0.3293963323
C   C44       1.0  0.24184  0.20156  0.40417  1.0000 0.0981457482
C   C45       1.0  0.44142  0.82336  0.46348  1.0000 0.6270425853
C   C46       1.0  0.26248  0.50640  0.45744  1.0000 0.6270425853
C   C47       1.0  0.41864  0.52775  0.43325  1.0000 -0.3293963323
C   C48       1.0  0.76700  0.45414  0.36477  1.0000 0.0839903441
C   C49       1.0  0.65958  0.42501  0.32978  1.0000 -0.2192896965
C   C50       1.0  0.63409  0.26344  0.37055  1.0000 -0.2048820767
C   C51       1.0  0.59079  0.32752  0.33214  1.0000 0.1689656613
C   C52       1.0  0.49352  0.62862  0.45094  1.0000 -0.0944881054
C   C53       1.0  0.48307  0.29048  0.29269  1.0000 -0.268502331
C   C54       1.0  0.38840  0.72190  0.44127  1.0000 -0.3293963323
C   C55       1.0  0.74184  0.29844  0.40417  1.0000 0.0981457482
C   C56       1.0  0.44142  0.67664  0.03652  1.0000 0.6270425853
C   C57       1.0  0.26248  0.99360  0.04256  1.0000 0.6270425853
C   C58       1.0  0.41864  0.97225  0.06675  1.0000 -0.3293963323
C   C59       1.0  0.76700  0.04586  0.13523  1.0000 0.0839903441
C   C60       1.0  0.65958  0.07499  0.17022  1.0000 -0.2192896965
C   C61       1.0  0.63409  0.23656  0.12945  1.0000 -0.2048820767
C   C62       1.0  0.59079  0.17248  0.16786  1.0000 0.1689656613
C   C63       1.0  0.49352  0.87138  0.04906  1.0000 -0.0944881054
C   C64       1.0  0.48307  0.20952  0.20731  1.0000 -0.268502331
C   C65       1.0  0.38840  0.77810  0.05873  1.0000 -0.3293963323
C   C66       1.0  0.74184  0.20156  0.09583  1.0000 0.0981457482
C   C67       1.0  0.05858  0.17664  0.96348  1.0000 0.6270425853
C   C68       1.0  0.23752  0.49360  0.95744  1.0000 0.6270425853
C   C69       1.0  0.08136  0.47225  0.93325  1.0000 -0.3293963323
C   C70       1.0  0.73300  0.54586  0.86477  1.0000 0.0839903441
C   C71       1.0  0.84042  0.57499  0.82978  1.0000 -0.2192896965
C   C72       1.0  0.86591  0.73656  0.87055  1.0000 -0.2048820767
C   C73       1.0  0.90921  0.67248  0.83214  1.0000 0.1689656613
C   C74       1.0  0.00648  0.37138  0.95094  1.0000 -0.0944881054
C   C75       1.0  0.01693  0.70952  0.79269  1.0000 -0.268502331
C   C76       1.0  0.11160  0.27810  0.94127  1.0000 -0.3293963323
C   C77       1.0  0.75816  0.70156  0.90417  1.0000 0.0981457482
C   C78       1.0  0.05858  0.32336  0.53652  1.0000 0.6270425853
C   C79       1.0  0.23752  0.00640  0.54256  1.0000 0.6270425853
C   C80       1.0  0.08136  0.02775  0.56675  1.0000 -0.3293963323
C   C81       1.0  0.73300  0.95414  0.63523  1.0000 0.0839903441
C   C82       1.0  0.84042  0.92501  0.67022  1.0000 -0.2192896965
C   C83       1.0  0.86591  0.76344  0.62945  1.0000 -0.2048820767
C   C84       1.0  0.90921  0.82752  0.66786  1.0000 0.1689656613
C   C85       1.0  0.00648  0.12862  0.54906  1.0000 -0.0944881054
C   C86       1.0  0.01693  0.79048  0.70731  1.0000 -0.268502331
C   C87       1.0  0.11160  0.22190  0.55873  1.0000 -0.3293963323
C   C88       1.0  0.75816  0.79844  0.59583  1.0000 0.0981457482
C   C89       1.0  0.42000  0.75000  0.75000  1.0000 -0.1367124195
C   C90       1.0  0.08000  0.25000  0.25000  1.0000 -0.1367124195
C   C91       1.0  0.58000  0.25000  0.25000  1.0000 -0.1367124195
C   C92       1.0  0.92000  0.75000  0.75000  1.0000 -0.1367124195
N   N1        1.0  0.19080  0.60778  0.59851  1.0000 -0.2600171479
N   N2        1.0  0.19080  0.89222  0.90149  1.0000 -0.2600171479
N   N3        1.0  0.30920  0.39222  0.09851  1.0000 -0.2600171479
N   N4        1.0  0.30920  0.10778  0.40149  1.0000 -0.2600171479
N   N5        1.0  0.80920  0.39222  0.40149  1.0000 -0.2600171479
N   N6        1.0  0.80920  0.10778  0.09851  1.0000 -0.2600171479
N   N7        1.0  0.69080  0.60778  0.90149  1.0000 -0.2600171479
N   N8        1.0  0.69080  0.89222  0.59851  1.0000 -0.2600171479
O   O1        1.0  0.84023  0.54128  0.56667  1.0000 -0.5417387697
O   O2        1.0  0.75418  0.46121  0.49984  1.0000 -0.5316883164
O   O3        1.0  0.50024  0.17842  0.49447  1.0000 -0.5220076653
O   O4        1.0  0.58195  0.09632  0.56154  1.0000 -0.5417387697
O   O5        1.0  0.84023  0.95872  0.93333  1.0000 -0.5417387697
O   O6        1.0  0.75418  0.03879  0.00016  1.0000 -0.5316883164
O   O7        1.0  0.50024  0.32158  0.00553  1.0000 -0.5220076653
O   O8        1.0  0.58195  0.40368  0.93846  1.0000 -0.5417387697
O   O9        1.0  0.65977  0.45872  0.06667  1.0000 -0.5417387697
O   O10       1.0  0.74582  0.53879  0.99984  1.0000 -0.5316883164
O   O11       1.0  0.99976  0.82158  0.99447  1.0000 -0.5220076653
O   O12       1.0  0.91805  0.90368  0.06154  1.0000 -0.5417387697
O   O13       1.0  0.65977  0.04128  0.43333  1.0000 -0.5417387697
O   O14       1.0  0.74582  0.96121  0.50016  1.0000 -0.5316883164
O   O15       1.0  0.99976  0.67842  0.50553  1.0000 -0.5220076653
O   O16       1.0  0.91805  0.59632  0.43846  1.0000 -0.5417387697
O   O17       1.0  0.15977  0.45872  0.43333  1.0000 -0.5417387697
O   O18       1.0  0.24582  0.53879  0.50016  1.0000 -0.5316883164
O   O19       1.0  0.49976  0.82158  0.50553  1.0000 -0.5220076653
O   O20       1.0  0.41805  0.90368  0.43846  1.0000 -0.5417387697
O   O21       1.0  0.15977  0.04128  0.06667  1.0000 -0.5417387697
O   O22       1.0  0.24582  0.96121  0.99984  1.0000 -0.5316883164
O   O23       1.0  0.49976  0.67842  0.99447  1.0000 -0.5220076653
O   O24       1.0  0.41805  0.59632  0.06154  1.0000 -0.5417387697
O   O25       1.0  0.34023  0.54128  0.93333  1.0000 -0.5417387697
O   O26       1.0  0.25418  0.46121  0.00016  1.0000 -0.5316883164
O   O27       1.0  0.00024  0.17842  0.00553  1.0000 -0.5220076653
O   O28       1.0  0.08195  0.09632  0.93846  1.0000 -0.5417387697
O   O29       1.0  0.34023  0.95872  0.56667  1.0000 -0.5417387697
O   O30       1.0  0.25418  0.03879  0.49984  1.0000 -0.5316883164
O   O31       1.0  0.00024  0.32158  0.49447  1.0000 -0.5220076653
O   O32       1.0  0.08195  0.40368  0.56154  1.0000 -0.5417387697
