# DDEC6 charges by PACMAN v1.1 (https://github.com/mtap-research/PACMAN-charge/)
data_2017[Cd][sql]2[FSR]8
_chemical_formula_sum              "Cd8 H128 C160 N32 O48"
_cell_length_a       20.4067
_cell_length_b       20.4067
_cell_length_c       20.4067
_cell_angle_alpha    126.274
_cell_angle_beta     126.274
_cell_angle_gamma    79.438

_symmetry_space_group_name_H-M    "P 1"
_symmetry_Int_Tables_number       1

loop_
  _symmetry_equiv_pos_as_xyz
  'x, y, z'

loop_
  _atom_site_type_symbol
  _atom_site_label
  _atom_site_symmetry_multiplicity
  _atom_site_fract_x
  _atom_site_fract_y
  _atom_site_fract_z
  _atom_site_occupancy
  _atom_site_charge
Cd  Cd1       1.0  0.42523  0.92523  0.35046  1.0000 0.8461180471
Cd  Cd2       1.0  0.57477  0.07477  0.64954  1.0000 0.8461180471
Cd  Cd3       1.0  0.92523  0.57477  0.50000  1.0000 0.8461180471
Cd  Cd4       1.0  0.07477  0.42523  0.50000  1.0000 0.8461180471
Cd  Cd5       1.0  0.82477  0.67523  0.00000  1.0000 0.8461180471
Cd  Cd6       1.0  0.67523  0.82477  0.00000  1.0000 0.8461180471
Cd  Cd7       1.0  0.32477  0.32477  0.14954  1.0000 0.8461180471
Cd  Cd8       1.0  0.17523  0.17523  0.85046  1.0000 0.8461180471
H   H1        1.0  0.30180  0.53920  0.37300  1.0000 0.3276392363
H   H2        1.0  0.43950  0.76150  0.33740  1.0000 0.1110915857
H   H3        1.0  0.39310  0.67220  0.33990  1.0000 0.1291880171
H   H4        1.0  0.22950  0.80500  0.36450  1.0000 0.1357168995
H   H5        1.0  0.28550  0.89700  0.36770  1.0000 0.1110915857
H   H6        1.0  0.22490  0.67470  0.35220  1.0000 0.1110915857
H   H7        1.0  0.31270  0.66460  0.00810  1.0000 0.1110915857
H   H8        1.0  0.22360  0.57420  0.82980  1.0000 0.1110915857
H   H9        1.0  0.16620  0.92880  0.62700  1.0000 0.3276392363
H   H10       1.0  0.42410  0.10210  0.66260  1.0000 0.1110915857
H   H11       1.0  0.33230  0.05320  0.66010  1.0000 0.1291880171
H   H12       1.0  0.44050  0.86500  0.63550  1.0000 0.1357168995
H   H13       1.0  0.52930  0.91780  0.63230  1.0000 0.1110915857
H   H14       1.0  0.32250  0.87270  0.64780  1.0000 0.1110915857
H   H15       1.0  0.65650  0.30460  0.99190  1.0000 0.1110915857
H   H16       1.0  0.74440  0.39380  0.17020  1.0000 0.1110915857
H   H17       1.0  0.96080  0.19820  0.62700  1.0000 0.3276392363
H   H18       1.0  0.73850  0.06050  0.66260  1.0000 0.1110915857
H   H19       1.0  0.82780  0.10690  0.66010  1.0000 0.1291880171
H   H20       1.0  0.69500  0.27050  0.63550  1.0000 0.1357168995
H   H21       1.0  0.60300  0.21450  0.63230  1.0000 0.1110915857
H   H22       1.0  0.82530  0.27510  0.64780  1.0000 0.1110915857
H   H23       1.0  0.83540  0.18730  0.99190  1.0000 0.1110915857
H   H24       1.0  0.92580  0.27640  0.17020  1.0000 0.1110915857
H   H25       1.0  0.57120  0.33380  0.37300  1.0000 0.3276392363
H   H26       1.0  0.39790  0.07590  0.33740  1.0000 0.1110915857
H   H27       1.0  0.44680  0.16770  0.33990  1.0000 0.1291880171
H   H28       1.0  0.63500  0.05950  0.36450  1.0000 0.1357168995
H   H29       1.0  0.58220  0.97070  0.36770  1.0000 0.1110915857
H   H30       1.0  0.62730  0.17750  0.35220  1.0000 0.1110915857
H   H31       1.0  0.19540  0.84350  0.00810  1.0000 0.1110915857
H   H32       1.0  0.10620  0.75560  0.82980  1.0000 0.1110915857
H   H33       1.0  0.07120  0.69820  0.23740  1.0000 0.3276392363
H   H34       1.0  0.89790  0.56050  0.32200  1.0000 0.1110915857
H   H35       1.0  0.94680  0.60690  0.27910  1.0000 0.1291880171
H   H36       1.0  0.13500  0.77050  0.57550  1.0000 0.1357168995
H   H37       1.0  0.08220  0.71450  0.61150  1.0000 0.1110915857
H   H38       1.0  0.12730  0.77510  0.44980  1.0000 0.1110915857
H   H39       1.0  0.69540  0.68730  0.35190  1.0000 0.1110915857
H   H40       1.0  0.60620  0.77640  0.35060  1.0000 0.1110915857
H   H41       1.0  0.46080  0.83380  0.76260  1.0000 0.3276392363
H   H42       1.0  0.23850  0.57590  0.67800  1.0000 0.1110915857
H   H43       1.0  0.32780  0.66770  0.72090  1.0000 0.1291880171
H   H44       1.0  0.19500  0.55950  0.42450  1.0000 0.1357168995
H   H45       1.0  0.10300  0.47070  0.38850  1.0000 0.1110915857
H   H46       1.0  0.32530  0.67750  0.55020  1.0000 0.1110915857
H   H47       1.0  0.33540  0.34350  0.64810  1.0000 0.1110915857
H   H48       1.0  0.42580  0.25560  0.64940  1.0000 0.1110915857
H   H49       1.0  0.66620  0.03920  0.23740  1.0000 0.3276392363
H   H50       1.0  0.92410  0.26150  0.32200  1.0000 0.1110915857
H   H51       1.0  0.83230  0.17220  0.27910  1.0000 0.1291880171
H   H52       1.0  0.94050  0.30500  0.57550  1.0000 0.1357168995
H   H53       1.0  0.02930  0.39700  0.61150  1.0000 0.1110915857
H   H54       1.0  0.82250  0.17470  0.44980  1.0000 0.1110915857
H   H55       1.0  0.15650  0.16460  0.35190  1.0000 0.1110915857
H   H56       1.0  0.24440  0.07420  0.35060  1.0000 0.1110915857
H   H57       1.0  0.80180  0.42880  0.76260  1.0000 0.3276392363
H   H58       1.0  0.93950  0.60210  0.67800  1.0000 0.1110915857
H   H59       1.0  0.89310  0.55320  0.72090  1.0000 0.1291880171
H   H60       1.0  0.72950  0.36500  0.42450  1.0000 0.1357168995
H   H61       1.0  0.78550  0.41780  0.38850  1.0000 0.1110915857
H   H62       1.0  0.72490  0.37270  0.55020  1.0000 0.1110915857
H   H63       1.0  0.81270  0.80460  0.64810  1.0000 0.1110915857
H   H64       1.0  0.72360  0.89380  0.64940  1.0000 0.1110915857
H   H65       1.0  0.67880  0.55180  0.26260  1.0000 0.3276392363
H   H66       1.0  0.85210  0.68950  0.17800  1.0000 0.1110915857
H   H67       1.0  0.80320  0.64310  0.22090  1.0000 0.1291880171
H   H68       1.0  0.61500  0.47950  0.92450  1.0000 0.1357168995
H   H69       1.0  0.66780  0.53550  0.88850  1.0000 0.1110915857
H   H70       1.0  0.62270  0.47490  0.05020  1.0000 0.1110915857
H   H71       1.0  0.05460  0.56270  0.14810  1.0000 0.1110915857
H   H72       1.0  0.14380  0.47360  0.14940  1.0000 0.1110915857
H   H73       1.0  0.28920  0.41620  0.73740  1.0000 0.3276392363
H   H74       1.0  0.51150  0.67410  0.82200  1.0000 0.1110915857
H   H75       1.0  0.42220  0.58230  0.77910  1.0000 0.1291880171
H   H76       1.0  0.55500  0.69050  0.07550  1.0000 0.1357168995
H   H77       1.0  0.64700  0.77930  0.11150  1.0000 0.1110915857
H   H78       1.0  0.42470  0.57250  0.94980  1.0000 0.1110915857
H   H79       1.0  0.41460  0.90650  0.85190  1.0000 0.1110915857
H   H80       1.0  0.32420  0.99440  0.85060  1.0000 0.1110915857
H   H81       1.0  0.08380  0.21080  0.26260  1.0000 0.3276392363
H   H82       1.0  0.82590  0.98850  0.17800  1.0000 0.1110915857
H   H83       1.0  0.91770  0.07780  0.22090  1.0000 0.1291880171
H   H84       1.0  0.80950  0.94500  0.92450  1.0000 0.1357168995
H   H85       1.0  0.72070  0.85300  0.88850  1.0000 0.1110915857
H   H86       1.0  0.92750  0.07530  0.05020  1.0000 0.1110915857
H   H87       1.0  0.59350  0.08540  0.14810  1.0000 0.1110915857
H   H88       1.0  0.50560  0.17580  0.14940  1.0000 0.1110915857
H   H89       1.0  0.94820  0.82120  0.73740  1.0000 0.3276392363
H   H90       1.0  0.81050  0.64790  0.82200  1.0000 0.1110915857
H   H91       1.0  0.85690  0.69680  0.77910  1.0000 0.1291880171
H   H92       1.0  0.02050  0.88500  0.07550  1.0000 0.1357168995
H   H93       1.0  0.96450  0.83220  0.11150  1.0000 0.1110915857
H   H94       1.0  0.02510  0.87730  0.94980  1.0000 0.1110915857
H   H95       1.0  0.93730  0.44540  0.85190  1.0000 0.1110915857
H   H96       1.0  0.02640  0.35620  0.85060  1.0000 0.1110915857
H   H97       1.0  0.44820  0.71080  0.12700  1.0000 0.3276392363
H   H98       1.0  0.31050  0.48850  0.16260  1.0000 0.1110915857
H   H99       1.0  0.35690  0.57780  0.16010  1.0000 0.1291880171
H   H100      1.0  0.52050  0.44500  0.13550  1.0000 0.1357168995
H   H101      1.0  0.46450  0.35300  0.13230  1.0000 0.1110915857
H   H102      1.0  0.52510  0.57530  0.14780  1.0000 0.1110915857
H   H103      1.0  0.43730  0.58540  0.49190  1.0000 0.1110915857
H   H104      1.0  0.52640  0.67580  0.67020  1.0000 0.1110915857
H   H105      1.0  0.58380  0.32120  0.87300  1.0000 0.3276392363
H   H106      1.0  0.32590  0.14790  0.83740  1.0000 0.1110915857
H   H107      1.0  0.41770  0.19680  0.83990  1.0000 0.1291880171
H   H108      1.0  0.30950  0.38500  0.86450  1.0000 0.1357168995
H   H109      1.0  0.22070  0.33220  0.86770  1.0000 0.1110915857
H   H110      1.0  0.42750  0.37730  0.85220  1.0000 0.1110915857
H   H111      1.0  0.09350  0.94540  0.50810  1.0000 0.1110915857
H   H112      1.0  0.00560  0.85620  0.32980  1.0000 0.1110915857
H   H113      1.0  0.78920  0.05180  0.87300  1.0000 0.3276392363
H   H114      1.0  0.01150  0.18950  0.83740  1.0000 0.1110915857
H   H115      1.0  0.92220  0.14310  0.83990  1.0000 0.1291880171
H   H116      1.0  0.05500  0.97950  0.86450  1.0000 0.1357168995
H   H117      1.0  0.14700  0.03550  0.86770  1.0000 0.1110915857
H   H118      1.0  0.92470  0.97490  0.85220  1.0000 0.1110915857
H   H119      1.0  0.91460  0.06270  0.50810  1.0000 0.1110915857
H   H120      1.0  0.82420  0.97360  0.32980  1.0000 0.1110915857
H   H121      1.0  0.17880  0.91620  0.12700  1.0000 0.3276392363
H   H122      1.0  0.35210  0.17410  0.16260  1.0000 0.1110915857
H   H123      1.0  0.30320  0.08230  0.16010  1.0000 0.1291880171
H   H124      1.0  0.11500  0.19050  0.13550  1.0000 0.1357168995
H   H125      1.0  0.16780  0.27930  0.13230  1.0000 0.1110915857
H   H126      1.0  0.12270  0.07250  0.14780  1.0000 0.1110915857
H   H127      1.0  0.55460  0.40650  0.49190  1.0000 0.1110915857
H   H128      1.0  0.64380  0.49440  0.67020  1.0000 0.1110915857
C   C1        1.0  0.39690  0.77130  0.34440  1.0000 0.0549978532
C   C2        1.0  0.36950  0.71700  0.34490  1.0000 -0.1768150281
C   C3        1.0  0.30550  0.72940  0.35290  1.0000 0.1204928152
C   C4        1.0  0.27360  0.79600  0.36020  1.0000 -0.2021293964
C   C5        1.0  0.30700  0.85090  0.36110  1.0000 0.095517724
C   C6        1.0  0.27010  0.66870  0.35020  1.0000 -0.0511123769
C   C7        1.0  0.27100  0.68280  0.97220  1.0000 -0.1266576012
C   C8        1.0  0.21740  0.62830  0.86470  1.0000 -0.1038375085
C   C9        1.0  0.42690  0.05250  0.65560  1.0000 0.0552939355
C   C10       1.0  0.37210  0.02460  0.65510  1.0000 -0.1768150281
C   C11       1.0  0.37650  0.95260  0.64710  1.0000 0.1204928152
C   C12       1.0  0.43580  0.91340  0.63980  1.0000 -0.2021293964
C   C13       1.0  0.48980  0.94590  0.63890  1.0000 0.095517724
C   C14       1.0  0.31850  0.91990  0.64980  1.0000 -0.0511123769
C   C15       1.0  0.71060  0.29880  0.02780  1.0000 -0.1266576012
C   C16       1.0  0.76360  0.35270  0.13530  1.0000 -0.1038375085
C   C17       1.0  0.72870  0.10310  0.65560  1.0000 0.0552939355
C   C18       1.0  0.78300  0.13050  0.65510  1.0000 -0.1768150281
C   C19       1.0  0.77060  0.19450  0.64710  1.0000 0.1204928152
C   C20       1.0  0.70400  0.22640  0.63980  1.0000 -0.2021293964
C   C21       1.0  0.64910  0.19300  0.63890  1.0000 0.095517724
C   C22       1.0  0.83130  0.22990  0.64980  1.0000 -0.0511123769
C   C23       1.0  0.81720  0.22900  0.02780  1.0000 -0.1266576012
C   C24       1.0  0.87170  0.28260  0.13530  1.0000 -0.1038375085
C   C25       1.0  0.44750  0.07310  0.34440  1.0000 0.0552939355
C   C26       1.0  0.47540  0.12790  0.34490  1.0000 -0.1768150281
C   C27       1.0  0.54740  0.12350  0.35290  1.0000 0.1204928152
C   C28       1.0  0.58660  0.06420  0.36020  1.0000 -0.2021293964
C   C29       1.0  0.55410  0.01020  0.36110  1.0000 0.095517724
C   C30       1.0  0.58010  0.18150  0.35020  1.0000 -0.0511123769
C   C31       1.0  0.20120  0.78940  0.97220  1.0000 -0.1266576012
C   C32       1.0  0.14730  0.73640  0.86470  1.0000 -0.1038375085
C   C33       1.0  0.94750  0.60310  0.37440  1.0000 0.0552939355
C   C34       1.0  0.97540  0.63050  0.34750  1.0000 -0.1768150281
C   C35       1.0  0.04740  0.69450  0.42390  1.0000 0.1204928152
C   C36       1.0  0.08660  0.72640  0.52240  1.0000 -0.2021293964
C   C37       1.0  0.05410  0.69300  0.54390  1.0000 0.095517724
C   C38       1.0  0.08010  0.72990  0.39860  1.0000 -0.0511123769
C   C39       1.0  0.70120  0.72900  0.41180  1.0000 -0.1266576012
C   C40       1.0  0.64730  0.78260  0.41090  1.0000 -0.1038375085
C   C41       1.0  0.22870  0.57310  0.62560  1.0000 0.0552939355
C   C42       1.0  0.28300  0.62790  0.65250  1.0000 -0.1768150281
C   C43       1.0  0.27060  0.62350  0.57610  1.0000 0.1204928152
C   C44       1.0  0.20400  0.56420  0.47760  1.0000 -0.2021293964
C   C45       1.0  0.14910  0.51020  0.45610  1.0000 0.095517724
C   C46       1.0  0.33130  0.68150  0.60140  1.0000 -0.0511123769
C   C47       1.0  0.31720  0.28940  0.58820  1.0000 -0.1266576012
C   C48       1.0  0.37170  0.23640  0.58910  1.0000 -0.1038375085
C   C49       1.0  0.92690  0.27130  0.37440  1.0000 0.0549978532
C   C50       1.0  0.87210  0.21700  0.34750  1.0000 -0.1768150281
C   C51       1.0  0.87650  0.22940  0.42390  1.0000 0.1204928152
C   C52       1.0  0.93580  0.29600  0.52240  1.0000 -0.2021293964
C   C53       1.0  0.98980  0.35090  0.54390  1.0000 0.095517724
C   C54       1.0  0.81850  0.16870  0.39860  1.0000 -0.0511123769
C   C55       1.0  0.21060  0.18280  0.41180  1.0000 -0.1266576012
C   C56       1.0  0.26360  0.12830  0.41090  1.0000 -0.1038375085
C   C57       1.0  0.89690  0.55250  0.62560  1.0000 0.0552939355
C   C58       1.0  0.86950  0.52460  0.65250  1.0000 -0.1768150281
C   C59       1.0  0.80550  0.45260  0.57610  1.0000 0.1204928152
C   C60       1.0  0.77360  0.41340  0.47760  1.0000 -0.2021293964
C   C61       1.0  0.80700  0.44590  0.45610  1.0000 0.095517724
C   C62       1.0  0.77010  0.41990  0.60140  1.0000 -0.0511123769
C   C63       1.0  0.77100  0.79880  0.58820  1.0000 -0.1266576012
C   C64       1.0  0.71740  0.85270  0.58910  1.0000 -0.1038375085
C   C65       1.0  0.32010  0.82010  0.14020  1.0000 0.5484174035
C   C66       1.0  0.26240  0.76240  0.02480  1.0000 -0.0088791668
C   C67       1.0  0.15480  0.65480  0.80960  1.0000 -0.0088791668
C   C68       1.0  0.09530  0.59530  0.69060  1.0000 0.5367643379
C   C69       1.0  0.67990  0.17990  0.85980  1.0000 0.5484174035
C   C70       1.0  0.73760  0.23760  0.97520  1.0000 -0.0088791668
C   C71       1.0  0.84520  0.34520  0.19040  1.0000 -0.0088791668
C   C72       1.0  0.90470  0.40470  0.30940  1.0000 0.5367643379
C   C73       1.0  0.82010  0.67990  0.50000  1.0000 0.5484174035
C   C74       1.0  0.76240  0.73760  0.50000  1.0000 -0.0088791668
C   C75       1.0  0.65480  0.84520  0.50000  1.0000 -0.0088791668
C   C76       1.0  0.59530  0.90470  0.50000  1.0000 0.5367643379
C   C77       1.0  0.17990  0.32010  0.50000  1.0000 0.5484174035
C   C78       1.0  0.23760  0.26240  0.50000  1.0000 -0.0088791668
C   C79       1.0  0.34520  0.15480  0.50000  1.0000 -0.0088791668
C   C80       1.0  0.40470  0.09530  0.50000  1.0000 0.5367643379
C   C81       1.0  0.80250  0.64690  0.12560  1.0000 0.0552939355
C   C82       1.0  0.77460  0.61950  0.15250  1.0000 -0.1768150281
C   C83       1.0  0.70260  0.55550  0.07610  1.0000 0.1204928152
C   C84       1.0  0.66340  0.52360  0.97760  1.0000 -0.2021293964
C   C85       1.0  0.69590  0.55700  0.95610  1.0000 0.095517724
C   C86       1.0  0.66990  0.52010  0.10140  1.0000 -0.0511123769
C   C87       1.0  0.04880  0.52100  0.08820  1.0000 -0.1266576012
C   C88       1.0  0.10270  0.46740  0.08910  1.0000 -0.1038375085
C   C89       1.0  0.52130  0.67690  0.87440  1.0000 0.0552939355
C   C90       1.0  0.46700  0.62210  0.84750  1.0000 -0.1768150281
C   C91       1.0  0.47940  0.62650  0.92390  1.0000 0.1204928152
C   C92       1.0  0.54600  0.68580  0.02240  1.0000 -0.2021293964
C   C93       1.0  0.60090  0.73980  0.04390  1.0000 0.095517724
C   C94       1.0  0.41870  0.56850  0.89860  1.0000 -0.0511123769
C   C95       1.0  0.43280  0.96060  0.91180  1.0000 -0.1266576012
C   C96       1.0  0.37830  0.01360  0.91090  1.0000 -0.1038375085
C   C97       1.0  0.82310  0.97870  0.12560  1.0000 0.0549978532
C   C98       1.0  0.87790  0.03300  0.15250  1.0000 -0.1768150281
C   C99       1.0  0.87350  0.02060  0.07610  1.0000 0.1204928152
C   C100      1.0  0.81420  0.95400  0.97760  1.0000 -0.2021293964
C   C101      1.0  0.76020  0.89910  0.95610  1.0000 0.095517724
C   C102      1.0  0.93150  0.08130  0.10140  1.0000 -0.0511123769
C   C103      1.0  0.53940  0.06720  0.08820  1.0000 -0.1266576012
C   C104      1.0  0.48640  0.12170  0.08910  1.0000 -0.1038375085
C   C105      1.0  0.85310  0.69750  0.87440  1.0000 0.0552939355
C   C106      1.0  0.88050  0.72540  0.84750  1.0000 -0.1768150281
C   C107      1.0  0.94450  0.79740  0.92390  1.0000 0.1204928152
C   C108      1.0  0.97640  0.83660  0.02240  1.0000 -0.2021293964
C   C109      1.0  0.94300  0.80410  0.04390  1.0000 0.095517724
C   C110      1.0  0.97990  0.83010  0.89860  1.0000 -0.0511123769
C   C111      1.0  0.97900  0.45120  0.91180  1.0000 -0.1266576012
C   C112      1.0  0.03260  0.39730  0.91090  1.0000 -0.1038375085
C   C113      1.0  0.35310  0.47870  0.15560  1.0000 0.0552939355
C   C114      1.0  0.38050  0.53300  0.15510  1.0000 -0.1768150281
C   C115      1.0  0.44450  0.52060  0.14710  1.0000 0.1204928152
C   C116      1.0  0.47640  0.45400  0.13980  1.0000 -0.2021293964
C   C117      1.0  0.44300  0.39910  0.13890  1.0000 0.095517724
C   C118      1.0  0.47990  0.58130  0.14980  1.0000 -0.0511123769
C   C119      1.0  0.47900  0.56720  0.52780  1.0000 -0.1266576012
C   C120      1.0  0.53260  0.62170  0.63530  1.0000 -0.1038375085
C   C121      1.0  0.32310  0.19750  0.84440  1.0000 0.0552939355
C   C122      1.0  0.37790  0.22540  0.84490  1.0000 -0.1768150281
C   C123      1.0  0.37350  0.29740  0.85290  1.0000 0.1204928152
C   C124      1.0  0.31420  0.33660  0.86020  1.0000 -0.2021293964
C   C125      1.0  0.26020  0.30410  0.86110  1.0000 0.095517724
C   C126      1.0  0.43150  0.33010  0.85020  1.0000 -0.0511123769
C   C127      1.0  0.03940  0.95120  0.47220  1.0000 -0.1266576012
C   C128      1.0  0.98640  0.89730  0.36470  1.0000 -0.1038375085
C   C129      1.0  0.02130  0.14690  0.84440  1.0000 0.0552939355
C   C130      1.0  0.96700  0.11950  0.84490  1.0000 -0.1768150281
C   C131      1.0  0.97940  0.05550  0.85290  1.0000 0.1204928152
C   C132      1.0  0.04600  0.02360  0.86020  1.0000 -0.2021293964
C   C133      1.0  0.10090  0.05700  0.86110  1.0000 0.095517724
C   C134      1.0  0.91870  0.02010  0.85020  1.0000 -0.0511123769
C   C135      1.0  0.93280  0.02100  0.47220  1.0000 -0.1266576012
C   C136      1.0  0.87830  0.96740  0.36470  1.0000 -0.1038375085
C   C137      1.0  0.30250  0.17690  0.15560  1.0000 0.0552939355
C   C138      1.0  0.27460  0.12210  0.15510  1.0000 -0.1768150281
C   C139      1.0  0.20260  0.12650  0.14710  1.0000 0.1204928152
C   C140      1.0  0.16340  0.18580  0.13980  1.0000 -0.2021293964
C   C141      1.0  0.19590  0.23980  0.13890  1.0000 0.095517724
C   C142      1.0  0.16990  0.06850  0.14980  1.0000 -0.0511123769
C   C143      1.0  0.54880  0.46060  0.52780  1.0000 -0.1266576012
C   C144      1.0  0.60270  0.51360  0.63530  1.0000 -0.1038375085
C   C145      1.0  0.92990  0.57010  0.00000  1.0000 0.5484174035
C   C146      1.0  0.98760  0.51240  0.00000  1.0000 -0.0088791668
C   C147      1.0  0.09520  0.40480  0.00000  1.0000 -0.0088791668
C   C148      1.0  0.15470  0.34530  0.00000  1.0000 0.5367643379
C   C149      1.0  0.57010  0.92990  0.00000  1.0000 0.5484174035
C   C150      1.0  0.51240  0.98760  0.00000  1.0000 -0.0088791668
C   C151      1.0  0.40480  0.09520  0.00000  1.0000 -0.0088791668
C   C152      1.0  0.34530  0.15470  0.00000  1.0000 0.5367643379
C   C153      1.0  0.42990  0.42990  0.35980  1.0000 0.5484174035
C   C154      1.0  0.48760  0.48760  0.47520  1.0000 -0.0088791668
C   C155      1.0  0.59520  0.59520  0.69040  1.0000 -0.0088791668
C   C156      1.0  0.65470  0.65470  0.80940  1.0000 0.5367643379
C   C157      1.0  0.07010  0.07010  0.64020  1.0000 0.5484174035
C   C158      1.0  0.01240  0.01240  0.52480  1.0000 -0.0088791668
C   C159      1.0  0.90480  0.90480  0.30960  1.0000 -0.0088791668
C   C160      1.0  0.84530  0.84530  0.19060  1.0000 0.5367643379
N   N1        1.0  0.36860  0.83850  0.35310  1.0000 -0.2206899736
N   N2        1.0  0.30480  0.60840  0.34520  1.0000 -0.0820472443
N   N3        1.0  0.48540  0.01550  0.64690  1.0000 -0.2206899736
N   N4        1.0  0.26320  0.95960  0.65480  1.0000 -0.0820472443
N   N5        1.0  0.66150  0.13140  0.64690  1.0000 -0.2206899736
N   N6        1.0  0.89160  0.19520  0.65480  1.0000 -0.0820472443
N   N7        1.0  0.48450  0.01460  0.35310  1.0000 -0.2206899736
N   N8        1.0  0.54040  0.23680  0.34520  1.0000 -0.0820472443
N   N9        1.0  0.98450  0.63140  0.46990  1.0000 -0.2206899736
N   N10       1.0  0.04040  0.69520  0.30360  1.0000 -0.0820472443
N   N11       1.0  0.16150  0.51460  0.53010  1.0000 -0.2206899736
N   N12       1.0  0.39160  0.73680  0.69640  1.0000 -0.0820472443
N   N13       1.0  0.98540  0.33850  0.46990  1.0000 -0.2206899736
N   N14       1.0  0.76320  0.10840  0.30360  1.0000 -0.0820472443
N   N15       1.0  0.86860  0.51550  0.53010  1.0000 -0.2206899736
N   N16       1.0  0.80480  0.45960  0.69640  1.0000 -0.0820472443
N   N17       1.0  0.76550  0.61860  0.03010  1.0000 -0.2206899736
N   N18       1.0  0.70960  0.55480  0.19640  1.0000 -0.0820472443
N   N19       1.0  0.58850  0.73540  0.96990  1.0000 -0.2206899736
N   N20       1.0  0.35840  0.51320  0.80360  1.0000 -0.0820472443
N   N21       1.0  0.76460  0.91150  0.03010  1.0000 -0.2206899736
N   N22       1.0  0.98680  0.14160  0.19640  1.0000 -0.0820472443
N   N23       1.0  0.88140  0.73450  0.96990  1.0000 -0.2206899736
N   N24       1.0  0.94520  0.79040  0.80360  1.0000 -0.0820472443
N   N25       1.0  0.38140  0.41150  0.14690  1.0000 -0.2206899736
N   N26       1.0  0.44520  0.64160  0.15480  1.0000 -0.0820472443
N   N27       1.0  0.26460  0.23450  0.85310  1.0000 -0.2206899736
N   N28       1.0  0.48680  0.29040  0.84520  1.0000 -0.0820472443
N   N29       1.0  0.08850  0.11860  0.85310  1.0000 -0.2206899736
N   N30       1.0  0.85840  0.05480  0.84520  1.0000 -0.0820472443
N   N31       1.0  0.26550  0.23540  0.14690  1.0000 -0.2206899736
N   N32       1.0  0.20960  0.01320  0.15480  1.0000 -0.0820472443
O   O1        1.0  0.26655  0.55715  0.34300  1.0000 -0.3326515171
O   O2        1.0  0.39082  0.80842  0.18720  1.0000 -0.5466070704
O   O3        1.0  0.10241  0.52341  0.65340  1.0000 -0.5334740512
O   O4        1.0  0.21415  0.92355  0.65700  1.0000 -0.3326515171
O   O5        1.0  0.62122  0.20362  0.81280  1.0000 -0.5466070704
O   O6        1.0  0.87001  0.44901  0.34660  1.0000 -0.5334740512
O   O7        1.0  0.94285  0.23345  0.65700  1.0000 -0.3326515171
O   O8        1.0  0.69158  0.10918  0.81280  1.0000 -0.5466070704
O   O9        1.0  0.97659  0.39759  0.34660  1.0000 -0.5334740512
O   O10       1.0  0.57645  0.28585  0.34300  1.0000 -0.3326515171
O   O11       1.0  0.29638  0.87878  0.18720  1.0000 -0.5466070704
O   O12       1.0  0.05099  0.62999  0.65340  1.0000 -0.5334740512
O   O13       1.0  0.07645  0.73345  0.29060  1.0000 -0.3326515171
O   O14       1.0  0.79638  0.60918  0.41760  1.0000 -0.5466070704
O   O15       1.0  0.55099  0.89759  0.42100  1.0000 -0.5334740512
O   O16       1.0  0.44285  0.78585  0.70940  1.0000 -0.3326515171
O   O17       1.0  0.19158  0.37878  0.58240  1.0000 -0.5466070704
O   O18       1.0  0.47659  0.12999  0.57900  1.0000 -0.5334740512
O   O19       1.0  0.71415  0.05715  0.29060  1.0000 -0.3326515171
O   O20       1.0  0.12122  0.30842  0.41760  1.0000 -0.5466070704
O   O21       1.0  0.37001  0.02341  0.42100  1.0000 -0.5334740512
O   O22       1.0  0.76655  0.42355  0.70940  1.0000 -0.3326515171
O   O23       1.0  0.89082  0.70362  0.58240  1.0000 -0.5466070704
O   O24       1.0  0.60241  0.94901  0.57900  1.0000 -0.5334740512
O   O25       1.0  0.67355  0.51655  0.20940  1.0000 -0.3326515171
O   O26       1.0  0.95362  0.64082  0.08240  1.0000 -0.5466070704
O   O27       1.0  0.19901  0.35241  0.07900  1.0000 -0.5334740512
O   O28       1.0  0.30715  0.46415  0.79060  1.0000 -0.3326515171
O   O29       1.0  0.55842  0.87122  0.91760  1.0000 -0.5466070704
O   O30       1.0  0.27341  0.12001  0.92100  1.0000 -0.5334740512
O   O31       1.0  0.03585  0.19285  0.20940  1.0000 -0.3326515171
O   O32       1.0  0.62878  0.94158  0.08240  1.0000 -0.5466070704
O   O33       1.0  0.37999  0.22659  0.07900  1.0000 -0.5334740512
O   O34       1.0  0.98345  0.82645  0.79060  1.0000 -0.3326515171
O   O35       1.0  0.85918  0.54638  0.91760  1.0000 -0.5466070704
O   O36       1.0  0.14759  0.30099  0.92100  1.0000 -0.5334740512
O   O37       1.0  0.48345  0.69285  0.15700  1.0000 -0.3326515171
O   O38       1.0  0.35918  0.44158  0.31280  1.0000 -0.5466070704
O   O39       1.0  0.64759  0.72659  0.84660  1.0000 -0.5334740512
O   O40       1.0  0.53585  0.32645  0.84300  1.0000 -0.3326515171
O   O41       1.0  0.12878  0.04638  0.68720  1.0000 -0.5466070704
O   O42       1.0  0.87999  0.80099  0.15340  1.0000 -0.5334740512
O   O43       1.0  0.80715  0.01655  0.84300  1.0000 -0.3326515171
O   O44       1.0  0.05842  0.14082  0.68720  1.0000 -0.5466070704
O   O45       1.0  0.77341  0.85241  0.15340  1.0000 -0.5334740512
O   O46       1.0  0.17355  0.96415  0.15700  1.0000 -0.3326515171
O   O47       1.0  0.45362  0.37122  0.31280  1.0000 -0.5466070704
O   O48       1.0  0.69901  0.62001  0.84660  1.0000 -0.5334740512
