# DDEC6 charges by PACMAN v1.1 (https://github.com/mtap-research/PACMAN-charge/)
data_2017[ErCu][nan]3[FSR]1
_chemical_formula_sum              "Er8 Cu16 H184 C200 I12 N36 O64"
_cell_length_a       9.254
_cell_length_b       23.199
_cell_length_c       30.538
_cell_angle_alpha    90
_cell_angle_beta     90
_cell_angle_gamma    90

_symmetry_space_group_name_H-M    "P 1"
_symmetry_Int_Tables_number       1

loop_
  _symmetry_equiv_pos_as_xyz
  'x, y, z'

loop_
  _atom_site_type_symbol
  _atom_site_label
  _atom_site_symmetry_multiplicity
  _atom_site_fract_x
  _atom_site_fract_y
  _atom_site_fract_z
  _atom_site_occupancy
  _atom_site_charge
Er  Er1       1.0  0.01157  0.96506  0.47801  1.0000 2.1297416507
Er  Er2       1.0  0.54321  0.93994  0.48432  1.0000 2.160191816
Er  Er3       1.0  0.48843  0.03494  0.97801  1.0000 2.1297416507
Er  Er4       1.0  0.95679  0.06006  0.98432  1.0000 2.160191816
Er  Er5       1.0  0.98843  0.46506  0.02199  1.0000 2.1297416507
Er  Er6       1.0  0.45679  0.43994  0.01568  1.0000 2.160191816
Er  Er7       1.0  0.51157  0.53494  0.52199  1.0000 2.1297416507
Er  Er8       1.0  0.04321  0.56006  0.51568  1.0000 2.160191816
Cu  Cu1       1.0  0.72109  0.76523  0.17560  1.0000 0.1959659575
Cu  Cu2       1.0  0.50522  0.64387  0.24956  1.0000 0.1810272156
Cu  Cu3       1.0  0.04830  0.88090  0.22196  1.0000 0.2743500291
Cu  Cu4       1.0  0.74489  0.71848  0.25697  1.0000 0.1643468409
Cu  Cu5       1.0  0.77891  0.23477  0.67560  1.0000 0.1959659575
Cu  Cu6       1.0  0.99478  0.35613  0.74956  1.0000 0.1810272156
Cu  Cu7       1.0  0.45170  0.11910  0.72196  1.0000 0.2743500291
Cu  Cu8       1.0  0.75511  0.28152  0.75697  1.0000 0.1643468409
Cu  Cu9       1.0  0.27891  0.26523  0.32440  1.0000 0.1959659575
Cu  Cu10      1.0  0.49478  0.14387  0.25044  1.0000 0.1810272156
Cu  Cu11      1.0  0.95170  0.38090  0.27804  1.0000 0.2743500291
Cu  Cu12      1.0  0.25511  0.21848  0.24303  1.0000 0.1643468409
Cu  Cu13      1.0  0.22109  0.73477  0.82440  1.0000 0.1959659575
Cu  Cu14      1.0  0.00522  0.85613  0.75044  1.0000 0.1810272156
Cu  Cu15      1.0  0.54830  0.61910  0.77804  1.0000 0.2743500291
Cu  Cu16      1.0  0.24489  0.78152  0.74303  1.0000 0.1643468409
H   H1        1.0  0.04380  0.90580  0.59340  1.0000 0.1406648245
H   H2        1.0  0.00390  0.82070  0.37660  1.0000 0.1301066137
H   H3        1.0  0.55420  0.08660  0.57920  1.0000 0.1301066137
H   H4        1.0  0.43380  0.83680  0.57680  1.0000 0.1643468409
H   H5        1.0  0.29440  0.79890  0.58130  1.0000 0.1301066137
H   H6        1.0  0.28100  0.86600  0.57670  1.0000 0.1490822826
H   H7        1.0  0.10080  0.97580  0.36510  1.0000 0.1490822826
H   H8        1.0  0.41950  0.05670  0.31820  1.0000 0.1005562301
H   H9        1.0  0.11570  0.89090  0.66500  1.0000 0.1005562301
H   H10       1.0  0.09580  0.09080  0.40080  1.0000 0.1406648245
H   H11       1.0  0.90290  0.07050  0.34470  1.0000 0.1406648245
H   H12       1.0  0.55860  0.75760  0.33180  1.0000 0.0904018252
H   H13       1.0  0.57240  0.81460  0.39540  1.0000 0.1406648245
H   H14       1.0  0.03290  0.96530  0.29520  1.0000 0.1202424945
H   H15       1.0  0.98050  0.10820  0.55820  1.0000 0.1406648245
H   H16       1.0  0.25490  0.82570  0.28320  1.0000 0.1005562301
H   H17       1.0  0.35780  0.83780  0.35070  1.0000 0.1406648245
H   H18       1.0  0.56810  0.15440  0.63330  1.0000 0.0904018252
H   H19       1.0  0.97660  0.76330  0.31630  1.0000 0.1005562301
H   H20       1.0  0.20460  0.08520  0.57860  1.0000 0.1406648245
H   H21       1.0  0.78990  0.12160  0.28840  1.0000 0.1081546084
H   H22       1.0  0.51550  0.00740  0.37600  1.0000 0.1406648245
H   H23       1.0  0.50330  0.13080  0.43210  1.0000 0.1406648245
H   H24       1.0  0.27540  0.13580  0.64030  1.0000 0.1081546084
H   H25       1.0  0.09250  0.73480  0.52490  1.0000 0.1490822826
H   H26       1.0  0.01060  0.79020  0.50920  1.0000 0.1406648245
H   H27       1.0  0.09910  0.79130  0.55290  1.0000 0.1202424945
H   H28       1.0  0.64800  0.85260  0.62490  1.0000 0.1406648245
H   H29       1.0  0.98470  0.17170  0.61600  1.0000 0.1005562301
H   H30       1.0  0.64840  0.86060  0.27640  1.0000 0.1490822826
H   H31       1.0  0.62690  0.91880  0.30170  1.0000 0.1490822826
H   H32       1.0  0.78060  0.89050  0.29900  1.0000 0.1490822826
H   H33       1.0  0.46730  0.00160  0.68780  1.0000 0.1202424945
H   H34       1.0  0.73300  0.83100  0.69460  1.0000 0.1081546084
H   H35       1.0  0.09610  0.16760  0.35340  1.0000 0.1005562301
H   H36       1.0  0.31630  0.80070  0.44160  1.0000 0.1406648245
H   H37       1.0  0.14720  0.79800  0.43910  1.0000 0.1301066137
H   H38       1.0  0.23600  0.74190  0.44870  1.0000 0.1406648245
H   H39       1.0  0.48530  0.20550  0.38770  1.0000 0.1081546084
H   H40       1.0  0.41800  0.95040  0.62710  1.0000 0.1490822826
H   H41       1.0  0.70600  0.01770  0.18740  1.0000 0.1202424945
H   H42       1.0  0.56260  0.99630  0.16550  1.0000 0.1202424945
H   H43       1.0  0.70470  0.96010  0.16050  1.0000 0.1301066137
H   H44       1.0  0.42100  0.91300  0.22170  1.0000 0.1202424945
H   H45       1.0  0.40890  0.98030  0.22430  1.0000 0.1202424945
H   H46       1.0  0.45980  0.94510  0.26530  1.0000 0.1202424945
H   H47       1.0  0.45620  0.09420  0.09340  1.0000 0.1406648245
H   H48       1.0  0.49610  0.17930  0.87660  1.0000 0.1301066137
H   H49       1.0  0.94580  0.91340  0.07920  1.0000 0.1301066137
H   H50       1.0  0.06620  0.16320  0.07680  1.0000 0.1643468409
H   H51       1.0  0.20560  0.20110  0.08130  1.0000 0.1301066137
H   H52       1.0  0.21900  0.13400  0.07670  1.0000 0.1490822826
H   H53       1.0  0.39920  0.02420  0.86510  1.0000 0.1490822826
H   H54       1.0  0.08050  0.94330  0.81820  1.0000 0.1005562301
H   H55       1.0  0.38430  0.10910  0.16500  1.0000 0.1005562301
H   H56       1.0  0.40420  0.90920  0.90080  1.0000 0.1406648245
H   H57       1.0  0.59710  0.92950  0.84470  1.0000 0.1406648245
H   H58       1.0  0.94140  0.24240  0.83180  1.0000 0.0904018252
H   H59       1.0  0.92760  0.18540  0.89540  1.0000 0.1406648245
H   H60       1.0  0.46710  0.03470  0.79520  1.0000 0.1202424945
H   H61       1.0  0.51950  0.89180  0.05820  1.0000 0.1406648245
H   H62       1.0  0.24510  0.17430  0.78320  1.0000 0.1005562301
H   H63       1.0  0.14220  0.16220  0.85070  1.0000 0.1406648245
H   H64       1.0  0.93190  0.84560  0.13330  1.0000 0.0904018252
H   H65       1.0  0.52340  0.23670  0.81630  1.0000 0.1005562301
H   H66       1.0  0.29540  0.91480  0.07860  1.0000 0.1406648245
H   H67       1.0  0.71010  0.87840  0.78840  1.0000 0.1081546084
H   H68       1.0  0.98450  0.99260  0.87600  1.0000 0.1406648245
H   H69       1.0  0.99670  0.86920  0.93210  1.0000 0.1406648245
H   H70       1.0  0.22460  0.86420  0.14030  1.0000 0.1081546084
H   H71       1.0  0.40750  0.26520  0.02490  1.0000 0.1490822826
H   H72       1.0  0.48940  0.20980  0.00920  1.0000 0.1406648245
H   H73       1.0  0.40090  0.20870  0.05290  1.0000 0.1202424945
H   H74       1.0  0.85200  0.14740  0.12490  1.0000 0.1406648245
H   H75       1.0  0.51530  0.82830  0.11600  1.0000 0.1005562301
H   H76       1.0  0.85160  0.13940  0.77640  1.0000 0.1490822826
H   H77       1.0  0.87310  0.08120  0.80170  1.0000 0.1406648245
H   H78       1.0  0.71940  0.10950  0.79900  1.0000 0.1490822826
H   H79       1.0  0.03270  0.99840  0.18780  1.0000 0.1202424945
H   H80       1.0  0.76700  0.16900  0.19460  1.0000 0.1081546084
H   H81       1.0  0.40390  0.83240  0.85340  1.0000 0.1005562301
H   H82       1.0  0.18370  0.19930  0.94160  1.0000 0.1406648245
H   H83       1.0  0.35280  0.20200  0.93910  1.0000 0.1301066137
H   H84       1.0  0.26400  0.25810  0.94870  1.0000 0.1406648245
H   H85       1.0  0.01470  0.79450  0.88770  1.0000 0.1081546084
H   H86       1.0  0.08200  0.04960  0.12710  1.0000 0.1490822826
H   H87       1.0  0.79400  0.98230  0.68740  1.0000 0.1202424945
H   H88       1.0  0.93740  0.00370  0.66550  1.0000 0.1202424945
H   H89       1.0  0.79530  0.03990  0.66050  1.0000 0.1301066137
H   H90       1.0  0.07900  0.08700  0.72170  1.0000 0.1202424945
H   H91       1.0  0.09110  0.01970  0.72430  1.0000 0.1202424945
H   H92       1.0  0.04020  0.05490  0.76530  1.0000 0.1081546084
H   H93       1.0  0.95620  0.40580  0.90660  1.0000 0.1406648245
H   H94       1.0  0.99610  0.32070  0.12340  1.0000 0.1301066137
H   H95       1.0  0.44580  0.58660  0.92080  1.0000 0.1301066137
H   H96       1.0  0.56620  0.33680  0.92320  1.0000 0.1643468409
H   H97       1.0  0.70560  0.29890  0.91870  1.0000 0.1301066137
H   H98       1.0  0.71900  0.36600  0.92330  1.0000 0.1490822826
H   H99       1.0  0.89920  0.47580  0.13490  1.0000 0.1490822826
H   H100      1.0  0.58050  0.55670  0.18180  1.0000 0.1005562301
H   H101      1.0  0.88430  0.39090  0.83500  1.0000 0.1005562301
H   H102      1.0  0.90420  0.59080  0.09920  1.0000 0.1406648245
H   H103      1.0  0.09710  0.57050  0.15530  1.0000 0.1406648245
H   H104      1.0  0.44140  0.25760  0.16820  1.0000 0.0904018252
H   H105      1.0  0.42760  0.31460  0.10460  1.0000 0.1406648245
H   H106      1.0  0.96710  0.46530  0.20480  1.0000 0.1202424945
H   H107      1.0  0.01950  0.60820  0.94180  1.0000 0.1406648245
H   H108      1.0  0.74510  0.32570  0.21680  1.0000 0.1005562301
H   H109      1.0  0.64220  0.33780  0.14930  1.0000 0.1406648245
H   H110      1.0  0.43190  0.65440  0.86670  1.0000 0.0904018252
H   H111      1.0  0.02340  0.26330  0.18370  1.0000 0.1005562301
H   H112      1.0  0.79540  0.58520  0.92140  1.0000 0.1406648245
H   H113      1.0  0.21010  0.62160  0.21160  1.0000 0.1081546084
H   H114      1.0  0.48450  0.50740  0.12400  1.0000 0.1406648245
H   H115      1.0  0.49670  0.63080  0.06790  1.0000 0.1406648245
H   H116      1.0  0.72460  0.63580  0.85970  1.0000 0.1081546084
H   H117      1.0  0.90750  0.23480  0.97510  1.0000 0.1490822826
H   H118      1.0  0.98940  0.29020  0.99080  1.0000 0.1406648245
H   H119      1.0  0.90090  0.29130  0.94710  1.0000 0.1202424945
H   H120      1.0  0.35200  0.35260  0.87510  1.0000 0.1406648245
H   H121      1.0  0.01530  0.67170  0.88400  1.0000 0.1005562301
H   H122      1.0  0.35160  0.36060  0.22360  1.0000 0.1490822826
H   H123      1.0  0.37310  0.41880  0.19830  1.0000 0.1406648245
H   H124      1.0  0.21940  0.39050  0.20100  1.0000 0.1490822826
H   H125      1.0  0.53270  0.50160  0.81220  1.0000 0.1202424945
H   H126      1.0  0.26700  0.33100  0.80540  1.0000 0.1081546084
H   H127      1.0  0.90390  0.66760  0.14660  1.0000 0.1005562301
H   H128      1.0  0.68370  0.30070  0.05840  1.0000 0.1406648245
H   H129      1.0  0.85280  0.29800  0.06090  1.0000 0.1301066137
H   H130      1.0  0.76400  0.24190  0.05130  1.0000 0.1406648245
H   H131      1.0  0.51470  0.70550  0.11230  1.0000 0.1081546084
H   H132      1.0  0.58200  0.45040  0.87290  1.0000 0.1490822826
H   H133      1.0  0.29400  0.51770  0.31260  1.0000 0.1202424945
H   H134      1.0  0.43740  0.49630  0.33450  1.0000 0.1202424945
H   H135      1.0  0.29530  0.46010  0.33950  1.0000 0.1301066137
H   H136      1.0  0.57900  0.41300  0.27830  1.0000 0.1202424945
H   H137      1.0  0.59110  0.48030  0.27570  1.0000 0.1202424945
H   H138      1.0  0.54020  0.44510  0.23470  1.0000 0.1202424945
H   H139      1.0  0.54380  0.59420  0.40660  1.0000 0.1406648245
H   H140      1.0  0.50390  0.67930  0.62340  1.0000 0.1301066137
H   H141      1.0  0.05420  0.41340  0.42080  1.0000 0.1301066137
H   H142      1.0  0.93380  0.66320  0.42320  1.0000 0.1643468409
H   H143      1.0  0.79440  0.70110  0.41870  1.0000 0.1301066137
H   H144      1.0  0.78100  0.63400  0.42330  1.0000 0.1490822826
H   H145      1.0  0.60080  0.52420  0.63490  1.0000 0.1490822826
H   H146      1.0  0.91950  0.44330  0.68180  1.0000 0.1005562301
H   H147      1.0  0.61570  0.60910  0.33500  1.0000 0.1005562301
H   H148      1.0  0.59580  0.40920  0.59920  1.0000 0.1406648245
H   H149      1.0  0.40290  0.42950  0.65530  1.0000 0.1406648245
H   H150      1.0  0.05860  0.74240  0.66820  1.0000 0.0904018252
H   H151      1.0  0.07240  0.68540  0.60460  1.0000 0.1406648245
H   H152      1.0  0.53290  0.53470  0.70480  1.0000 0.1202424945
H   H153      1.0  0.48050  0.39180  0.44180  1.0000 0.1406648245
H   H154      1.0  0.75490  0.67430  0.71680  1.0000 0.1005562301
H   H155      1.0  0.85780  0.66220  0.64930  1.0000 0.1406648245
H   H156      1.0  0.06810  0.34560  0.36670  1.0000 0.0904018252
H   H157      1.0  0.47660  0.73670  0.68370  1.0000 0.1005562301
H   H158      1.0  0.70460  0.41480  0.42140  1.0000 0.1406648245
H   H159      1.0  0.28990  0.37840  0.71160  1.0000 0.1081546084
H   H160      1.0  0.01550  0.49260  0.62400  1.0000 0.1406648245
H   H161      1.0  0.00330  0.36920  0.56790  1.0000 0.1406648245
H   H162      1.0  0.77540  0.36420  0.35970  1.0000 0.1081546084
H   H163      1.0  0.59250  0.76520  0.47510  1.0000 0.1490822826
H   H164      1.0  0.51060  0.70980  0.49080  1.0000 0.1406648245
H   H165      1.0  0.59910  0.70870  0.44710  1.0000 0.1202424945
H   H166      1.0  0.14800  0.64740  0.37510  1.0000 0.1406648245
H   H167      1.0  0.48470  0.32830  0.38400  1.0000 0.1005562301
H   H168      1.0  0.14840  0.63940  0.72360  1.0000 0.1490822826
H   H169      1.0  0.12690  0.58120  0.69830  1.0000 0.1406648245
H   H170      1.0  0.28060  0.60950  0.70100  1.0000 0.1490822826
H   H171      1.0  0.96730  0.49840  0.31220  1.0000 0.1202424945
H   H172      1.0  0.23300  0.66900  0.30540  1.0000 0.1081546084
H   H173      1.0  0.59610  0.33240  0.64660  1.0000 0.1005562301
H   H174      1.0  0.81630  0.69930  0.55840  1.0000 0.1406648245
H   H175      1.0  0.64720  0.70200  0.56090  1.0000 0.1301066137
H   H176      1.0  0.73600  0.75810  0.55130  1.0000 0.1406648245
H   H177      1.0  0.98530  0.29450  0.61230  1.0000 0.1081546084
H   H178      1.0  0.91800  0.54960  0.37290  1.0000 0.1490822826
H   H179      1.0  0.20600  0.48230  0.81260  1.0000 0.1202424945
H   H180      1.0  0.06260  0.50370  0.83450  1.0000 0.1202424945
H   H181      1.0  0.20470  0.53990  0.83950  1.0000 0.1301066137
H   H182      1.0  0.92100  0.58700  0.77830  1.0000 0.1202424945
H   H183      1.0  0.90890  0.51970  0.77570  1.0000 0.1202424945
H   H184      1.0  0.95980  0.55490  0.73470  1.0000 0.1081546084
C   C1        1.0  0.80200  0.86340  0.43260  1.0000 0.6300540982
C   C2        1.0  0.97760  0.89240  0.61390  1.0000 -0.1508178063
C   C3        1.0  0.26950  0.97610  0.55460  1.0000 0.6300540982
C   C4        1.0  0.91250  0.80820  0.36830  1.0000 -0.1590429505
C   C5        1.0  0.76610  0.04150  0.52770  1.0000 0.6300540982
C   C6        1.0  0.79050  0.82380  0.39250  1.0000 0.0199390902
C   C7        1.0  0.78150  0.00630  0.40820  1.0000 0.6300540982
C   C8        1.0  0.78790  0.90110  0.55600  1.0000 0.6300540982
C   C9        1.0  0.24030  0.91020  0.36650  1.0000 0.0199390902
C   C10       1.0  0.64280  0.10300  0.58640  1.0000 -0.1508178063
C   C11       1.0  0.29610  0.04930  0.45340  1.0000 0.6399814456
C   C12       1.0  0.30370  0.01050  0.59530  1.0000 0.036229857
C   C13       1.0  0.33500  0.83260  0.56780  1.0000 -0.6031046093
C   C14       1.0  0.13910  0.94580  0.34860  1.0000 -0.1508178063
C   C15       1.0  0.51770  0.06060  0.32390  1.0000 0.0579162072
C   C16       1.0  0.76770  0.08720  0.56410  1.0000 0.0262497837
C   C17       1.0  0.30070  0.10180  0.42370  1.0000 0.0199390902
C   C18       1.0  0.02150  0.88180  0.65690  1.0000 0.0707101254
C   C19       1.0  0.32820  0.82640  0.51790  1.0000 0.5530144392
C   C20       1.0  0.17760  0.11380  0.39830  1.0000 -0.1590429505
C   C21       1.0  0.83540  0.88280  0.60180  1.0000 0.0199390902
C   C22       1.0  0.80350  0.06820  0.34070  1.0000 -0.1411443775
C   C23       1.0  0.64840  0.77050  0.34130  1.0000 0.0707101254
C   C24       1.0  0.65510  0.80510  0.37970  1.0000 -0.1590429505
C   C25       1.0  0.09440  0.93780  0.30710  1.0000 0.0707101254
C   C26       1.0  0.89690  0.11540  0.57430  1.0000 -0.1508178063
C   C27       1.0  0.72300  0.93090  0.24090  1.0000 0.5129939435
C   C28       1.0  0.22720  0.85750  0.29980  1.0000 0.036229857
C   C29       1.0  0.28810  0.86340  0.34060  1.0000 -0.1590429505
C   C30       1.0  0.65280  0.14340  0.61920  1.0000 0.0707101254
C   C31       1.0  0.71930  0.03620  0.36780  1.0000 0.0199390902
C   C32       1.0  0.89490  0.77410  0.33200  1.0000 0.077661216
C   C33       1.0  0.26030  0.06740  0.60000  1.0000 -0.1724380112
C   C34       1.0  0.73350  0.09810  0.30620  1.0000 0.077661216
C   C35       1.0  0.57420  0.03080  0.35880  1.0000 -0.1411443775
C   C36       1.0  0.41720  0.13740  0.41720  1.0000 -0.1508178063
C   C37       1.0  0.30250  0.09740  0.63780  1.0000 0.0707101254
C   C38       1.0  0.09550  0.77610  0.52370  1.0000 -0.3315107853
C   C39       1.0  0.29700  0.91770  0.41220  1.0000 0.6205302297
C   C40       1.0  0.74390  0.86000  0.63210  1.0000 -0.1508178063
C   C41       1.0  0.89770  0.15410  0.60860  1.0000 0.0507289692
C   C42       1.0  0.69200  0.89700  0.28350  1.0000 -0.5753546537
C   C43       1.0  0.41600  0.01920  0.66520  1.0000 0.0579162072
C   C44       1.0  0.79550  0.84770  0.67430  1.0000 0.0507289692
C   C45       1.0  0.17860  0.15980  0.36980  1.0000 0.0579162072
C   C46       1.0  0.23100  0.78280  0.45340  1.0000 -0.3315107853
C   C47       1.0  0.40580  0.18110  0.38970  1.0000 0.0507289692
C   C48       1.0  0.38440  0.98810  0.62910  1.0000 -0.1590429505
C   C49       1.0  0.65000  0.98440  0.17980  1.0000 -0.3315107853
C   C50       1.0  0.46300  0.94730  0.23390  1.0000 -0.346216935
C   C51       1.0  0.69800  0.13660  0.93260  1.0000 0.6300540982
C   C52       1.0  0.52240  0.10760  0.11390  1.0000 -0.1508178063
C   C53       1.0  0.23050  0.02390  0.05460  1.0000 0.6300540982
C   C54       1.0  0.58750  0.19180  0.86830  1.0000 -0.1590429505
C   C55       1.0  0.73390  0.95850  0.02770  1.0000 0.6300540982
C   C56       1.0  0.70950  0.17620  0.89250  1.0000 0.0199390902
C   C57       1.0  0.71850  0.99370  0.90820  1.0000 0.6300540982
C   C58       1.0  0.71210  0.09890  0.05600  1.0000 0.6300540982
C   C59       1.0  0.25970  0.08980  0.86650  1.0000 0.0199390902
C   C60       1.0  0.85720  0.89700  0.08640  1.0000 -0.1508178063
C   C61       1.0  0.20390  0.95070  0.95340  1.0000 0.6399814456
C   C62       1.0  0.19630  0.98950  0.09530  1.0000 0.036229857
C   C63       1.0  0.16500  0.16740  0.06780  1.0000 -0.6031046093
C   C64       1.0  0.36090  0.05420  0.84860  1.0000 -0.1508178063
C   C65       1.0  0.98230  0.93940  0.82390  1.0000 0.0579162072
C   C66       1.0  0.73230  0.91280  0.06410  1.0000 0.0262497837
C   C67       1.0  0.19930  0.89820  0.92370  1.0000 0.0199390902
C   C68       1.0  0.47850  0.11820  0.15690  1.0000 0.0707101254
C   C69       1.0  0.17180  0.17360  0.01790  1.0000 0.5530144392
C   C70       1.0  0.32240  0.88620  0.89830  1.0000 -0.1590429505
C   C71       1.0  0.66460  0.11720  0.10180  1.0000 0.0199390902
C   C72       1.0  0.69650  0.93180  0.84070  1.0000 -0.1411443775
C   C73       1.0  0.85160  0.22950  0.84130  1.0000 0.0707101254
C   C74       1.0  0.84490  0.19490  0.87970  1.0000 -0.1590429505
C   C75       1.0  0.40560  0.06220  0.80710  1.0000 0.0707101254
C   C76       1.0  0.60310  0.88460  0.07430  1.0000 -0.1508178063
C   C77       1.0  0.77700  0.06910  0.74090  1.0000 0.5129939435
C   C78       1.0  0.27280  0.14250  0.79980  1.0000 0.036229857
C   C79       1.0  0.21190  0.13660  0.84060  1.0000 -0.1590429505
C   C80       1.0  0.84720  0.85660  0.11920  1.0000 0.0707101254
C   C81       1.0  0.78070  0.96380  0.86780  1.0000 0.0199390902
C   C82       1.0  0.60510  0.22590  0.83200  1.0000 0.077661216
C   C83       1.0  0.23970  0.93260  0.10000  1.0000 -0.1724380112
C   C84       1.0  0.76650  0.90190  0.80620  1.0000 0.077661216
C   C85       1.0  0.92580  0.96920  0.85880  1.0000 -0.1411443775
C   C86       1.0  0.08280  0.86260  0.91720  1.0000 -0.1508178063
C   C87       1.0  0.19750  0.90260  0.13780  1.0000 0.0707101254
C   C88       1.0  0.40450  0.22390  0.02370  1.0000 -0.3315107853
C   C89       1.0  0.20300  0.08230  0.91220  1.0000 0.6205302297
C   C90       1.0  0.75610  0.14000  0.13210  1.0000 -0.1508178063
C   C91       1.0  0.60230  0.84590  0.10860  1.0000 0.0507289692
C   C92       1.0  0.80800  0.10300  0.78350  1.0000 -0.5753546537
C   C93       1.0  0.08400  0.98080  0.16520  1.0000 0.0579162072
C   C94       1.0  0.70450  0.15230  0.17430  1.0000 0.0507289692
C   C95       1.0  0.32140  0.84020  0.86980  1.0000 0.0579162072
C   C96       1.0  0.26900  0.21720  0.95340  1.0000 -0.3315107853
C   C97       1.0  0.09420  0.81890  0.88970  1.0000 0.0507289692
C   C98       1.0  0.11560  0.01190  0.12910  1.0000 -0.1508178063
C   C99       1.0  0.85000  0.01560  0.67980  1.0000 -0.3315107853
C   C100      1.0  0.03700  0.05270  0.73390  1.0000 -0.346216935
C   C101      1.0  0.19800  0.36340  0.06740  1.0000 0.6300540982
C   C102      1.0  0.02240  0.39240  0.88610  1.0000 -0.1508178063
C   C103      1.0  0.73050  0.47610  0.94540  1.0000 0.6300540982
C   C104      1.0  0.08750  0.30820  0.13170  1.0000 -0.1590429505
C   C105      1.0  0.23390  0.54150  0.97230  1.0000 0.6300540982
C   C106      1.0  0.20950  0.32380  0.10750  1.0000 0.0199390902
C   C107      1.0  0.21850  0.50630  0.09180  1.0000 0.6300540982
C   C108      1.0  0.21210  0.40110  0.94400  1.0000 0.6300540982
C   C109      1.0  0.75970  0.41020  0.13350  1.0000 0.0199390902
C   C110      1.0  0.35720  0.60300  0.91360  1.0000 -0.1508178063
C   C111      1.0  0.70390  0.54930  0.04660  1.0000 0.6399814456
C   C112      1.0  0.69630  0.51050  0.90470  1.0000 0.036229857
C   C113      1.0  0.66500  0.33260  0.93220  1.0000 -0.6031046093
C   C114      1.0  0.86090  0.44580  0.15140  1.0000 -0.1508178063
C   C115      1.0  0.48230  0.56060  0.17610  1.0000 0.0579162072
C   C116      1.0  0.23230  0.58720  0.93590  1.0000 0.0262497837
C   C117      1.0  0.69930  0.60180  0.07630  1.0000 0.0199390902
C   C118      1.0  0.97850  0.38180  0.84310  1.0000 0.0707101254
C   C119      1.0  0.67180  0.32640  0.98210  1.0000 0.5530144392
C   C120      1.0  0.82240  0.61380  0.10170  1.0000 -0.1590429505
C   C121      1.0  0.16460  0.38280  0.89820  1.0000 0.0199390902
C   C122      1.0  0.19650  0.56820  0.15930  1.0000 -0.1411443775
C   C123      1.0  0.35160  0.27050  0.15870  1.0000 0.0707101254
C   C124      1.0  0.34490  0.30510  0.12030  1.0000 -0.1590429505
C   C125      1.0  0.90560  0.43780  0.19290  1.0000 0.0707101254
C   C126      1.0  0.10310  0.61540  0.92570  1.0000 -0.1508178063
C   C127      1.0  0.27700  0.43090  0.25910  1.0000 0.5129939435
C   C128      1.0  0.77280  0.35750  0.20020  1.0000 0.036229857
C   C129      1.0  0.71190  0.36340  0.15940  1.0000 -0.1590429505
C   C130      1.0  0.34720  0.64340  0.88080  1.0000 0.0707101254
C   C131      1.0  0.28070  0.53620  0.13220  1.0000 0.0199390902
C   C132      1.0  0.10510  0.27410  0.16800  1.0000 0.077661216
C   C133      1.0  0.73970  0.56740  0.90000  1.0000 -0.1724380112
C   C134      1.0  0.26650  0.59810  0.19380  1.0000 0.077661216
C   C135      1.0  0.42580  0.53080  0.14120  1.0000 -0.1411443775
C   C136      1.0  0.58280  0.63740  0.08280  1.0000 -0.1508178063
C   C137      1.0  0.69750  0.59740  0.86220  1.0000 0.0707101254
C   C138      1.0  0.90450  0.27610  0.97630  1.0000 -0.3315107853
C   C139      1.0  0.70300  0.41770  0.08780  1.0000 0.6205302297
C   C140      1.0  0.25610  0.36000  0.86790  1.0000 -0.1508178063
C   C141      1.0  0.10230  0.65410  0.89140  1.0000 0.0507289692
C   C142      1.0  0.30800  0.39700  0.21650  1.0000 -0.5753546537
C   C143      1.0  0.58400  0.51920  0.83480  1.0000 0.0579162072
C   C144      1.0  0.20450  0.34770  0.82570  1.0000 0.0507289692
C   C145      1.0  0.82140  0.65980  0.13020  1.0000 0.0579162072
C   C146      1.0  0.76900  0.28280  0.04660  1.0000 -0.3315107853
C   C147      1.0  0.59420  0.68110  0.11030  1.0000 0.0507289692
C   C148      1.0  0.61560  0.48810  0.87090  1.0000 -0.1508178063
C   C149      1.0  0.35000  0.48440  0.32020  1.0000 -0.3315107853
C   C150      1.0  0.53700  0.44730  0.26610  1.0000 -0.346216935
C   C151      1.0  0.30200  0.63660  0.56740  1.0000 0.6300540982
C   C152      1.0  0.47760  0.60760  0.38610  1.0000 -0.1508178063
C   C153      1.0  0.76950  0.52390  0.44540  1.0000 0.6300540982
C   C154      1.0  0.41250  0.69180  0.63170  1.0000 -0.1590429505
C   C155      1.0  0.26610  0.45850  0.47230  1.0000 0.6300540982
C   C156      1.0  0.29050  0.67620  0.60750  1.0000 0.0199390902
C   C157      1.0  0.28150  0.49370  0.59180  1.0000 0.6300540982
C   C158      1.0  0.28790  0.59890  0.44400  1.0000 0.6300540982
C   C159      1.0  0.74030  0.58980  0.63350  1.0000 0.0199390902
C   C160      1.0  0.14280  0.39700  0.41360  1.0000 -0.1508178063
C   C161      1.0  0.79610  0.45070  0.54660  1.0000 0.6399814456
C   C162      1.0  0.80370  0.48950  0.40470  1.0000 0.036229857
C   C163      1.0  0.83500  0.66740  0.43220  1.0000 -0.6031046093
C   C164      1.0  0.63910  0.55420  0.65140  1.0000 -0.1508178063
C   C165      1.0  0.01770  0.43940  0.67610  1.0000 0.0579162072
C   C166      1.0  0.26770  0.41280  0.43590  1.0000 0.0262497837
C   C167      1.0  0.80070  0.39820  0.57630  1.0000 0.0199390902
C   C168      1.0  0.52150  0.61820  0.34310  1.0000 0.0707101254
C   C169      1.0  0.82820  0.67360  0.48210  1.0000 0.5530144392
C   C170      1.0  0.67760  0.38620  0.60170  1.0000 -0.1590429505
C   C171      1.0  0.33540  0.61720  0.39820  1.0000 0.0199390902
C   C172      1.0  0.30350  0.43180  0.65930  1.0000 -0.1411443775
C   C173      1.0  0.14840  0.72950  0.65870  1.0000 0.0707101254
C   C174      1.0  0.15510  0.69490  0.62030  1.0000 -0.1590429505
C   C175      1.0  0.59440  0.56220  0.69290  1.0000 0.0707101254
C   C176      1.0  0.39690  0.38460  0.42570  1.0000 -0.1508178063
C   C177      1.0  0.22300  0.56910  0.75910  1.0000 0.5129939435
C   C178      1.0  0.72720  0.64250  0.70020  1.0000 0.036229857
C   C179      1.0  0.78810  0.63660  0.65940  1.0000 -0.1590429505
C   C180      1.0  0.15280  0.35660  0.38080  1.0000 0.0707101254
C   C181      1.0  0.21930  0.46380  0.63220  1.0000 0.0199390902
C   C182      1.0  0.39490  0.72590  0.66800  1.0000 0.077661216
C   C183      1.0  0.76030  0.43260  0.40000  1.0000 -0.1724380112
C   C184      1.0  0.23350  0.40190  0.69380  1.0000 0.077661216
C   C185      1.0  0.07420  0.46920  0.64120  1.0000 -0.1411443775
C   C186      1.0  0.91720  0.36260  0.58280  1.0000 -0.1508178063
C   C187      1.0  0.80250  0.40260  0.36220  1.0000 0.0707101254
C   C188      1.0  0.59550  0.72390  0.47630  1.0000 -0.3315107853
C   C189      1.0  0.79700  0.58230  0.58780  1.0000 0.6205302297
C   C190      1.0  0.24390  0.64000  0.36790  1.0000 -0.1508178063
C   C191      1.0  0.39770  0.34590  0.39140  1.0000 0.0507289692
C   C192      1.0  0.19200  0.60300  0.71650  1.0000 -0.5753546537
C   C193      1.0  0.91600  0.48080  0.33480  1.0000 0.0579162072
C   C194      1.0  0.29550  0.65230  0.32570  1.0000 0.0507289692
C   C195      1.0  0.67860  0.34020  0.63020  1.0000 0.0579162072
C   C196      1.0  0.73100  0.71720  0.54660  1.0000 -0.3315107853
C   C197      1.0  0.90580  0.31890  0.61030  1.0000 0.0507289692
C   C198      1.0  0.88440  0.51190  0.37090  1.0000 -0.1508178063
C   C199      1.0  0.15000  0.51560  0.82020  1.0000 -0.3315107853
C   C200      1.0  0.96300  0.55270  0.76610  1.0000 -0.346216935
I   I1        1.0  0.97947  0.77075  0.21404  1.0000 -0.3864790009
I   I2        1.0  0.48664  0.75569  0.22395  1.0000 -0.3864790009
I   I3        1.0  0.79045  0.60868  0.25132  1.0000 -0.4478286089
I   I4        1.0  0.52053  0.22925  0.71404  1.0000 -0.3864790009
I   I5        1.0  0.01336  0.24431  0.72395  1.0000 -0.3864790009
I   I6        1.0  0.70955  0.39132  0.75132  1.0000 -0.4478286089
I   I7        1.0  0.02053  0.27075  0.28596  1.0000 -0.3864790009
I   I8        1.0  0.51336  0.25569  0.27605  1.0000 -0.3864790009
I   I9        1.0  0.20955  0.10868  0.24868  1.0000 -0.4478286089
I   I10       1.0  0.47947  0.72925  0.78596  1.0000 -0.3864790009
I   I11       1.0  0.98664  0.74431  0.77605  1.0000 -0.3864790009
I   I12       1.0  0.29045  0.89132  0.74868  1.0000 -0.4478286089
N   N1        1.0  0.37730  0.07470  0.66980  1.0000 -0.1821123495
N   N2        1.0  0.76620  0.75570  0.31820  1.0000 -0.1821123495
N   N3        1.0  0.77760  0.16810  0.63230  1.0000 -0.1724380112
N   N4        1.0  0.13110  0.89370  0.28190  1.0000 -0.187317177
N   N5        1.0  0.29540  0.19370  0.36490  1.0000 -0.1821123495
N   N6        1.0  0.59420  0.09490  0.29740  1.0000 -0.1724380112
N   N7        1.0  0.22240  0.79430  0.49990  1.0000 -0.0047696099
N   N8        1.0  0.93350  0.85930  0.68670  1.0000 -0.1821123495
N   N9        1.0  0.61380  0.95250  0.21930  1.0000 -0.0196327524
N   N10       1.0  0.12270  0.92530  0.16980  1.0000 -0.1821123495
N   N11       1.0  0.73380  0.24430  0.81820  1.0000 -0.1821123495
N   N12       1.0  0.72240  0.83190  0.13230  1.0000 -0.1724380112
N   N13       1.0  0.36890  0.10630  0.78190  1.0000 -0.187317177
N   N14       1.0  0.20460  0.80630  0.86490  1.0000 -0.1821123495
N   N15       1.0  0.90580  0.90510  0.79740  1.0000 -0.1724380112
N   N16       1.0  0.27760  0.20570  0.99990  1.0000 -0.0047696099
N   N17       1.0  0.56650  0.14070  0.18670  1.0000 -0.1821123495
N   N18       1.0  0.88620  0.04750  0.71930  1.0000 -0.0196327524
N   N19       1.0  0.62270  0.57470  0.83020  1.0000 -0.1821123495
N   N20       1.0  0.23380  0.25570  0.18180  1.0000 -0.1821123495
N   N21       1.0  0.22240  0.66810  0.86770  1.0000 -0.1724380112
N   N22       1.0  0.86890  0.39370  0.21810  1.0000 -0.187317177
N   N23       1.0  0.70460  0.69370  0.13510  1.0000 -0.1821123495
N   N24       1.0  0.40580  0.59490  0.20260  1.0000 -0.1724380112
N   N25       1.0  0.77760  0.29430  0.00010  1.0000 -0.0047696099
N   N26       1.0  0.06650  0.35930  0.81330  1.0000 -0.1821123495
N   N27       1.0  0.38620  0.45250  0.28070  1.0000 -0.0196327524
N   N28       1.0  0.87730  0.42530  0.33020  1.0000 -0.1821123495
N   N29       1.0  0.26620  0.74430  0.68180  1.0000 -0.1821123495
N   N30       1.0  0.27760  0.33190  0.36770  1.0000 -0.1724380112
N   N31       1.0  0.63110  0.60630  0.71810  1.0000 -0.187317177
N   N32       1.0  0.79540  0.30630  0.63510  1.0000 -0.1821123495
N   N33       1.0  0.09420  0.40510  0.70260  1.0000 -0.1724380112
N   N34       1.0  0.72240  0.70570  0.50010  1.0000 -0.0047696099
N   N35       1.0  0.43350  0.64070  0.31330  1.0000 -0.1821123495
N   N36       1.0  0.11380  0.54750  0.78070  1.0000 -0.0196327524
O   O1        1.0  0.87630  0.03530  0.50800  1.0000 -0.60627089
O   O2        1.0  0.20550  0.92560  0.44200  1.0000 -0.6847877086
O   O3        1.0  0.17630  0.03690  0.46820  1.0000 -0.641075495
O   O4        1.0  0.69090  0.86880  0.45560  1.0000 -0.6497643174
O   O5        1.0  0.42970  0.91540  0.41810  1.0000 -0.6303942086
O   O6        1.0  0.41580  0.02520  0.46160  1.0000 -0.6595896662
O   O7        1.0  0.92030  0.01000  0.41370  1.0000 -0.6903869764
O   O8        1.0  0.88450  0.91330  0.52890  1.0000 -0.6903869764
O   O9        1.0  0.42530  0.84790  0.49500  1.0000 -0.60627089
O   O10       1.0  0.64490  0.01580  0.52260  1.0000 -0.6726510481
O   O11       1.0  0.37280  0.95360  0.53660  1.0000 -0.6248165549
O   O12       1.0  0.14170  0.97430  0.54280  1.0000 -0.6303942086
O   O13       1.0  0.92480  0.88620  0.43860  1.0000 -0.6726510481
O   O14       1.0  0.65220  0.89910  0.54800  1.0000 -0.6595896662
O   O15       1.0  0.69900  0.98260  0.43360  1.0000 -0.641075495
O   O16       1.0  0.85030  0.93760  0.22920  1.0000 -0.5353456916
O   O17       1.0  0.62370  0.96470  0.00800  1.0000 -0.60627089
O   O18       1.0  0.29450  0.07440  0.94200  1.0000 -0.6847877086
O   O19       1.0  0.32370  0.96310  0.96820  1.0000 -0.641075495
O   O20       1.0  0.80910  0.13120  0.95560  1.0000 -0.6497643174
O   O21       1.0  0.07030  0.08460  0.91810  1.0000 -0.6303942086
O   O22       1.0  0.08420  0.97480  0.96160  1.0000 -0.6595896662
O   O23       1.0  0.57970  0.99000  0.91370  1.0000 -0.6903869764
O   O24       1.0  0.61550  0.08670  0.02890  1.0000 -0.6903869764
O   O25       1.0  0.07470  0.15210  0.99500  1.0000 -0.60627089
O   O26       1.0  0.85510  0.98420  0.02260  1.0000 -0.6726510481
O   O27       1.0  0.12720  0.04640  0.03660  1.0000 -0.6248165549
O   O28       1.0  0.35830  0.02570  0.04280  1.0000 -0.6303942086
O   O29       1.0  0.57520  0.11380  0.93860  1.0000 -0.6726510481
O   O30       1.0  0.84780  0.10090  0.04800  1.0000 -0.6595896662
O   O31       1.0  0.80100  0.01740  0.93360  1.0000 -0.641075495
O   O32       1.0  0.64970  0.06240  0.72920  1.0000 -0.5349381746
O   O33       1.0  0.12370  0.53530  0.99200  1.0000 -0.60627089
O   O34       1.0  0.79450  0.42560  0.05800  1.0000 -0.6847877086
O   O35       1.0  0.82370  0.53690  0.03180  1.0000 -0.641075495
O   O36       1.0  0.30910  0.36880  0.04440  1.0000 -0.6497643174
O   O37       1.0  0.57030  0.41540  0.08190  1.0000 -0.6303942086
O   O38       1.0  0.58420  0.52520  0.03840  1.0000 -0.6595896662
O   O39       1.0  0.07970  0.51000  0.08630  1.0000 -0.6903869764
O   O40       1.0  0.11550  0.41330  0.97110  1.0000 -0.6903869764
O   O41       1.0  0.57470  0.34790  0.00500  1.0000 -0.60627089
O   O42       1.0  0.35510  0.51580  0.97740  1.0000 -0.6726510481
O   O43       1.0  0.62720  0.45360  0.96340  1.0000 -0.6248165549
O   O44       1.0  0.85830  0.47430  0.95720  1.0000 -0.6303942086
O   O45       1.0  0.07520  0.38620  0.06140  1.0000 -0.6726510481
O   O46       1.0  0.34780  0.39910  0.95200  1.0000 -0.6595896662
O   O47       1.0  0.30100  0.48260  0.06640  1.0000 -0.641075495
O   O48       1.0  0.14970  0.43760  0.27080  1.0000 -0.5353456916
O   O49       1.0  0.37630  0.46470  0.49200  1.0000 -0.60627089
O   O50       1.0  0.70550  0.57440  0.55800  1.0000 -0.6847877086
O   O51       1.0  0.67630  0.46310  0.53180  1.0000 -0.641075495
O   O52       1.0  0.19090  0.63120  0.54440  1.0000 -0.6497643174
O   O53       1.0  0.92970  0.58460  0.58190  1.0000 -0.6303942086
O   O54       1.0  0.91580  0.47480  0.53840  1.0000 -0.6595896662
O   O55       1.0  0.42030  0.49000  0.58630  1.0000 -0.6903869764
O   O56       1.0  0.38450  0.58670  0.47110  1.0000 -0.6903869764
O   O57       1.0  0.92530  0.65210  0.50500  1.0000 -0.60627089
O   O58       1.0  0.14490  0.48420  0.47740  1.0000 -0.6726510481
O   O59       1.0  0.87280  0.54640  0.46340  1.0000 -0.6248165549
O   O60       1.0  0.64170  0.52570  0.45720  1.0000 -0.6303942086
O   O61       1.0  0.42480  0.61380  0.56140  1.0000 -0.6726510481
O   O62       1.0  0.15220  0.60090  0.45200  1.0000 -0.6595896662
O   O63       1.0  0.19900  0.51740  0.56640  1.0000 -0.641075495
O   O64       1.0  0.35030  0.56240  0.77080  1.0000 -0.5353456916
