# DDEC6 charges by PACMAN v1.1 (https://github.com/mtap-research/PACMAN-charge/)
data_2017[Er][hcb]2[FSR]1
_chemical_formula_sum              "Er2 H6 C18 Br6 O18"
_cell_length_a       9.6289
_cell_length_b       9.9317
_cell_length_c       11.3852
_cell_angle_alpha    92.397
_cell_angle_beta     99.572
_cell_angle_gamma    112.937

_symmetry_space_group_name_H-M    "P 1"
_symmetry_Int_Tables_number       1

loop_
  _symmetry_equiv_pos_as_xyz
  'x, y, z'

loop_
  _atom_site_type_symbol
  _atom_site_label
  _atom_site_symmetry_multiplicity
  _atom_site_fract_x
  _atom_site_fract_y
  _atom_site_fract_z
  _atom_site_occupancy
  _atom_site_charge
Er  Er1       1.0  0.79975  0.28363  0.63823  1.0000 1.962142679
Er  Er2       1.0  0.20025  0.71637  0.36177  1.0000 1.962142679
H   H1        1.0  0.64400  0.04300  0.77600  1.0000 0.3797833203
H   H2        1.0  0.61700  0.16100  0.80400  1.0000 0.3797833203
H   H3        1.0  0.10200  0.52100  0.61800  1.0000 0.3946469156
H   H4        1.0  0.35600  0.95700  0.22400  1.0000 0.3797833203
H   H5        1.0  0.38300  0.83900  0.19600  1.0000 0.3797833203
H   H6        1.0  0.89800  0.47900  0.38200  1.0000 0.3952197461
C   C1        1.0  0.93900  0.89650  0.58360  1.0000 -0.1616758378
C   C2        1.0  0.91430  0.02580  0.58170  1.0000 0.2800297617
C   C3        1.0  0.97940  0.13600  0.49510  1.0000 0.2608168005
C   C4        1.0  0.10880  0.43180  0.01170  1.0000 -0.153911014
C   C5        1.0  0.00280  0.40080  0.90440  1.0000 0.2800297617
C   C6        1.0  0.89080  0.47860  0.89160  1.0000 0.2725726096
C   C7        1.0  0.58850  0.55170  0.40680  1.0000 -0.1672845752
C   C8        1.0  0.62730  0.46330  0.48540  1.0000 0.2608168005
C   C9        1.0  0.52700  0.40020  0.57730  1.0000 0.2800297617
C   C10       1.0  0.06100  0.10350  0.41640  1.0000 -0.1616758378
C   C11       1.0  0.08570  0.97420  0.41830  1.0000 0.2800297617
C   C12       1.0  0.02060  0.86400  0.50490  1.0000 0.2608168005
C   C13       1.0  0.89120  0.56820  0.98830  1.0000 -0.153911014
C   C14       1.0  0.99720  0.59920  0.09560  1.0000 0.2800297617
C   C15       1.0  0.10920  0.52140  0.10840  1.0000 0.2725726096
C   C16       1.0  0.41150  0.44830  0.59320  1.0000 -0.1672845752
C   C17       1.0  0.37270  0.53670  0.51460  1.0000 0.2608168005
C   C18       1.0  0.47300  0.59980  0.42270  1.0000 0.2800297617
Br  Br1       1.0  0.86273  0.76372  0.69418  1.0000 0.0536208349
Br  Br2       1.0  0.25798  0.35004  0.02629  1.0000 -0.0255196774
Br  Br3       1.0  0.69980  0.61895  0.28493  1.0000 0.0438733036
Br  Br4       1.0  0.13727  0.23628  0.30582  1.0000 0.0536208349
Br  Br5       1.0  0.74202  0.64996  0.97371  1.0000 -0.0255196774
Br  Br6       1.0  0.30020  0.38105  0.71507  1.0000 0.0438733036
O   O1        1.0  0.65840  0.13110  0.76510  1.0000 -0.6837479742
O   O2        1.0  0.62030  0.11450  0.47330  1.0000 -0.185914603
O   O3        1.0  0.02510  0.51850  0.64540  1.0000 -0.7957312734
O   O4        1.0  0.83930  0.06080  0.64890  1.0000 -0.4614333109
O   O5        1.0  0.95220  0.25100  0.50280  1.0000 -0.4168439032
O   O6        1.0  0.98890  0.31610  0.81420  1.0000 -0.4614333109
O   O7        1.0  0.80300  0.45090  0.79150  1.0000 -0.4761139424
O   O8        1.0  0.74080  0.42640  0.48890  1.0000 -0.4314990611
O   O9        1.0  0.55560  0.30580  0.63330  1.0000 -0.4314990611
O   O10       1.0  0.34160  0.86890  0.23490  1.0000 -0.6837479742
O   O11       1.0  0.37970  0.88550  0.52670  1.0000 -0.1789743574
O   O12       1.0  0.97490  0.48150  0.35460  1.0000 -0.7957312734
O   O13       1.0  0.16070  0.93920  0.35110  1.0000 -0.4614333109
O   O14       1.0  0.04780  0.74900  0.49720  1.0000 -0.4168439032
O   O15       1.0  0.01110  0.68390  0.18580  1.0000 -0.4614333109
O   O16       1.0  0.19700  0.54910  0.20850  1.0000 -0.4747036667
O   O17       1.0  0.25920  0.57360  0.51110  1.0000 -0.4314990611
O   O18       1.0  0.44440  0.69420  0.36670  1.0000 -0.4314990611
