# DDEC6 charges by PACMAN v1.1 (https://github.com/mtap-research/PACMAN-charge/)
data_2017[Er][kgd]2[FSR]1
_chemical_formula_sum              "Er2 H20 C22 N2 O14"
_cell_length_a       8.5441
_cell_length_b       9.0011
_cell_length_c       10.326
_cell_angle_alpha    104.87
_cell_angle_beta     101.39
_cell_angle_gamma    95.22

_symmetry_space_group_name_H-M    "P 1"
_symmetry_Int_Tables_number       1

loop_
  _symmetry_equiv_pos_as_xyz
  'x, y, z'

loop_
  _atom_site_type_symbol
  _atom_site_label
  _atom_site_symmetry_multiplicity
  _atom_site_fract_x
  _atom_site_fract_y
  _atom_site_fract_z
  _atom_site_occupancy
  _atom_site_charge
Er  Er1       1.0  0.42333  0.28832  0.02835  1.0000 2.0485419828
Er  Er2       1.0  0.57667  0.71168  0.97165  1.0000 2.0485419828
H   H1        1.0  0.75480  0.21640  0.39020  1.0000 0.12226063
H   H2        1.0  0.67650  0.31160  0.58920  1.0000 0.1122221101
H   H3        1.0  0.75940  0.74360  0.55150  1.0000 0.12226063
H   H4        1.0  0.84850  0.64480  0.35740  1.0000 0.12226063
H   H5        1.0  0.92550  0.15860  0.27180  1.0000 0.138707624
H   H6        1.0  0.96610  0.18200  0.13660  1.0000 0.1575738091
H   H7        1.0  0.97810  0.40410  0.09260  1.0000 0.1575738091
H   H8        1.0  0.00780  0.54610  0.22370  1.0000 0.138707624
H   H9        1.0  0.54850  0.20150  0.83790  1.0000 0.3444788653
H   H10       1.0  0.48390  0.27090  0.73900  1.0000 0.3835896451
H   H11       1.0  0.24520  0.78360  0.60980  1.0000 0.12226063
H   H12       1.0  0.32350  0.68840  0.41080  1.0000 0.1122221101
H   H13       1.0  0.24060  0.25640  0.44850  1.0000 0.12226063
H   H14       1.0  0.15150  0.35520  0.64260  1.0000 0.12226063
H   H15       1.0  0.07450  0.84140  0.72820  1.0000 0.138707624
H   H16       1.0  0.03390  0.81800  0.86340  1.0000 0.1575738091
H   H17       1.0  0.02190  0.59590  0.90740  1.0000 0.1575738091
H   H18       1.0  0.99220  0.45390  0.77630  1.0000 0.138707624
H   H19       1.0  0.45150  0.79850  0.16210  1.0000 0.3444788653
H   H20       1.0  0.51610  0.72910  0.26100  1.0000 0.3835896451
C   C1        1.0  0.81920  0.42030  0.35570  1.0000 0.1869591523
C   C2        1.0  0.76000  0.32300  0.42470  1.0000 -0.1946622085
C   C3        1.0  0.70800  0.38000  0.54180  1.0000 -0.0708148654
C   C4        1.0  0.70150  0.53900  0.59240  1.0000 -0.0918651473
C   C5        1.0  0.75900  0.63700  0.52020  1.0000 -0.0708148654
C   C6        1.0  0.81400  0.57770  0.40450  1.0000 -0.196339662
C   C7        1.0  0.65300  0.60200  0.71760  1.0000 0.5492518146
C   C8        1.0  0.88600  0.19360  0.19160  1.0000 -0.2780153554
C   C9        1.0  0.73400  0.08800  0.10920  1.0000 0.6973493297
C   C10       1.0  0.92690  0.46300  0.16100  1.0000 -0.2638370197
C   C11       1.0  0.79400  0.53340  0.08890  1.0000 0.6461313863
C   C12       1.0  0.18080  0.57970  0.64430  1.0000 0.1869591523
C   C13       1.0  0.24000  0.67700  0.57530  1.0000 -0.1946622085
C   C14       1.0  0.29200  0.62000  0.45820  1.0000 -0.0708148654
C   C15       1.0  0.29850  0.46100  0.40760  1.0000 -0.0918651473
C   C16       1.0  0.24100  0.36300  0.47980  1.0000 -0.0708148654
C   C17       1.0  0.18600  0.42230  0.59550  1.0000 -0.196339662
C   C18       1.0  0.34700  0.39800  0.28240  1.0000 0.5492518146
C   C19       1.0  0.11400  0.80640  0.80840  1.0000 -0.2780153554
C   C20       1.0  0.26600  0.91200  0.89080  1.0000 0.6973493297
C   C21       1.0  0.07310  0.53700  0.83900  1.0000 -0.2638370197
C   C22       1.0  0.20600  0.46660  0.91110  1.0000 0.6461313863
N   N1        1.0  0.87400  0.35940  0.23880  1.0000 -0.0575652409
N   N2        1.0  0.12600  0.64060  0.76120  1.0000 -0.0575652409
O   O1        1.0  0.60860  0.14700  0.08100  1.0000 -0.7009998959
O   O2        1.0  0.74210  0.94730  0.07550  1.0000 -0.6368866365
O   O3        1.0  0.64750  0.48020  0.06660  1.0000 -0.7154975336
O   O4        1.0  0.83880  0.65220  0.05540  1.0000 -0.6186965507
O   O5        1.0  0.59760  0.51160  0.78110  1.0000 -0.6524365347
O   O6        1.0  0.65930  0.74710  0.77300  1.0000 -0.632792155
O   O7        1.0  0.46640  0.23590  0.80480  1.0000 -0.7466453712
O   O8        1.0  0.39140  0.85300  0.91900  1.0000 -0.7009998959
O   O9        1.0  0.25790  0.05270  0.92450  1.0000 -0.6368866365
O   O10       1.0  0.35250  0.51980  0.93340  1.0000 -0.7154975336
O   O11       1.0  0.16120  0.34780  0.94460  1.0000 -0.6186965507
O   O12       1.0  0.40240  0.48840  0.21890  1.0000 -0.6524365347
O   O13       1.0  0.34070  0.25290  0.22700  1.0000 -0.632792155
O   O14       1.0  0.53360  0.76410  0.19520  1.0000 -0.7466453712
