# DDEC6 charges by PACMAN v1.1 (https://github.com/mtap-research/PACMAN-charge/)
data_2017[Ni][nan]3[FSR]3
_chemical_formula_sum              "Ni4 H32 C44 O22"
_cell_length_a       10.282
_cell_length_b       11.261
_cell_length_c       12.171
_cell_angle_alpha    92.575
_cell_angle_beta     109.114
_cell_angle_gamma    109.752

_symmetry_space_group_name_H-M    "P 1"
_symmetry_Int_Tables_number       1

loop_
  _symmetry_equiv_pos_as_xyz
  'x, y, z'

loop_
  _atom_site_type_symbol
  _atom_site_label
  _atom_site_symmetry_multiplicity
  _atom_site_fract_x
  _atom_site_fract_y
  _atom_site_fract_z
  _atom_site_occupancy
  _atom_site_charge
Ni  Ni1       1.0  0.50000  0.50000  0.50000  1.0000 0.9473277566
Ni  Ni2       1.0  0.79181  0.52637  0.70290  1.0000 0.9203153091
Ni  Ni3       1.0  0.20819  0.47363  0.29710  1.0000 0.9203153091
Ni  Ni4       1.0  0.00000  0.50000  0.00000  1.0000 0.9203153091
H   H1        1.0  0.72360  0.41930  0.52650  1.0000 0.3601090846
H   H2        1.0  0.27640  0.58070  0.47350  1.0000 0.3601090846
H   H3        1.0  0.73790  0.52780  0.47670  1.0000 0.3601090846
H   H4        1.0  0.26210  0.47220  0.52330  1.0000 0.3601090846
H   H5        1.0  0.92360  0.64880  0.93650  1.0000 0.3489838478
H   H6        1.0  0.07640  0.35120  0.06350  1.0000 0.3489838478
H   H7        1.0  0.78040  0.56190  0.88550  1.0000 0.3341773984
H   H8        1.0  0.21960  0.43810  0.11450  1.0000 0.3341773984
H   H9        1.0  0.95650  0.94780  0.67940  1.0000 0.1300081449
H   H10       1.0  0.04350  0.05220  0.32060  1.0000 0.1300081449
H   H11       1.0  0.61220  0.10270  0.72160  1.0000 0.1300081449
H   H12       1.0  0.38780  0.89730  0.27840  1.0000 0.1300081449
H   H13       1.0  0.24450  0.58900  0.93450  1.0000 0.339680427
H   H14       1.0  0.75550  0.41100  0.06550  1.0000 0.339680427
H   H15       1.0  0.10980  0.59360  0.86940  1.0000 0.339680427
H   H16       1.0  0.89020  0.40640  0.13060  1.0000 0.339680427
H   H17       1.0  0.53550  0.74950  0.79360  1.0000 0.1203777914
H   H18       1.0  0.46450  0.25050  0.20640  1.0000 0.1203777914
H   H19       1.0  0.38730  0.93860  0.54190  1.0000 0.1120636178
H   H20       1.0  0.61270  0.06140  0.45810  1.0000 0.1120636178
H   H21       1.0  0.14260  0.30550  0.89270  1.0000 0.1203777914
H   H22       1.0  0.85740  0.69450  0.10730  1.0000 0.1203777914
H   H23       1.0  0.08600  0.11730  0.58250  1.0000 0.1120636178
H   H24       1.0  0.91400  0.88270  0.41750  1.0000 0.1120636178
H   H25       1.0  0.29320  0.62490  0.76940  1.0000 0.1120636178
H   H26       1.0  0.70680  0.37510  0.23060  1.0000 0.1120636178
H   H27       1.0  0.14650  0.81010  0.51170  1.0000 0.1203777914
H   H28       1.0  0.85350  0.18990  0.48830  1.0000 0.1203777914
H   H29       1.0  0.37350  0.43720  0.90840  1.0000 0.1203777914
H   H30       1.0  0.62650  0.56280  0.09160  1.0000 0.1203777914
H   H31       1.0  0.31630  0.25430  0.59620  1.0000 0.1300081449
H   H32       1.0  0.68370  0.74570  0.40380  1.0000 0.1300081449
C   C1        1.0  0.71170  0.75240  0.64250  1.0000 0.5755919454
C   C2        1.0  0.28830  0.24760  0.35750  1.0000 0.5755919454
C   C3        1.0  0.74620  0.89340  0.67240  1.0000 -0.0489759452
C   C4        1.0  0.25380  0.10660  0.32760  1.0000 -0.0489759452
C   C5        1.0  0.88790  0.97970  0.68960  1.0000 -0.1617824721
C   C6        1.0  0.11210  0.02030  0.31040  1.0000 -0.1617824721
C   C7        1.0  0.64000  0.93960  0.68530  1.0000 0.0498295402
C   C8        1.0  0.36000  0.06040  0.31470  1.0000 0.0498295402
C   C9        1.0  0.93180  0.11200  0.72130  1.0000 0.0437800152
C   C10       1.0  0.06820  0.88800  0.27870  1.0000 0.0437800152
C   C11       1.0  0.68250  0.07090  0.71520  1.0000 -0.1617824721
C   C12       1.0  0.31750  0.92910  0.28480  1.0000 -0.1617824721
C   C13       1.0  0.48730  0.85600  0.67030  1.0000 0.0839894203
C   C14       1.0  0.51270  0.14400  0.32970  1.0000 0.0839894203
C   C15       1.0  0.08400  0.19800  0.73300  1.0000 0.0839894203
C   C16       1.0  0.91600  0.80200  0.26700  1.0000 0.0839894203
C   C17       1.0  0.82390  0.15660  0.73590  1.0000 -0.0489759452
C   C18       1.0  0.17610  0.84340  0.26410  1.0000 -0.0489759452
C   C19       1.0  0.45730  0.76270  0.73760  1.0000 -0.1221696722
C   C20       1.0  0.54270  0.23730  0.26240  1.0000 -0.1221696722
C   C21       1.0  0.36880  0.87460  0.58680  1.0000 -0.1296349156
C   C22       1.0  0.63120  0.12540  0.41320  1.0000 -0.1296349156
C   C23       1.0  0.17670  0.29520  0.83230  1.0000 -0.1296349156
C   C24       1.0  0.82330  0.70480  0.16770  1.0000 -0.1296349156
C   C25       1.0  0.14210  0.18330  0.64720  1.0000 -0.1296349156
C   C26       1.0  0.85790  0.81670  0.35280  1.0000 -0.1296349156
C   C27       1.0  0.85020  0.29460  0.77520  1.0000 0.5952118275
C   C28       1.0  0.14980  0.70540  0.22480  1.0000 0.5952118275
C   C29       1.0  0.31180  0.68760  0.72340  1.0000 -0.1296349156
C   C30       1.0  0.68820  0.31240  0.27660  1.0000 -0.1296349156
C   C31       1.0  0.22440  0.79910  0.57020  1.0000 -0.0989169019
C   C32       1.0  0.77560  0.20090  0.42980  1.0000 -0.0989169019
C   C33       1.0  0.31460  0.37420  0.84180  1.0000 -0.1066247176
C   C34       1.0  0.68540  0.62580  0.15820  1.0000 -0.1066247176
C   C35       1.0  0.28130  0.26480  0.65600  1.0000 -0.0841783198
C   C36       1.0  0.71870  0.73520  0.34400  1.0000 -0.0841783198
C   C37       1.0  0.19420  0.70760  0.63920  1.0000 -0.0299826699
C   C38       1.0  0.80580  0.29240  0.36080  1.0000 -0.0299826699
C   C39       1.0  0.36890  0.36140  0.75180  1.0000 -0.0363394084
C   C40       1.0  0.63110  0.63860  0.24820  1.0000 -0.0363394084
C   C41       1.0  0.03710  0.63030  0.62200  1.0000 0.5898117063
C   C42       1.0  0.96290  0.36970  0.37800  1.0000 0.5898117063
C   C43       1.0  0.52220  0.44880  0.76880  1.0000 0.5898117063
C   C44       1.0  0.47780  0.55120  0.23120  1.0000 0.5898117063
O   O1        1.0  0.58960  0.68760  0.56220  1.0000 -0.5400588276
O   O2        1.0  0.41040  0.31240  0.43780  1.0000 -0.5400588276
O   O3        1.0  0.69700  0.48320  0.51930  1.0000 -0.6783904198
O   O4        1.0  0.30300  0.51680  0.48070  1.0000 -0.6783904198
O   O5        1.0  0.56550  0.46230  0.68210  1.0000 -0.5893879893
O   O6        1.0  0.43450  0.53770  0.31790  1.0000 -0.5893879893
O   O7        1.0  0.80840  0.71120  0.69810  1.0000 -0.5213671091
O   O8        1.0  0.19160  0.28880  0.30190  1.0000 -0.5213671091
O   O9        1.0  0.86780  0.58130  0.88550  1.0000 -0.6783904198
O   O10       1.0  0.13220  0.41870  0.11450  1.0000 -0.6783904198
O   O11       1.0  0.78480  0.34680  0.70030  1.0000 -0.5143041077
O   O12       1.0  0.21520  0.65320  0.29970  1.0000 -0.5143041077
O   O13       1.0  0.00680  0.58550  0.70670  1.0000 -0.5518920186
O   O14       1.0  0.99320  0.41450  0.29330  1.0000 -0.5518920186
O   O15       1.0  0.16410  0.59090  0.93820  1.0000 -0.6394089225
O   O16       1.0  0.83590  0.40910  0.06180  1.0000 -0.6394089225
O   O17       1.0  0.92650  0.33990  0.88160  1.0000 -0.5518920186
O   O18       1.0  0.07350  0.66010  0.11840  1.0000 -0.5518920186
O   O19       1.0  0.94080  0.61750  0.51990  1.0000 -0.5518920186
O   O20       1.0  0.05920  0.38250  0.48010  1.0000 -0.5518920186
O   O21       1.0  0.60620  0.50190  0.87200  1.0000 -0.5213671091
O   O22       1.0  0.39380  0.49810  0.12800  1.0000 -0.5213671091
