# DDEC6 charges by PACMAN v1.1 (https://github.com/mtap-research/PACMAN-charge/)
data_2017[Cu][ths]3[FSR]1
_chemical_formula_sum              "Cu8 C24 O48"
_cell_length_a       8.636
_cell_length_b       34.0813
_cell_length_c       8.7156
_cell_angle_alpha    90
_cell_angle_beta     107.632
_cell_angle_gamma    90

_symmetry_space_group_name_H-M    "P 1"
_symmetry_Int_Tables_number       1

loop_
  _symmetry_equiv_pos_as_xyz
  'x, y, z'

loop_
  _atom_site_type_symbol
  _atom_site_label
  _atom_site_symmetry_multiplicity
  _atom_site_fract_x
  _atom_site_fract_y
  _atom_site_fract_z
  _atom_site_occupancy
  _atom_site_charge
Cu  Cu1       1.0  0.51714  0.79649  0.25048  1.0000 0.9181938552
Cu  Cu2       1.0  0.98286  0.29649  0.74952  1.0000 0.9181938552
Cu  Cu3       1.0  0.48286  0.20351  0.74952  1.0000 0.9181938552
Cu  Cu4       1.0  0.01714  0.70351  0.25048  1.0000 0.9181938552
Cu  Cu5       1.0  0.50138  0.95440  0.26139  1.0000 0.9086830996
Cu  Cu6       1.0  0.99862  0.45440  0.73861  1.0000 0.9086830996
Cu  Cu7       1.0  0.49862  0.04560  0.73861  1.0000 0.9086830996
Cu  Cu8       1.0  0.00138  0.54560  0.26139  1.0000 0.9086830996
C   C1        1.0  0.43650  0.87670  0.18130  1.0000 0.5679653369
C   C2        1.0  0.06350  0.37670  0.81870  1.0000 0.5679653369
C   C3        1.0  0.56350  0.12330  0.81870  1.0000 0.5679653369
C   C4        1.0  0.93650  0.62330  0.18130  1.0000 0.5679653369
C   C5        1.0  0.59280  0.87401  0.33010  1.0000 0.5577575498
C   C6        1.0  0.90720  0.37401  0.66990  1.0000 0.5577575498
C   C7        1.0  0.40720  0.12599  0.66990  1.0000 0.5577575498
C   C8        1.0  0.09280  0.62599  0.33010  1.0000 0.5577575498
C   C9        1.0  0.27820  0.74134  0.18780  1.0000 0.5478304706
C   C10       1.0  0.22180  0.24134  0.81220  1.0000 0.5478304706
C   C11       1.0  0.72180  0.25866  0.81220  1.0000 0.5478304706
C   C12       1.0  0.77820  0.75866  0.18780  1.0000 0.5478304706
C   C13       1.0  0.26530  0.76366  0.33800  1.0000 0.5279193662
C   C14       1.0  0.23470  0.26366  0.66200  1.0000 0.5279193662
C   C15       1.0  0.73470  0.23634  0.66200  1.0000 0.5279193662
C   C16       1.0  0.76530  0.73634  0.33800  1.0000 0.5279193662
C   C17       1.0  0.57870  0.98873  0.99940  1.0000 0.5478304706
C   C18       1.0  0.92130  0.48873  0.00060  1.0000 0.5478304706
C   C19       1.0  0.42130  0.01127  0.00060  1.0000 0.5478304706
C   C20       1.0  0.07870  0.51127  0.99940  1.0000 0.5478304706
C   C21       1.0  0.43010  0.98791  0.51490  1.0000 0.5364195886
C   C22       1.0  0.06990  0.48791  0.48510  1.0000 0.5364195886
C   C23       1.0  0.56990  0.01209  0.48510  1.0000 0.5364195886
C   C24       1.0  0.93010  0.51209  0.51490  1.0000 0.5279193662
O   O1        1.0  0.38780  0.84628  0.10472  1.0000 -0.4157584227
O   O2        1.0  0.11220  0.34628  0.89528  1.0000 -0.4094784327
O   O3        1.0  0.61220  0.15372  0.89528  1.0000 -0.4094784327
O   O4        1.0  0.88780  0.65372  0.10472  1.0000 -0.4157584227
O   O5        1.0  0.37158  0.90998  0.14997  1.0000 -0.438493266
O   O6        1.0  0.12842  0.40998  0.85003  1.0000 -0.4345999651
O   O7        1.0  0.62842  0.09002  0.85003  1.0000 -0.4345999651
O   O8        1.0  0.87158  0.59002  0.14997  1.0000 -0.438493266
O   O9        1.0  0.63929  0.83992  0.37835  1.0000 -0.4506800968
O   O10       1.0  0.86071  0.33992  0.62165  1.0000 -0.4506800968
O   O11       1.0  0.36071  0.16008  0.62165  1.0000 -0.4506800968
O   O12       1.0  0.13929  0.66008  0.37835  1.0000 -0.4506800968
O   O13       1.0  0.65975  0.90489  0.38777  1.0000 -0.4094784327
O   O14       1.0  0.84025  0.40489  0.61223  1.0000 -0.4094784327
O   O15       1.0  0.34025  0.09511  0.61223  1.0000 -0.4094784327
O   O16       1.0  0.15975  0.59511  0.38777  1.0000 -0.4094784327
O   O17       1.0  0.35558  0.79388  0.37610  1.0000 -0.4506800968
O   O18       1.0  0.14442  0.29388  0.62390  1.0000 -0.4506800968
O   O19       1.0  0.64442  0.20612  0.62390  1.0000 -0.4506800968
O   O20       1.0  0.85558  0.70612  0.37610  1.0000 -0.4506800968
O   O21       1.0  0.17265  0.75168  0.41043  1.0000 -0.3791562572
O   O22       1.0  0.32735  0.25168  0.58957  1.0000 -0.3791562572
O   O23       1.0  0.82735  0.24832  0.58957  1.0000 -0.3791562572
O   O24       1.0  0.67265  0.74832  0.41043  1.0000 -0.3791562572
O   O25       1.0  0.38186  0.75386  0.12460  1.0000 -0.4506800968
O   O26       1.0  0.11814  0.25386  0.87540  1.0000 -0.4506800968
O   O27       1.0  0.61814  0.24614  0.87540  1.0000 -0.4506800968
O   O28       1.0  0.88186  0.74614  0.12460  1.0000 -0.4506800968
O   O29       1.0  0.18761  0.71250  0.13979  1.0000 -0.4157584227
O   O30       1.0  0.31239  0.21250  0.86021  1.0000 -0.4157584227
O   O31       1.0  0.81239  0.28750  0.86021  1.0000 -0.4157584227
O   O32       1.0  0.68761  0.78750  0.13979  1.0000 -0.4157584227
O   O33       1.0  0.61596  0.95934  0.09347  1.0000 -0.4506800968
O   O34       1.0  0.88404  0.45934  0.90653  1.0000 -0.4506800968
O   O35       1.0  0.38404  0.04066  0.90653  1.0000 -0.4506800968
O   O36       1.0  0.11596  0.54066  0.09347  1.0000 -0.4506800968
O   O37       1.0  0.65592  0.00022  0.91096  1.0000 -0.3791562572
O   O38       1.0  0.84408  0.50022  0.08904  1.0000 -0.3791562572
O   O39       1.0  0.34408  0.99978  0.08904  1.0000 -0.3791562572
O   O40       1.0  0.15592  0.49978  0.91096  1.0000 -0.3791562572
O   O41       1.0  0.38602  0.95804  0.42963  1.0000 -0.438493266
O   O42       1.0  0.11398  0.45804  0.57037  1.0000 -0.4345999651
O   O43       1.0  0.61398  0.04196  0.57037  1.0000 -0.438493266
O   O44       1.0  0.88602  0.54196  0.42963  1.0000 -0.4345999651
O   O45       1.0  0.37220  0.00024  0.62075  1.0000 -0.438493266
O   O46       1.0  0.12780  0.50024  0.37925  1.0000 -0.438493266
O   O47       1.0  0.62780  0.99976  0.37925  1.0000 -0.438493266
O   O48       1.0  0.87220  0.49976  0.62075  1.0000 -0.438493266
