# DDEC6 charges by PACMAN v1.1 (https://github.com/mtap-research/PACMAN-charge/)
data_2017[Eu][nan]3[FSR]5
_chemical_formula_sum              "Eu4 H96 C112 N8 O36"
_cell_length_a       15.854
_cell_length_b       10.515
_cell_length_c       20.947
_cell_angle_alpha    90
_cell_angle_beta     107.587
_cell_angle_gamma    90

_symmetry_space_group_name_H-M    "P 1"
_symmetry_Int_Tables_number       1

loop_
  _symmetry_equiv_pos_as_xyz
  'x, y, z'

loop_
  _atom_site_type_symbol
  _atom_site_label
  _atom_site_symmetry_multiplicity
  _atom_site_fract_x
  _atom_site_fract_y
  _atom_site_fract_z
  _atom_site_occupancy
  _atom_site_charge
Eu  Eu1       1.0  0.60089  0.92134  0.45423  1.0000 2.1298438304
Eu  Eu2       1.0  0.39911  0.92134  0.04577  1.0000 2.1298438304
Eu  Eu3       1.0  0.39911  0.07866  0.54577  1.0000 2.1298438304
Eu  Eu4       1.0  0.60089  0.07866  0.95423  1.0000 2.1298438304
H   H1        1.0  0.23480  0.21350  0.14990  1.0000 0.1287192285
H   H2        1.0  0.76520  0.21350  0.35010  1.0000 0.1287192285
H   H3        1.0  0.76520  0.78650  0.85010  1.0000 0.1287192285
H   H4        1.0  0.23480  0.78650  0.64990  1.0000 0.1287192285
H   H5        1.0  0.43160  0.02530  0.28170  1.0000 0.1497889244
H   H6        1.0  0.56840  0.02530  0.21830  1.0000 0.1497889244
H   H7        1.0  0.56840  0.97470  0.71830  1.0000 0.1497889244
H   H8        1.0  0.43160  0.97470  0.78170  1.0000 0.1497889244
H   H9        1.0  0.29350  0.29130  0.34590  1.0000 0.1387639299
H   H10       1.0  0.70650  0.29130  0.15410  1.0000 0.1387639299
H   H11       1.0  0.70650  0.70870  0.65410  1.0000 0.1387639299
H   H12       1.0  0.29350  0.70870  0.84590  1.0000 0.1387639299
H   H13       1.0  0.39970  0.68550  0.33460  1.0000 0.1387639299
H   H14       1.0  0.60030  0.68550  0.16540  1.0000 0.1387639299
H   H15       1.0  0.60030  0.31450  0.66540  1.0000 0.1387639299
H   H16       1.0  0.39970  0.31450  0.83460  1.0000 0.1387639299
H   H17       1.0  0.31210  0.52360  0.27580  1.0000 0.1224492493
H   H18       1.0  0.68790  0.52360  0.22420  1.0000 0.1224492493
H   H19       1.0  0.68790  0.47640  0.72420  1.0000 0.1224492493
H   H20       1.0  0.31210  0.47640  0.77580  1.0000 0.1224492493
H   H21       1.0  0.13840  0.58350  0.37570  1.0000 0.1224492493
H   H22       1.0  0.86160  0.58350  0.12430  1.0000 0.1224492493
H   H23       1.0  0.86160  0.41650  0.62430  1.0000 0.1224492493
H   H24       1.0  0.13840  0.41650  0.87570  1.0000 0.1224492493
H   H25       1.0  0.22490  0.74580  0.43420  1.0000 0.1387639299
H   H26       1.0  0.77510  0.74580  0.06580  1.0000 0.1387639299
H   H27       1.0  0.77510  0.25420  0.56580  1.0000 0.1387639299
H   H28       1.0  0.22490  0.25420  0.93420  1.0000 0.1387639299
H   H29       1.0  0.09950  0.45260  0.26770  1.0000 0.1224492493
H   H30       1.0  0.90050  0.45260  0.23230  1.0000 0.1224492493
H   H31       1.0  0.90050  0.54740  0.73230  1.0000 0.1224492493
H   H32       1.0  0.09950  0.54740  0.76770  1.0000 0.1224492493
H   H33       1.0  0.16110  0.35810  0.31870  1.0000 0.1287192285
H   H34       1.0  0.83890  0.35810  0.18130  1.0000 0.1287192285
H   H35       1.0  0.83890  0.64190  0.68130  1.0000 0.1287192285
H   H36       1.0  0.16110  0.64190  0.81870  1.0000 0.1287192285
H   H37       1.0  0.11930  0.48770  0.16290  1.0000 0.1287192285
H   H38       1.0  0.88070  0.48770  0.33710  1.0000 0.1287192285
H   H39       1.0  0.88070  0.51230  0.83710  1.0000 0.1287192285
H   H40       1.0  0.11930  0.51230  0.66290  1.0000 0.1287192285
H   H41       1.0  0.17000  0.38500  0.13470  1.0000 0.1287192285
H   H42       1.0  0.83000  0.38500  0.36530  1.0000 0.1287192285
H   H43       1.0  0.83000  0.61500  0.86530  1.0000 0.1287192285
H   H44       1.0  0.17000  0.61500  0.63470  1.0000 0.1287192285
H   H45       1.0  0.07810  0.18860  0.21070  1.0000 0.1287192285
H   H46       1.0  0.92190  0.18860  0.28930  1.0000 0.1287192285
H   H47       1.0  0.92190  0.81140  0.78930  1.0000 0.1287192285
H   H48       1.0  0.07810  0.81140  0.71070  1.0000 0.1287192285
H   H49       1.0  0.94880  0.07250  0.17110  1.0000 0.1224492493
H   H50       1.0  0.05120  0.07250  0.32890  1.0000 0.1224492493
H   H51       1.0  0.05120  0.92750  0.82890  1.0000 0.1224492493
H   H52       1.0  0.94880  0.92750  0.67110  1.0000 0.1224492493
H   H53       1.0  0.86410  0.31510  0.02000  1.0000 0.1287192285
H   H54       1.0  0.13590  0.31510  0.48000  1.0000 0.1287192285
H   H55       1.0  0.13590  0.68490  0.98000  1.0000 0.1287192285
H   H56       1.0  0.86410  0.68490  0.52000  1.0000 0.1287192285
H   H57       1.0  0.99250  0.43250  0.05980  1.0000 0.1287192285
H   H58       1.0  0.00750  0.43250  0.44020  1.0000 0.1287192285
H   H59       1.0  0.00750  0.56750  0.94020  1.0000 0.1287192285
H   H60       1.0  0.99250  0.56750  0.55980  1.0000 0.1287192285
H   H61       1.0  0.59980  0.45500  0.30800  1.0000 0.1287192285
H   H62       1.0  0.40020  0.45500  0.19200  1.0000 0.1287192285
H   H63       1.0  0.40020  0.54500  0.69200  1.0000 0.1287192285
H   H64       1.0  0.59980  0.54500  0.80800  1.0000 0.1287192285
H   H65       1.0  0.56050  0.58960  0.31430  1.0000 0.1497889244
H   H66       1.0  0.43950  0.58960  0.18570  1.0000 0.1497889244
H   H67       1.0  0.43950  0.41040  0.68570  1.0000 0.1497889244
H   H68       1.0  0.56050  0.41040  0.81430  1.0000 0.1497889244
H   H69       1.0  0.66330  0.56940  0.33690  1.0000 0.1387639299
H   H70       1.0  0.33670  0.56940  0.16310  1.0000 0.1387639299
H   H71       1.0  0.33670  0.43060  0.66310  1.0000 0.1387639299
H   H72       1.0  0.66330  0.43060  0.83690  1.0000 0.1387639299
H   H73       1.0  0.59320  0.32190  0.37230  1.0000 0.1387639299
H   H74       1.0  0.40680  0.32190  0.12770  1.0000 0.1387639299
H   H75       1.0  0.40680  0.67810  0.62770  1.0000 0.1387639299
H   H76       1.0  0.59320  0.67810  0.87230  1.0000 0.1387639299
H   H77       1.0  0.66310  0.34030  0.44290  1.0000 0.1387639299
H   H78       1.0  0.33690  0.34030  0.05710  1.0000 0.1387639299
H   H79       1.0  0.33690  0.65970  0.55710  1.0000 0.1387639299
H   H80       1.0  0.66310  0.65970  0.94290  1.0000 0.1387639299
H   H81       1.0  0.56170  0.34500  0.43550  1.0000 0.1497889244
H   H82       1.0  0.43830  0.34500  0.06450  1.0000 0.1497889244
H   H83       1.0  0.43830  0.65500  0.56450  1.0000 0.1497889244
H   H84       1.0  0.56170  0.65500  0.93550  1.0000 0.1497889244
H   H85       1.0  0.57550  0.45800  0.49870  1.0000 0.1081595079
H   H86       1.0  0.42450  0.45800  0.00130  1.0000 0.1081595079
H   H87       1.0  0.42450  0.54200  0.50130  1.0000 0.1081595079
H   H88       1.0  0.57550  0.54200  0.99870  1.0000 0.1081595079
H   H89       1.0  0.62100  0.57670  0.54030  1.0000 0.1497889244
H   H90       1.0  0.37900  0.57670  0.95970  1.0000 0.1497889244
H   H91       1.0  0.37900  0.42330  0.45970  1.0000 0.1497889244
H   H92       1.0  0.62100  0.42330  0.04030  1.0000 0.1497889244
H   H93       1.0  0.52360  0.58660  0.49280  1.0000 0.1497889244
H   H94       1.0  0.47640  0.58660  0.00720  1.0000 0.1497889244
H   H95       1.0  0.47640  0.41340  0.50720  1.0000 0.1497889244
H   H96       1.0  0.52360  0.41340  0.99280  1.0000 0.1497889244
C   C1        1.0  0.25240  0.27220  0.24520  1.0000 0.1751722873
C   C2        1.0  0.74760  0.27220  0.25480  1.0000 0.1751722873
C   C3        1.0  0.74760  0.72780  0.75480  1.0000 0.1751722873
C   C4        1.0  0.25240  0.72780  0.74520  1.0000 0.1751722873
C   C5        1.0  0.26870  0.19950  0.19400  1.0000 -0.2046947486
C   C6        1.0  0.73130  0.19950  0.30600  1.0000 -0.2046947486
C   C7        1.0  0.73130  0.80050  0.80600  1.0000 -0.2046947486
C   C8        1.0  0.26870  0.80050  0.69400  1.0000 -0.2046947486
C   C9        1.0  0.33390  0.10780  0.20760  1.0000 0.0161691963
C   C10       1.0  0.66610  0.10780  0.29240  1.0000 0.0161691963
C   C11       1.0  0.66610  0.89220  0.79240  1.0000 0.0161691963
C   C12       1.0  0.33390  0.89220  0.70760  1.0000 0.0161691963
C   C13       1.0  0.38670  0.08570  0.27270  1.0000 -0.1088954701
C   C14       1.0  0.61330  0.08570  0.22730  1.0000 -0.1088954701
C   C15       1.0  0.61330  0.91430  0.72730  1.0000 -0.1088954701
C   C16       1.0  0.38670  0.91430  0.77270  1.0000 -0.1088954701
C   C17       1.0  0.37080  0.15650  0.32430  1.0000 0.0067334379
C   C18       1.0  0.62920  0.15650  0.17570  1.0000 0.0067334379
C   C19       1.0  0.62920  0.84350  0.67570  1.0000 0.0067334379
C   C20       1.0  0.37080  0.84350  0.82430  1.0000 0.0067334379
C   C21       1.0  0.30410  0.24680  0.31070  1.0000 -0.1883571453
C   C22       1.0  0.69590  0.24680  0.18930  1.0000 -0.1883571453
C   C23       1.0  0.69590  0.75320  0.68930  1.0000 -0.1883571453
C   C24       1.0  0.30410  0.75320  0.81070  1.0000 -0.1883571453
C   C25       1.0  0.42470  0.13250  0.39600  1.0000 0.6455040567
C   C26       1.0  0.57530  0.13250  0.10400  1.0000 0.6455040567
C   C27       1.0  0.57530  0.86750  0.60400  1.0000 0.6455040567
C   C28       1.0  0.42470  0.86750  0.89600  1.0000 0.6449496739
C   C29       1.0  0.38130  0.83180  0.43130  1.0000 0.6455040567
C   C30       1.0  0.61870  0.83180  0.06870  1.0000 0.6455040567
C   C31       1.0  0.61870  0.16820  0.56870  1.0000 0.6455040567
C   C32       1.0  0.38130  0.16820  0.93130  1.0000 0.6455040567
C   C33       1.0  0.32190  0.73200  0.39120  1.0000 -0.0258921727
C   C34       1.0  0.67810  0.73200  0.10880  1.0000 -0.0258921727
C   C35       1.0  0.67810  0.26800  0.60880  1.0000 -0.0258921727
C   C36       1.0  0.32190  0.26800  0.89120  1.0000 -0.0258921727
C   C37       1.0  0.34720  0.66500  0.34330  1.0000 -0.0676544986
C   C38       1.0  0.65280  0.66500  0.15670  1.0000 -0.0676544986
C   C39       1.0  0.65280  0.33500  0.65670  1.0000 -0.0676544986
C   C40       1.0  0.34720  0.33500  0.84330  1.0000 -0.0676544986
C   C41       1.0  0.29470  0.56730  0.30820  1.0000 -0.1443519003
C   C42       1.0  0.70530  0.56730  0.19180  1.0000 -0.1443519003
C   C43       1.0  0.70530  0.43270  0.69180  1.0000 -0.1443519003
C   C44       1.0  0.29470  0.43270  0.80820  1.0000 -0.1443519003
C   C45       1.0  0.21720  0.53390  0.32050  1.0000 0.1081595079
C   C46       1.0  0.78280  0.53390  0.17950  1.0000 0.1081595079
C   C47       1.0  0.78280  0.46610  0.67950  1.0000 0.1081595079
C   C48       1.0  0.21720  0.46610  0.82050  1.0000 0.1081595079
C   C49       1.0  0.19140  0.60300  0.36760  1.0000 -0.1510091133
C   C50       1.0  0.80860  0.60300  0.13240  1.0000 -0.1510091133
C   C51       1.0  0.80860  0.39700  0.63240  1.0000 -0.1510091133
C   C52       1.0  0.19140  0.39700  0.86760  1.0000 -0.1510091133
C   C53       1.0  0.24320  0.70060  0.40260  1.0000 -0.0602394871
C   C54       1.0  0.75680  0.70060  0.09740  1.0000 -0.0602394871
C   C55       1.0  0.75680  0.29940  0.59740  1.0000 -0.0602394871
C   C56       1.0  0.24320  0.29940  0.90260  1.0000 -0.0602394871
C   C57       1.0  0.16010  0.42340  0.28580  1.0000 -0.1657528182
C   C58       1.0  0.83990  0.42340  0.21420  1.0000 -0.1657528182
C   C59       1.0  0.83990  0.57660  0.71420  1.0000 -0.1657528182
C   C60       1.0  0.16010  0.57660  0.78580  1.0000 -0.1657528182
C   C61       1.0  0.13470  0.39820  0.16470  1.0000 -0.1657528182
C   C62       1.0  0.86530  0.39820  0.33530  1.0000 -0.1648512341
C   C63       1.0  0.86530  0.60180  0.83530  1.0000 -0.1657528182
C   C64       1.0  0.13470  0.60180  0.66470  1.0000 -0.1657528182
C   C65       1.0  0.05040  0.32080  0.13980  1.0000 0.1081595079
C   C66       1.0  0.94960  0.32080  0.36020  1.0000 0.1081595079
C   C67       1.0  0.94960  0.67920  0.86020  1.0000 0.1081595079
C   C68       1.0  0.05040  0.67920  0.63980  1.0000 0.1081595079
C   C69       1.0  0.03540  0.21480  0.17180  1.0000 -0.1510091133
C   C70       1.0  0.96460  0.21480  0.32820  1.0000 -0.1510091133
C   C71       1.0  0.96460  0.78520  0.82820  1.0000 -0.1510091133
C   C72       1.0  0.03540  0.78520  0.67180  1.0000 -0.1510091133
C   C73       1.0  0.95780  0.14410  0.14790  1.0000 -0.089183397
C   C74       1.0  0.04220  0.14410  0.35210  1.0000 -0.089183397
C   C75       1.0  0.04220  0.85590  0.85210  1.0000 -0.089183397
C   C76       1.0  0.95780  0.85590  0.64790  1.0000 -0.089183397
C   C77       1.0  0.89510  0.18070  0.09030  1.0000 -0.0258921727
C   C78       1.0  0.10490  0.18070  0.40970  1.0000 -0.0258921727
C   C79       1.0  0.10490  0.81930  0.90970  1.0000 -0.0258921727
C   C80       1.0  0.89510  0.81930  0.59030  1.0000 -0.0258921727
C   C81       1.0  0.90770  0.28860  0.05830  1.0000 -0.089183397
C   C82       1.0  0.09230  0.28860  0.44170  1.0000 -0.089183397
C   C83       1.0  0.09230  0.71140  0.94170  1.0000 -0.089183397
C   C84       1.0  0.90770  0.71140  0.55830  1.0000 -0.089183397
C   C85       1.0  0.98470  0.35920  0.08230  1.0000 -0.1794856645
C   C86       1.0  0.01530  0.35920  0.41770  1.0000 -0.1794856645
C   C87       1.0  0.01530  0.64080  0.91770  1.0000 -0.1794856645
C   C88       1.0  0.98470  0.64080  0.58230  1.0000 -0.1794856645
C   C89       1.0  0.81250  0.10420  0.06260  1.0000 0.6023069613
C   C90       1.0  0.18750  0.10420  0.43740  1.0000 0.6023069613
C   C91       1.0  0.18750  0.89580  0.93740  1.0000 0.6023069613
C   C92       1.0  0.81250  0.89580  0.56260  1.0000 0.6023069613
C   C93       1.0  0.34700  0.03240  0.15030  1.0000 0.5627027147
C   C94       1.0  0.65300  0.03240  0.34970  1.0000 0.5627027147
C   C95       1.0  0.65300  0.96760  0.84970  1.0000 0.5627027147
C   C96       1.0  0.34700  0.96760  0.65030  1.0000 0.5627027147
C   C97       1.0  0.61820  0.59360  0.43600  1.0000 0.4761766784
C   C98       1.0  0.38180  0.59360  0.06400  1.0000 0.4761766784
C   C99       1.0  0.38180  0.40640  0.56400  1.0000 0.4761766784
C   C100      1.0  0.61820  0.40640  0.93600  1.0000 0.4761766784
C   C101      1.0  0.60750  0.53110  0.33450  1.0000 -0.3547585316
C   C102      1.0  0.39250  0.53110  0.16550  1.0000 -0.3547585316
C   C103      1.0  0.39250  0.46890  0.66550  1.0000 -0.3547585316
C   C104      1.0  0.60750  0.46890  0.83450  1.0000 -0.3550222225
C   C105      1.0  0.60590  0.36570  0.41440  1.0000 -0.308726222
C   C106      1.0  0.39410  0.36570  0.08560  1.0000 -0.308726222
C   C107      1.0  0.39410  0.63430  0.58560  1.0000 -0.308726222
C   C108      1.0  0.60590  0.63430  0.91440  1.0000 -0.308726222
C   C109      1.0  0.58060  0.54900  0.49860  1.0000 -0.6210664518
C   C110      1.0  0.41940  0.54900  0.00140  1.0000 -0.6210664518
C   C111      1.0  0.41940  0.45100  0.50140  1.0000 -0.6210664518
C   C112      1.0  0.58060  0.45100  0.99860  1.0000 -0.6210664518
N   N1        1.0  0.18780  0.36740  0.23210  1.0000 -0.089183397
N   N2        1.0  0.81220  0.36740  0.26790  1.0000 -0.089183397
N   N3        1.0  0.81220  0.63260  0.76790  1.0000 -0.089183397
N   N4        1.0  0.18780  0.63260  0.73210  1.0000 -0.089183397
N   N5        1.0  0.60560  0.49870  0.40330  1.0000 0.0067334379
N   N6        1.0  0.39440  0.49870  0.09670  1.0000 0.0067334379
N   N7        1.0  0.39440  0.50130  0.59670  1.0000 0.0067334379
N   N8        1.0  0.60560  0.50130  0.90330  1.0000 0.0067334379
O   O1        1.0  0.49800  0.07970  0.40744  1.0000 -0.6692013748
O   O2        1.0  0.50200  0.07970  0.09256  1.0000 -0.6692013748
O   O3        1.0  0.50200  0.92030  0.59256  1.0000 -0.6692013748
O   O4        1.0  0.49800  0.92030  0.90744  1.0000 -0.6692013748
O   O5        1.0  0.39210  0.16880  0.44057  1.0000 -0.636068464
O   O6        1.0  0.60790  0.16880  0.05943  1.0000 -0.636068464
O   O7        1.0  0.60790  0.83120  0.55943  1.0000 -0.636068464
O   O8        1.0  0.39210  0.83120  0.94057  1.0000 -0.636068464
O   O9        1.0  0.46050  0.82990  0.43310  1.0000 -0.664068938
O   O10       1.0  0.53950  0.82990  0.06690  1.0000 -0.664068938
O   O11       1.0  0.53950  0.17010  0.56690  1.0000 -0.664068938
O   O12       1.0  0.46050  0.17010  0.93310  1.0000 -0.664068938
O   O13       1.0  0.34860  0.91190  0.46181  1.0000 -0.6210664518
O   O14       1.0  0.65140  0.91190  0.03819  1.0000 -0.6210664518
O   O15       1.0  0.65140  0.08810  0.53819  1.0000 -0.6210664518
O   O16       1.0  0.34860  0.08810  0.96181  1.0000 -0.6210664518
O   O17       1.0  0.80450  0.00810  0.09950  1.0000 -0.5446982391
O   O18       1.0  0.19550  0.00810  0.40050  1.0000 -0.5446982391
O   O19       1.0  0.19550  0.99190  0.90050  1.0000 -0.5453056104
O   O20       1.0  0.80450  0.99190  0.59950  1.0000 -0.5453056104
O   O21       1.0  0.75810  0.13320  0.01030  1.0000 -0.5814652003
O   O22       1.0  0.24190  0.13320  0.48970  1.0000 -0.5814652003
O   O23       1.0  0.24190  0.86680  0.98970  1.0000 -0.5814652003
O   O24       1.0  0.75810  0.86680  0.51030  1.0000 -0.5814652003
O   O25       1.0  0.31140  0.07050  0.09164  1.0000 -0.5985142596
O   O26       1.0  0.68860  0.07050  0.40836  1.0000 -0.5985142596
O   O27       1.0  0.68860  0.92950  0.90836  1.0000 -0.5985142596
O   O28       1.0  0.31140  0.92950  0.59164  1.0000 -0.5985142596
O   O29       1.0  0.39440  0.93400  0.16149  1.0000 -0.6210664518
O   O30       1.0  0.60560  0.93400  0.33851  1.0000 -0.6210664518
O   O31       1.0  0.60560  0.06600  0.83851  1.0000 -0.6210664518
O   O32       1.0  0.39440  0.06600  0.66149  1.0000 -0.6210664518
O   O33       1.0  0.61920  0.70520  0.42660  1.0000 -0.564883501
O   O34       1.0  0.38080  0.70520  0.07340  1.0000 -0.564883501
O   O35       1.0  0.38080  0.29480  0.57340  1.0000 -0.564883501
O   O36       1.0  0.61920  0.29480  0.92660  1.0000 -0.564883501
