# DDEC6 charges by PACMAN v1.1 (https://github.com/mtap-research/PACMAN-charge/)
data_2017[Zr][llj]3[FSR]1
_chemical_formula_sum              "Zr6 H44 C84 N4 O34"
_cell_length_a       10.63
_cell_length_b       14.49
_cell_length_c       18.01
_cell_angle_alpha    111.74
_cell_angle_beta     105.82
_cell_angle_gamma    92.75

_symmetry_space_group_name_H-M    "P 1"
_symmetry_Int_Tables_number       1

loop_
  _symmetry_equiv_pos_as_xyz
  'x, y, z'

loop_
  _atom_site_type_symbol
  _atom_site_label
  _atom_site_symmetry_multiplicity
  _atom_site_fract_x
  _atom_site_fract_y
  _atom_site_fract_z
  _atom_site_occupancy
  _atom_site_charge
Zr  Zr1       1.0  0.99778  0.82602  0.00119  1.0000 2.3468614746
Zr  Zr2       1.0  0.18871  0.06640  0.13336  1.0000 2.3720747162
Zr  Zr3       1.0  0.85402  0.03984  0.09132  1.0000 2.3813357283
Zr  Zr4       1.0  0.00222  0.17398  0.99881  1.0000 2.3445724178
Zr  Zr5       1.0  0.81129  0.93360  0.86664  1.0000 2.3720747162
Zr  Zr6       1.0  0.14598  0.96016  0.90868  1.0000 2.3813357283
H   H1        1.0  0.58370  0.98340  0.07670  1.0000 0.422732227
H   H2        1.0  0.63150  0.08850  0.12510  1.0000 0.4062948902
H   H3        1.0  0.19110  0.67830  0.16870  1.0000 0.1387303476
H   H4        1.0  0.34000  0.89970  0.44980  1.0000 0.130003302
H   H5        1.0  0.27960  0.96120  0.34540  1.0000 0.130003302
H   H6        1.0  0.39230  0.52410  0.44170  1.0000 0.130003302
H   H7        1.0  0.34610  0.36530  0.33340  1.0000 0.1214423228
H   H8        1.0  0.19350  0.48370  0.16560  1.0000 0.1387303476
H   H9        1.0  0.52290  0.85140  0.53380  1.0000 0.130003302
H   H10       1.0  0.58870  0.90990  0.67940  1.0000 0.130003302
H   H11       1.0  0.32700  0.68740  0.66200  1.0000 0.1214423228
H   H12       1.0  0.26120  0.62890  0.51640  1.0000 0.130003302
H   H13       1.0  0.86500  0.93080  0.29270  1.0000 0.130003302
H   H14       1.0  0.89250  0.86840  0.39650  1.0000 0.130003302
H   H15       1.0  0.84710  0.65270  0.12220  1.0000 0.1387303476
H   H16       1.0  0.89040  0.48940  0.39350  1.0000 0.130003302
H   H17       1.0  0.87270  0.33180  0.28880  1.0000 0.1214423228
H   H18       1.0  0.85110  0.45750  0.12170  1.0000 0.1387303476
H   H19       1.0  0.09540  0.78290  0.49330  1.0000 0.130003302
H   H20       1.0  0.12010  0.86380  0.63550  1.0000 0.130003302
H   H21       1.0  0.74970  0.73610  0.59380  1.0000 0.130003302
H   H22       1.0  0.72500  0.65520  0.45160  1.0000 0.1387303476
H   H23       1.0  0.41630  0.01660  0.92330  1.0000 0.422732227
H   H24       1.0  0.36850  0.91150  0.87490  1.0000 0.4062948902
H   H25       1.0  0.80890  0.32170  0.83130  1.0000 0.1387303476
H   H26       1.0  0.66000  0.10030  0.55020  1.0000 0.130003302
H   H27       1.0  0.72040  0.03880  0.65460  1.0000 0.130003302
H   H28       1.0  0.60770  0.47590  0.55830  1.0000 0.130003302
H   H29       1.0  0.65390  0.63470  0.66667  1.0000 0.1214423228
H   H30       1.0  0.80650  0.51630  0.83440  1.0000 0.1387303476
H   H31       1.0  0.47710  0.14860  0.46620  1.0000 0.130003302
H   H32       1.0  0.41130  0.09010  0.32060  1.0000 0.130003302
H   H33       1.0  0.67300  0.31260  0.33800  1.0000 0.1214423228
H   H34       1.0  0.73880  0.37110  0.48360  1.0000 0.130003302
H   H35       1.0  0.13500  0.06920  0.70730  1.0000 0.130003302
H   H36       1.0  0.10750  0.13160  0.60350  1.0000 0.130003302
H   H37       1.0  0.15290  0.34730  0.87780  1.0000 0.1387303476
H   H38       1.0  0.10960  0.51060  0.60650  1.0000 0.130003302
H   H39       1.0  0.12730  0.66820  0.71120  1.0000 0.1214423228
H   H40       1.0  0.14890  0.54250  0.87830  1.0000 0.1387303476
H   H41       1.0  0.90460  0.21710  0.50670  1.0000 0.130003302
H   H42       1.0  0.87990  0.13620  0.36450  1.0000 0.130003302
H   H43       1.0  0.25030  0.26390  0.40620  1.0000 0.130003302
H   H44       1.0  0.27500  0.34480  0.54840  1.0000 0.1387303476
C   C1        1.0  0.20380  0.86560  0.17650  1.0000 0.6205401648
C   C2        1.0  0.22940  0.82590  0.24670  1.0000 -0.0193640025
C   C3        1.0  0.22100  0.72270  0.22510  1.0000 -0.1272407393
C   C4        1.0  0.25710  0.68580  0.28760  1.0000 -0.0193640025
C   C5        1.0  0.30170  0.75210  0.37180  1.0000 0.1214423228
C   C6        1.0  0.31020  0.85530  0.39340  1.0000 -0.1982964403
C   C7        1.0  0.27400  0.89220  0.33090  1.0000 -0.1009067144
C   C8        1.0  0.26110  0.58690  0.28580  1.0000 -0.0193640025
C   C9        1.0  0.32060  0.59900  0.36850  1.0000 0.130003302
C   C10       1.0  0.35250  0.51600  0.38630  1.0000 -0.1982964403
C   C11       1.0  0.32480  0.42080  0.32150  1.0000 -0.0924632753
C   C12       1.0  0.26520  0.40870  0.23880  1.0000 -0.0193640025
C   C13       1.0  0.23340  0.49180  0.22090  1.0000 -0.1244483772
C   C14       1.0  0.22040  0.30590  0.16950  1.0000 0.6205401648
C   C15       1.0  0.38550  0.73440  0.51060  1.0000 0.1774330665
C   C16       1.0  0.48370  0.81850  0.55950  1.0000 -0.1982964403
C   C17       1.0  0.52310  0.85360  0.64670  1.0000 -0.0732881497
C   C18       1.0  0.46440  0.80450  0.68510  1.0000 -0.0193640025
C   C19       1.0  0.36630  0.72030  0.63630  1.0000 -0.0924632753
C   C20       1.0  0.32690  0.68520  0.54910  1.0000 -0.1982964403
C   C21       1.0  0.50310  0.84180  0.77980  1.0000 0.5872355629
C   C22       1.0  0.83980  0.83550  0.12800  1.0000 0.6205401648
C   C23       1.0  0.85340  0.79800  0.19720  1.0000 -0.0193640025
C   C24       1.0  0.86690  0.86260  0.27940  1.0000 -0.0924632753
C   C25       1.0  0.88340  0.82520  0.34160  1.0000 -0.1892701197
C   C26       1.0  0.88630  0.72310  0.32160  1.0000 0.1387303476
C   C27       1.0  0.87270  0.65850  0.23940  1.0000 -0.0193640025
C   C28       1.0  0.85620  0.69600  0.17720  1.0000 -0.1244483772
C   C29       1.0  0.86950  0.55830  0.23890  1.0000 -0.0193640025
C   C30       1.0  0.88130  0.56790  0.32030  1.0000 0.1214423228
C   C31       1.0  0.88250  0.48300  0.33900  1.0000 -0.1892701197
C   C32       1.0  0.87190  0.38860  0.27630  1.0000 -0.0924632753
C   C33       1.0  0.86010  0.37900  0.19490  1.0000 -0.0143707018
C   C34       1.0  0.85890  0.46390  0.17620  1.0000 -0.1272407393
C   C35       1.0  0.90770  0.71100  0.45830  1.0000 0.1774330665
C   C36       1.0  0.02610  0.77350  0.51340  1.0000 -0.1892701197
C   C37       1.0  0.04090  0.82200  0.59860  1.0000 -0.0847045999
C   C38       1.0  0.93740  0.80790  0.62870  1.0000 -0.0193640025
C   C39       1.0  0.81900  0.74550  0.57360  1.0000 -0.0924632753
C   C40       1.0  0.80420  0.69700  0.48840  1.0000 -0.1892701197
C   C41       1.0  0.95200  0.86310  0.72150  1.0000 0.6205401648
C   C42       1.0  0.84540  0.27580  0.12550  1.0000 0.6298776795
C   C43       1.0  0.79620  0.13440  0.82350  1.0000 0.6205401648
C   C44       1.0  0.77060  0.17410  0.75330  1.0000 -0.0193640025
C   C45       1.0  0.77900  0.27730  0.77490  1.0000 -0.1272407393
C   C46       1.0  0.74290  0.31420  0.71240  1.0000 -0.0193640025
C   C47       1.0  0.69830  0.24790  0.62820  1.0000 0.1214423228
C   C48       1.0  0.68980  0.14470  0.60660  1.0000 -0.1982964403
C   C49       1.0  0.72600  0.10780  0.66910  1.0000 -0.1009067144
C   C50       1.0  0.73890  0.41310  0.71420  1.0000 -0.0193640025
C   C51       1.0  0.67940  0.40100  0.63150  1.0000 0.130003302
C   C52       1.0  0.64750  0.48400  0.61370  1.0000 -0.1982964403
C   C53       1.0  0.67520  0.57920  0.67850  1.0000 -0.0924632753
C   C54       1.0  0.73480  0.59130  0.76120  1.0000 -0.0193640025
C   C55       1.0  0.76660  0.50820  0.77910  1.0000 -0.1244483772
C   C56       1.0  0.77960  0.69410  0.83050  1.0000 0.6205401648
C   C57       1.0  0.61450  0.26560  0.48940  1.0000 0.1774330665
C   C58       1.0  0.51630  0.18150  0.44050  1.0000 -0.1982964403
C   C59       1.0  0.47690  0.14640  0.35330  1.0000 -0.0732881497
C   C60       1.0  0.53560  0.19550  0.31490  1.0000 -0.0193640025
C   C61       1.0  0.63370  0.27970  0.36370  1.0000 -0.0924632753
C   C62       1.0  0.67310  0.31480  0.45090  1.0000 -0.1982964403
C   C63       1.0  0.49690  0.15820  0.22020  1.0000 0.5872355629
C   C64       1.0  0.16020  0.16450  0.87200  1.0000 0.6205401648
C   C65       1.0  0.14660  0.20200  0.80280  1.0000 -0.0193640025
C   C66       1.0  0.13310  0.13740  0.72060  1.0000 -0.0924632753
C   C67       1.0  0.11660  0.17480  0.65840  1.0000 -0.1892701197
C   C68       1.0  0.11370  0.27690  0.67840  1.0000 0.1387303476
C   C69       1.0  0.12730  0.34150  0.76060  1.0000 -0.0193640025
C   C70       1.0  0.14380  0.30400  0.82280  1.0000 -0.1244483772
C   C71       1.0  0.13050  0.44170  0.76110  1.0000 -0.0193640025
C   C72       1.0  0.11870  0.43210  0.67970  1.0000 0.1214423228
C   C73       1.0  0.11750  0.51700  0.66100  1.0000 -0.1892701197
C   C74       1.0  0.12810  0.61140  0.72370  1.0000 -0.0924632753
C   C75       1.0  0.13990  0.62100  0.80510  1.0000 -0.0143707018
C   C76       1.0  0.14110  0.53610  0.82380  1.0000 -0.1272407393
C   C77       1.0  0.09230  0.28900  0.54170  1.0000 0.1774330665
C   C78       1.0  0.97390  0.22650  0.48660  1.0000 -0.1892701197
C   C79       1.0  0.95910  0.17800  0.40140  1.0000 -0.0847045999
C   C80       1.0  0.06260  0.19210  0.37130  1.0000 -0.0193640025
C   C81       1.0  0.18100  0.25450  0.42640  1.0000 -0.0924632753
C   C82       1.0  0.19580  0.30300  0.51160  1.0000 -0.1892701197
C   C83       1.0  0.04800  0.13690  0.27850  1.0000 0.6205401648
C   C84       1.0  0.15460  0.72420  0.87450  1.0000 0.6298776795
N   N1        1.0  0.34100  0.69790  0.42130  1.0000 -0.0924632753
N   N2        1.0  0.89260  0.67010  0.37050  1.0000 -0.0924632753
N   N3        1.0  0.65900  0.30210  0.57870  1.0000 -0.0924632753
N   N4        1.0  0.10740  0.32990  0.62950  1.0000 -0.0924632753
O   O1        1.0  0.01680  0.96410  0.09620  1.0000 -1.1224212419
O   O2        1.0  0.20080  0.92970  0.02600  1.0000 -1.053208835
O   O3        1.0  0.79460  0.90210  0.97690  1.0000 -1.079273827
O   O4        1.0  0.64040  0.03510  0.08290  1.0000 -0.7580443095
O   O5        1.0  0.87940  0.27480  0.06290  1.0000 -0.579642038
O   O6        1.0  0.81100  0.20010  0.13720  1.0000 -0.5703505646
O   O7        1.0  0.87270  0.78160  0.06490  1.0000 -0.579642038
O   O8        1.0  0.80140  0.91880  0.13890  1.0000 -0.5887309781
O   O9        1.0  0.14060  0.80170  0.10330  1.0000 -0.579642038
O   O10       1.0  0.24380  0.95580  0.19640  1.0000 -0.5575129758
O   O11       1.0  0.15250  0.29990  0.09850  1.0000 -0.579642038
O   O12       1.0  0.26250  0.23780  0.18980  1.0000 -0.5575129758
O   O13       1.0  0.59960  0.91310  0.82130  1.0000 -0.5981192063
O   O14       1.0  0.43600  0.80310  0.81060  1.0000 -0.495633788
O   O15       1.0  0.06490  0.89450  0.77020  1.0000 -0.5575129758
O   O16       1.0  0.84760  0.87000  0.74240  1.0000 -0.5887309781
O   O17       1.0  0.98270  0.87320  0.90530  1.0000 -1.1224212419
O   O18       1.0  0.98320  0.03590  0.90380  1.0000 -1.1224212419
O   O19       1.0  0.79920  0.07030  0.97400  1.0000 -1.053208835
O   O20       1.0  0.20540  0.09790  0.02310  1.0000 -1.079273827
O   O21       1.0  0.35960  0.96490  0.91710  1.0000 -0.7580443095
O   O22       1.0  0.12060  0.72520  0.93710  1.0000 -0.579642038
O   O23       1.0  0.18900  0.79990  0.86280  1.0000 -0.5703505646
O   O24       1.0  0.12730  0.21840  0.93510  1.0000 -0.579642038
O   O25       1.0  0.19860  0.08120  0.86110  1.0000 -0.579642038
O   O26       1.0  0.85940  0.19830  0.89670  1.0000 -0.579642038
O   O27       1.0  0.75620  0.04420  0.80360  1.0000 -0.5575129758
O   O28       1.0  0.84750  0.70010  0.90150  1.0000 -0.579642038
O   O29       1.0  0.73750  0.76220  0.81020  1.0000 -0.5575129758
O   O30       1.0  0.40040  0.08690  0.17870  1.0000 -0.5981192063
O   O31       1.0  0.56400  0.19690  0.18940  1.0000 -0.495633788
O   O32       1.0  0.93510  0.10550  0.22980  1.0000 -0.5575129758
O   O33       1.0  0.15240  0.13000  0.25760  1.0000 -0.5887309781
O   O34       1.0  0.01730  0.12680  0.09470  1.0000 -1.1224212419
