# DDEC6 charges by PACMAN v1.1 (https://github.com/mtap-research/PACMAN-charge/)
data_2017[Yb][mog]3[FSR]2
_chemical_formula_sum              "Yb2 H26 C36 O16"
_cell_length_a       8.4515
_cell_length_b       12.3972
_cell_length_c       12.568
_cell_angle_alpha    110.453
_cell_angle_beta     102.132
_cell_angle_gamma    109.619

_symmetry_space_group_name_H-M    "P 1"
_symmetry_Int_Tables_number       1

loop_
  _symmetry_equiv_pos_as_xyz
  'x, y, z'

loop_
  _atom_site_type_symbol
  _atom_site_label
  _atom_site_symmetry_multiplicity
  _atom_site_fract_x
  _atom_site_fract_y
  _atom_site_fract_z
  _atom_site_occupancy
  _atom_site_charge
Yb  Yb1       1.0  0.70597  0.54147  0.40361  1.0000 2.0189496702
Yb  Yb2       1.0  0.29403  0.45853  0.59639  1.0000 2.0189496702
H   H1        1.0  0.05510  0.95110  0.40810  1.0000 0.1213884423
H   H2        1.0  0.94490  0.04890  0.59190  1.0000 0.1213884423
H   H3        1.0  0.31490  0.11670  0.43180  1.0000 0.1281710932
H   H4        1.0  0.68510  0.88330  0.56820  1.0000 0.1281710932
H   H5        1.0  0.64640  0.21220  0.47640  1.0000 0.1281710932
H   H6        1.0  0.35360  0.78780  0.52360  1.0000 0.1281710932
H   H7        1.0  0.34890  0.41670  0.98780  1.0000 0.1281710932
H   H8        1.0  0.65110  0.58330  0.01220  1.0000 0.1281710932
H   H9        1.0  0.11490  0.38860  0.83030  1.0000 0.1213884423
H   H10       1.0  0.88510  0.61140  0.16970  1.0000 0.1213884423
H   H11       1.0  0.83860  0.41480  0.76160  1.0000 0.1213884423
H   H12       1.0  0.16140  0.58520  0.23840  1.0000 0.1213884423
H   H13       1.0  0.03000  0.82830  0.72830  1.0000 0.1371692544
H   H14       1.0  0.97000  0.17170  0.27170  1.0000 0.1371692544
H   H15       1.0  0.25460  0.98920  0.91030  1.0000 0.1213884423
H   H16       1.0  0.74540  0.01080  0.08970  1.0000 0.1213884423
H   H17       1.0  0.34920  0.16080  0.12390  1.0000 0.1281710932
H   H18       1.0  0.65080  0.83920  0.87610  1.0000 0.1281710932
H   H19       1.0  0.93880  0.44960  0.34280  1.0000 0.3773195571
H   H20       1.0  0.06120  0.55040  0.65720  1.0000 0.3773195571
H   H21       1.0  0.81720  0.42500  0.23050  1.0000 0.3727724975
H   H22       1.0  0.18280  0.57500  0.76950  1.0000 0.3727724975
H   H23       1.0  0.73010  0.46730  0.58980  1.0000 0.3999389833
H   H24       1.0  0.26990  0.53270  0.41020  1.0000 0.3999389833
H   H25       1.0  0.82960  0.41630  0.51780  1.0000 0.38697393
H   H26       1.0  0.17040  0.58370  0.48220  1.0000 0.38697393
C   C1        1.0  0.01430  0.74890  0.45000  1.0000 0.5630187219
C   C2        1.0  0.98570  0.25110  0.55000  1.0000 0.5630187219
C   C3        1.0  0.18230  0.85290  0.46380  1.0000 -0.0231303373
C   C4        1.0  0.81770  0.14710  0.53620  1.0000 -0.0231303373
C   C5        1.0  0.16940  0.95210  0.43560  1.0000 -0.1005633497
C   C6        1.0  0.83060  0.04790  0.56440  1.0000 -0.1005633497
C   C7        1.0  0.32300  0.04920  0.44840  1.0000 -0.1270077997
C   C8        1.0  0.67700  0.95080  0.55160  1.0000 -0.1270077997
C   C9        1.0  0.49340  0.04940  0.48630  1.0000 0.078506825
C   C10       1.0  0.50660  0.95060  0.51370  1.0000 0.078506825
C   C11       1.0  0.65340  0.14660  0.49690  1.0000 -0.1505028977
C   C12       1.0  0.34660  0.85340  0.50310  1.0000 -0.1505028977
C   C13       1.0  0.43010  0.52130  0.22750  1.0000 0.5759010738
C   C14       1.0  0.56990  0.47870  0.77250  1.0000 0.5759010738
C   C15       1.0  0.27590  0.50350  0.12820  1.0000 -0.0072073828
C   C16       1.0  0.72410  0.49650  0.87180  1.0000 -0.0072073828
C   C17       1.0  0.26170  0.44490  0.00570  1.0000 -0.0940986597
C   C18       1.0  0.73830  0.55510  0.99430  1.0000 -0.0940986597
C   C19       1.0  0.12340  0.42830  0.91240  1.0000 -0.1440158361
C   C20       1.0  0.87660  0.57170  0.08760  1.0000 -0.1440158361
C   C21       1.0  0.99260  0.47050  0.93830  1.0000 0.078506825
C   C22       1.0  0.00740  0.52950  0.06170  1.0000 0.078506825
C   C23       1.0  0.84930  0.45450  0.84420  1.0000 -0.1610683674
C   C24       1.0  0.15070  0.54550  0.15580  1.0000 -0.1610683674
C   C25       1.0  0.67150  0.70860  0.66850  1.0000 0.6500019854
C   C26       1.0  0.32850  0.29140  0.33150  1.0000 0.6500019854
C   C27       1.0  0.81790  0.82100  0.78510  1.0000 -0.0231303373
C   C28       1.0  0.18210  0.17900  0.21490  1.0000 -0.0231303373
C   C29       1.0  0.99970  0.86580  0.79610  1.0000 -0.1005633497
C   C30       1.0  0.00030  0.13420  0.20390  1.0000 -0.1005633497
C   C31       1.0  0.13190  0.96220  0.90320  1.0000 -0.1505028977
C   C32       1.0  0.86810  0.03780  0.09680  1.0000 -0.1505028977
C   C33       1.0  0.09130  0.02350  0.00440  1.0000 0.0748311406
C   C34       1.0  0.90870  0.97650  0.99560  1.0000 0.078506825
C   C35       1.0  0.22650  0.12700  0.11670  1.0000 -0.1505028977
C   C36       1.0  0.77350  0.87300  0.88330  1.0000 -0.1505028977
O   O1        1.0  0.86100  0.73390  0.39270  1.0000 -0.6155263954
O   O2        1.0  0.13900  0.26610  0.60730  1.0000 -0.6155263954
O   O3        1.0  0.02820  0.67170  0.49320  1.0000 -0.6591738735
O   O4        1.0  0.97180  0.32830  0.50680  1.0000 -0.6591738735
O   O5        1.0  0.55030  0.49150  0.20100  1.0000 -0.6300771409
O   O6        1.0  0.44970  0.50850  0.79900  1.0000 -0.6300771409
O   O7        1.0  0.44080  0.56660  0.33890  1.0000 -0.6591738735
O   O8        1.0  0.55920  0.43340  0.66110  1.0000 -0.6591738735
O   O9        1.0  0.71650  0.67300  0.57840  1.0000 -0.6851939732
O   O10       1.0  0.28350  0.32700  0.42160  1.0000 -0.6849472696
O   O11       1.0  0.51600  0.65850  0.66780  1.0000 -0.6591738735
O   O12       1.0  0.48400  0.34150  0.33220  1.0000 -0.6591738735
O   O13       1.0  0.82550  0.42050  0.29880  1.0000 -0.7901225262
O   O14       1.0  0.17450  0.57950  0.70120  1.0000 -0.7901225262
O   O15       1.0  0.80450  0.47630  0.55040  1.0000 -0.7833540314
O   O16       1.0  0.19550  0.52370  0.44960  1.0000 -0.7833540314
