# DDEC6 charges by PACMAN v1.1 (https://github.com/mtap-research/PACMAN-charge/)
data_2017[U][nan]3[FSR]2
_chemical_formula_sum              "U12 P16 H24 C56 O96"
_cell_length_a       14.8008
_cell_length_b       12.2543
_cell_length_c       33.423
_cell_angle_alpha    90
_cell_angle_beta     115.29
_cell_angle_gamma    90

_symmetry_space_group_name_H-M    "P 1"
_symmetry_Int_Tables_number       1

loop_
  _symmetry_equiv_pos_as_xyz
  'x, y, z'

loop_
  _atom_site_type_symbol
  _atom_site_label
  _atom_site_symmetry_multiplicity
  _atom_site_fract_x
  _atom_site_fract_y
  _atom_site_fract_z
  _atom_site_occupancy
  _atom_site_charge
U   U1        1.0  0.22019  0.67133  0.76524  1.0000 2.493055289
U   U2        1.0  0.77981  0.17133  0.73476  1.0000 2.493055289
U   U3        1.0  0.77981  0.32867  0.23476  1.0000 2.493055289
U   U4        1.0  0.22019  0.82867  0.26524  1.0000 2.493055289
U   U5        1.0  0.45684  0.35956  0.92365  1.0000 2.4603189279
U   U6        1.0  0.54316  0.85956  0.57635  1.0000 2.4603189279
U   U7        1.0  0.54316  0.64044  0.07635  1.0000 2.4603189279
U   U8        1.0  0.45684  0.14044  0.42365  1.0000 2.4603189279
U   U9        1.0  0.50550  0.42695  0.75709  1.0000 2.600410824
U   U10       1.0  0.49450  0.92695  0.74291  1.0000 2.600410824
U   U11       1.0  0.49450  0.57305  0.24291  1.0000 2.600410824
U   U12       1.0  0.50550  0.07305  0.25709  1.0000 2.600410824
P   P1        1.0  0.67750  0.89560  0.69750  1.0000 1.3670456161
P   P2        1.0  0.32250  0.39560  0.80250  1.0000 1.3670456161
P   P3        1.0  0.32250  0.10440  0.30250  1.0000 1.3670456161
P   P4        1.0  0.67750  0.60440  0.19750  1.0000 1.3670456161
P   P5        1.0  0.68476  0.44840  0.70836  1.0000 1.3306464006
P   P6        1.0  0.31524  0.94840  0.79164  1.0000 1.3306464006
P   P7        1.0  0.31524  0.55160  0.29164  1.0000 1.3306464006
P   P8        1.0  0.68476  0.05160  0.20836  1.0000 1.3306464006
P   P9        1.0  0.49881  0.68430  0.80401  1.0000 1.3816273858
P   P10       1.0  0.50119  0.18430  0.69599  1.0000 1.3816273858
P   P11       1.0  0.50119  0.31570  0.19599  1.0000 1.3816273858
P   P12       1.0  0.49881  0.81570  0.30401  1.0000 1.3816273858
P   P13       1.0  0.42764  0.63590  0.95244  1.0000 1.3379163195
P   P14       1.0  0.57236  0.13590  0.54756  1.0000 1.3379163195
P   P15       1.0  0.57236  0.36410  0.04756  1.0000 1.3379163195
P   P16       1.0  0.42764  0.86410  0.45244  1.0000 1.3379163195
H   H1        1.0  0.88540  0.83640  0.72510  1.0000 0.1582106848
H   H2        1.0  0.11460  0.33640  0.77490  1.0000 0.1582106848
H   H3        1.0  0.11460  0.16360  0.27490  1.0000 0.1582106848
H   H4        1.0  0.88540  0.66360  0.22510  1.0000 0.1582106848
H   H5        1.0  0.63250  0.67100  0.70010  1.0000 0.1406717499
H   H6        1.0  0.36750  0.17100  0.79990  1.0000 0.1406717499
H   H7        1.0  0.36750  0.32900  0.29990  1.0000 0.1406717499
H   H8        1.0  0.63250  0.82900  0.20010  1.0000 0.1406717499
H   H9        1.0  0.88840  0.50840  0.73070  1.0000 0.1582106848
H   H10       1.0  0.11160  0.00840  0.76930  1.0000 0.1582106848
H   H11       1.0  0.11160  0.49160  0.26930  1.0000 0.1582106848
H   H12       1.0  0.88840  0.99160  0.23070  1.0000 0.1582106848
H   H13       1.0  0.64180  0.82620  0.86980  1.0000 0.1406717499
H   H14       1.0  0.35820  0.32620  0.63020  1.0000 0.1406717499
H   H15       1.0  0.35820  0.17380  0.13020  1.0000 0.1406717499
H   H16       1.0  0.64180  0.67380  0.36980  1.0000 0.1406717499
H   H17       1.0  0.43130  0.61760  0.86780  1.0000 0.1406717499
H   H18       1.0  0.56870  0.11760  0.63220  1.0000 0.1406717499
H   H19       1.0  0.56870  0.38240  0.13220  1.0000 0.1406717499
H   H20       1.0  0.43130  0.88240  0.36780  1.0000 0.1406717499
H   H21       1.0  0.58890  0.78430  0.97830  1.0000 0.1406717499
H   H22       1.0  0.41110  0.28430  0.52170  1.0000 0.1406717499
H   H23       1.0  0.41110  0.21570  0.02170  1.0000 0.1406717499
H   H24       1.0  0.58890  0.71570  0.47830  1.0000 0.1406717499
C   C1        1.0  0.01270  0.67090  0.74290  1.0000 0.5378134449
C   C2        1.0  0.98730  0.17090  0.75710  1.0000 0.5378134449
C   C3        1.0  0.98730  0.32910  0.25710  1.0000 0.5378134449
C   C4        1.0  0.01270  0.82910  0.24290  1.0000 0.5378134449
C   C5        1.0  0.90260  0.67260  0.72980  1.0000 0.0304818985
C   C6        1.0  0.09740  0.17260  0.77020  1.0000 0.0304818985
C   C7        1.0  0.09740  0.32740  0.27020  1.0000 0.0240820472
C   C8        1.0  0.90260  0.82740  0.22980  1.0000 0.0240820472
C   C9        1.0  0.85150  0.77090  0.72220  1.0000 -0.0625341923
C   C10       1.0  0.14850  0.27090  0.77780  1.0000 -0.0625341923
C   C11       1.0  0.14850  0.22910  0.27780  1.0000 -0.0625341923
C   C12       1.0  0.85150  0.72910  0.22220  1.0000 -0.0625341923
C   C13       1.0  0.74980  0.77080  0.71040  1.0000 -0.1408197011
C   C14       1.0  0.25020  0.27080  0.78960  1.0000 -0.1408197011
C   C15       1.0  0.25020  0.22920  0.28960  1.0000 -0.1408197011
C   C16       1.0  0.74980  0.72920  0.21040  1.0000 -0.1408197011
C   C17       1.0  0.70050  0.67160  0.70720  1.0000 -0.0625341923
C   C18       1.0  0.29950  0.17160  0.79280  1.0000 -0.0625341923
C   C19       1.0  0.29950  0.32840  0.29280  1.0000 -0.0625341923
C   C20       1.0  0.70050  0.82840  0.20720  1.0000 -0.0625341923
C   C21       1.0  0.75320  0.57330  0.71460  1.0000 -0.1310590308
C   C22       1.0  0.24680  0.07330  0.78540  1.0000 -0.1310590308
C   C23       1.0  0.24680  0.42670  0.28540  1.0000 -0.1310590308
C   C24       1.0  0.75320  0.92670  0.21460  1.0000 -0.1310590308
C   C25       1.0  0.85330  0.57380  0.72580  1.0000 -0.067113931
C   C26       1.0  0.14670  0.07380  0.77420  1.0000 -0.067113931
C   C27       1.0  0.14670  0.42620  0.27420  1.0000 -0.067113931
C   C28       1.0  0.85330  0.92620  0.22580  1.0000 -0.067113931
C   C29       1.0  0.71110  0.89900  0.95110  1.0000 0.5205936183
C   C30       1.0  0.28890  0.39900  0.54890  1.0000 0.5205936183
C   C31       1.0  0.28890  0.10100  0.04890  1.0000 0.5205936183
C   C32       1.0  0.71110  0.60100  0.45110  1.0000 0.5205936183
C   C33       1.0  0.62580  0.81740  0.92750  1.0000 0.0304818985
C   C34       1.0  0.37420  0.31740  0.57250  1.0000 0.0304818985
C   C35       1.0  0.37420  0.18260  0.07250  1.0000 0.0304818985
C   C36       1.0  0.62580  0.68260  0.42750  1.0000 0.0304818985
C   C37       1.0  0.60610  0.79250  0.88350  1.0000 -0.0508883509
C   C38       1.0  0.39390  0.29250  0.61650  1.0000 -0.0508883509
C   C39       1.0  0.39390  0.20750  0.11650  1.0000 -0.0508883509
C   C40       1.0  0.60610  0.70750  0.38350  1.0000 -0.0508883509
C   C41       1.0  0.53100  0.71550  0.86050  1.0000 -0.1215683023
C   C42       1.0  0.46900  0.21550  0.63950  1.0000 -0.1215683023
C   C43       1.0  0.46900  0.28450  0.13950  1.0000 -0.1215683023
C   C44       1.0  0.53100  0.78450  0.36050  1.0000 -0.1215683023
C   C45       1.0  0.48080  0.66870  0.88280  1.0000 0.0060988652
C   C46       1.0  0.51920  0.16870  0.61720  1.0000 0.0060988652
C   C47       1.0  0.51920  0.33130  0.11720  1.0000 0.0060988652
C   C48       1.0  0.48080  0.83130  0.38280  1.0000 0.0043834777
C   C49       1.0  0.49990  0.69370  0.92660  1.0000 -0.1081280789
C   C50       1.0  0.50010  0.19370  0.57340  1.0000 -0.1081280789
C   C51       1.0  0.50010  0.30630  0.07340  1.0000 -0.1081280789
C   C52       1.0  0.49990  0.80630  0.42660  1.0000 -0.1081280789
C   C53       1.0  0.57350  0.76740  0.94890  1.0000 -0.0508883509
C   C54       1.0  0.42650  0.26740  0.55110  1.0000 -0.0508883509
C   C55       1.0  0.42650  0.23260  0.05110  1.0000 -0.0508883509
C   C56       1.0  0.57350  0.73260  0.44890  1.0000 -0.0508883509
O   O1        1.0  0.24530  0.68040  0.82220  1.0000 -0.5965741823
O   O2        1.0  0.75470  0.18040  0.67780  1.0000 -0.5965741823
O   O3        1.0  0.75470  0.31960  0.17780  1.0000 -0.5965741823
O   O4        1.0  0.24530  0.81960  0.32220  1.0000 -0.5965741823
O   O5        1.0  0.19000  0.66390  0.70840  1.0000 -0.5587118417
O   O6        1.0  0.81000  0.16390  0.79160  1.0000 -0.5549481462
O   O7        1.0  0.81000  0.33610  0.29160  1.0000 -0.5549481462
O   O8        1.0  0.19000  0.83610  0.20840  1.0000 -0.5587118417
O   O9        1.0  0.38620  0.67710  0.78150  1.0000 -0.8147067974
O   O10       1.0  0.61380  0.17710  0.71850  1.0000 -0.8154349278
O   O11       1.0  0.61380  0.32290  0.21850  1.0000 -0.8154349278
O   O12       1.0  0.38620  0.82290  0.28150  1.0000 -0.8154349278
O   O13       1.0  0.06030  0.58340  0.75050  1.0000 -0.4967388163
O   O14       1.0  0.93970  0.08340  0.74950  1.0000 -0.4967388163
O   O15       1.0  0.93970  0.41660  0.24950  1.0000 -0.4967388163
O   O16       1.0  0.06030  0.91660  0.25050  1.0000 -0.4967388163
O   O17       1.0  0.05790  0.76160  0.74590  1.0000 -0.5087853472
O   O18       1.0  0.94210  0.26160  0.75410  1.0000 -0.5087853472
O   O19       1.0  0.94210  0.23840  0.25410  1.0000 -0.5087853472
O   O20       1.0  0.05790  0.73840  0.24590  1.0000 -0.5087853472
O   O21       1.0  0.61010  0.35930  0.79820  1.0000 -0.6085082094
O   O22       1.0  0.38990  0.85930  0.70180  1.0000 -0.6085082094
O   O23       1.0  0.38990  0.64070  0.20180  1.0000 -0.6085082094
O   O24       1.0  0.61010  0.14070  0.29820  1.0000 -0.6085082094
O   O25       1.0  0.40290  0.49590  0.71610  1.0000 -0.6085082094
O   O26       1.0  0.59710  0.99590  0.78390  1.0000 -0.6085082094
O   O27       1.0  0.59710  0.50410  0.28390  1.0000 -0.6085082094
O   O28       1.0  0.40290  0.00410  0.21610  1.0000 -0.6085082094
O   O29       1.0  0.54810  0.57560  0.80220  1.0000 -0.788627627
O   O30       1.0  0.45190  0.07560  0.69780  1.0000 -0.788627627
O   O31       1.0  0.45190  0.42440  0.19780  1.0000 -0.788627627
O   O32       1.0  0.54810  0.92440  0.30220  1.0000 -0.788627627
O   O33       1.0  0.53970  0.77510  0.78630  1.0000 -0.788627627
O   O34       1.0  0.46030  0.27510  0.71370  1.0000 -0.788627627
O   O35       1.0  0.46030  0.22490  0.21370  1.0000 -0.788627627
O   O36       1.0  0.53970  0.72490  0.28630  1.0000 -0.788627627
O   O37       1.0  0.76770  0.92000  0.93370  1.0000 -0.3894355993
O   O38       1.0  0.23230  0.42000  0.56630  1.0000 -0.3894355993
O   O39       1.0  0.23230  0.08000  0.06630  1.0000 -0.3894355993
O   O40       1.0  0.76770  0.58000  0.43370  1.0000 -0.3894355993
O   O41       1.0  0.71650  0.93600  0.98850  1.0000 -0.4160455714
O   O42       1.0  0.28350  0.43600  0.51150  1.0000 -0.4160455714
O   O43       1.0  0.28350  0.06400  0.01150  1.0000 -0.4160455714
O   O44       1.0  0.71650  0.56400  0.48850  1.0000 -0.4160455714
O   O45       1.0  0.49000  0.64100  0.00130  1.0000 -0.7690318177
O   O46       1.0  0.51000  0.14100  0.49870  1.0000 -0.7690318177
O   O47       1.0  0.51000  0.35900  0.99870  1.0000 -0.7690318177
O   O48       1.0  0.49000  0.85900  0.50130  1.0000 -0.7690318177
O   O49       1.0  0.33380  0.70900  0.94040  1.0000 -0.5587118417
O   O50       1.0  0.66620  0.20900  0.55960  1.0000 -0.5587118417
O   O51       1.0  0.66620  0.29100  0.05960  1.0000 -0.5587118417
O   O52       1.0  0.33380  0.79100  0.44040  1.0000 -0.5587118417
O   O53       1.0  0.39440  0.52480  0.93380  1.0000 -0.759131975
O   O54       1.0  0.60560  0.02480  0.56620  1.0000 -0.759131975
O   O55       1.0  0.60560  0.47520  0.06620  1.0000 -0.759131975
O   O56       1.0  0.39440  0.97520  0.43380  1.0000 -0.759131975
O   O57       1.0  0.56440  0.43210  0.92950  1.0000 -0.6207848142
O   O58       1.0  0.43560  0.93210  0.57050  1.0000 -0.6207848142
O   O59       1.0  0.43560  0.56790  0.07050  1.0000 -0.6207848142
O   O60       1.0  0.56440  0.06790  0.42950  1.0000 -0.6207848142
O   O61       1.0  0.35340  0.29000  0.91950  1.0000 -0.5876899983
O   O62       1.0  0.64660  0.79000  0.58050  1.0000 -0.5876899983
O   O63       1.0  0.64660  0.71000  0.08050  1.0000 -0.5876899983
O   O64       1.0  0.35340  0.21000  0.41950  1.0000 -0.5876899983
O   O65       1.0  0.51790  0.25400  0.87280  1.0000 0.1582106848
O   O66       1.0  0.48210  0.75400  0.62720  1.0000 0.1582106848
O   O67       1.0  0.48210  0.74600  0.12720  1.0000 0.1582106848
O   O68       1.0  0.51790  0.24600  0.37280  1.0000 0.1582106848
O   O69       1.0  0.55320  0.18500  0.95220  1.0000 0.0537195566
O   O70       1.0  0.44680  0.68500  0.54780  1.0000 0.0537195566
O   O71       1.0  0.44680  0.81500  0.04780  1.0000 0.0537195566
O   O72       1.0  0.55320  0.31500  0.45220  1.0000 0.0559279968
O   O73       1.0  0.74340  0.98700  0.72390  1.0000 -0.7821055303
O   O74       1.0  0.25660  0.48700  0.77610  1.0000 -0.7821055303
O   O75       1.0  0.25660  0.01300  0.27610  1.0000 -0.7821055303
O   O76       1.0  0.74340  0.51300  0.22390  1.0000 -0.7821055303
O   O77       1.0  0.63870  0.91430  0.64790  1.0000 -0.7690318177
O   O78       1.0  0.36130  0.41430  0.85210  1.0000 -0.759131975
O   O79       1.0  0.36130  0.08570  0.35210  1.0000 -0.7690318177
O   O80       1.0  0.63870  0.58570  0.14790  1.0000 -0.7690318177
O   O81       1.0  0.58900  0.87350  0.70850  1.0000 -0.8005879323
O   O82       1.0  0.41100  0.37350  0.79150  1.0000 -0.8005879323
O   O83       1.0  0.41100  0.12650  0.29150  1.0000 -0.8005879323
O   O84       1.0  0.58900  0.62650  0.20850  1.0000 -0.8005879323
O   O85       1.0  0.59760  0.47410  0.71940  1.0000 -0.8005879323
O   O86       1.0  0.40240  0.97410  0.78060  1.0000 -0.8005879323
O   O87       1.0  0.40240  0.52590  0.28060  1.0000 -0.8005879323
O   O88       1.0  0.59760  0.02590  0.21940  1.0000 -0.8005879323
O   O89       1.0  0.64210  0.41700  0.65900  1.0000 -0.5876899983
O   O90       1.0  0.35790  0.91700  0.84100  1.0000 -0.5876899983
O   O91       1.0  0.35790  0.58300  0.34100  1.0000 -0.5876899983
O   O92       1.0  0.64210  0.08300  0.15900  1.0000 -0.5876899983
O   O93       1.0  0.75650  0.36080  0.73510  1.0000 -0.7821055303
O   O94       1.0  0.24350  0.86080  0.76490  1.0000 -0.7821055303
O   O95       1.0  0.24350  0.63920  0.26490  1.0000 -0.7821055303
O   O96       1.0  0.75650  0.13920  0.23510  1.0000 -0.7821055303
