# DDEC6 charges by PACMAN v1.1 (https://github.com/mtap-research/PACMAN-charge/)
data_2017[Tb][nan]3[FSR]5
_chemical_formula_sum              "Tb4 H52 C52 O36"
_cell_length_a       11.878
_cell_length_b       12.419
_cell_length_c       12.489
_cell_angle_alpha    90
_cell_angle_beta     98.63
_cell_angle_gamma    90

_symmetry_space_group_name_H-M    "P 1"
_symmetry_Int_Tables_number       1

loop_
  _symmetry_equiv_pos_as_xyz
  'x, y, z'

loop_
  _atom_site_type_symbol
  _atom_site_label
  _atom_site_symmetry_multiplicity
  _atom_site_fract_x
  _atom_site_fract_y
  _atom_site_fract_z
  _atom_site_occupancy
  _atom_site_charge
Tb  Tb1       1.0  0.37186  0.44561  0.13200  1.0000 2.0431826859
Tb  Tb2       1.0  0.62814  0.94561  0.86800  1.0000 2.0431826859
Tb  Tb3       1.0  0.63807  0.22947  0.18501  1.0000 2.088016346
Tb  Tb4       1.0  0.36193  0.72947  0.81499  1.0000 2.088016346
H   H1        1.0  0.32340  0.40110  0.48440  1.0000 0.1499621371
H   H2        1.0  0.67660  0.90110  0.51560  1.0000 0.1499621371
H   H3        1.0  0.47910  0.33070  0.78480  1.0000 0.1329635182
H   H4        1.0  0.52090  0.83070  0.21520  1.0000 0.1329635182
H   H5        1.0  0.64050  0.27640  0.52920  1.0000 0.1499621371
H   H6        1.0  0.35950  0.77640  0.47080  1.0000 0.1499621371
H   H7        1.0  0.30220  0.30680  0.80450  1.0000 0.0988194321
H   H8        1.0  0.69780  0.80680  0.19550  1.0000 0.0988194321
H   H9        1.0  0.11070  0.33900  0.76040  1.0000 0.1499621371
H   H10       1.0  0.88930  0.83900  0.23960  1.0000 0.1499621371
H   H11       1.0  0.14870  0.38600  0.87670  1.0000 0.1499621371
H   H12       1.0  0.85130  0.88600  0.12330  1.0000 0.1499621371
H   H13       1.0  0.12860  0.46330  0.77640  1.0000 0.1329635182
H   H14       1.0  0.87140  0.96330  0.22360  1.0000 0.1329635182
H   H15       1.0  0.65780  0.36590  0.85350  1.0000 0.0880225052
H   H16       1.0  0.34220  0.86590  0.14650  1.0000 0.0880225052
H   H17       1.0  0.85020  0.35550  0.84450  1.0000 0.1499621371
H   H18       1.0  0.14980  0.85550  0.15550  1.0000 0.1499621371
H   H19       1.0  0.83020  0.31260  0.95820  1.0000 0.140151821
H   H20       1.0  0.16980  0.81260  0.04180  1.0000 0.140151821
H   H21       1.0  0.85060  0.23130  0.86700  1.0000 0.140151821
H   H22       1.0  0.14940  0.73130  0.13300  1.0000 0.140151821
H   H23       1.0  0.00270  0.53720  0.92970  1.0000 0.1329635182
H   H24       1.0  0.99730  0.03720  0.07030  1.0000 0.1329635182
H   H25       1.0  0.71450  0.60400  0.04900  1.0000 0.140151821
H   H26       1.0  0.28550  0.10400  0.95100  1.0000 0.140151821
H   H27       1.0  0.00760  0.56360  0.25180  1.0000 0.1499621371
H   H28       1.0  0.99240  0.06360  0.74820  1.0000 0.1499621371
H   H29       1.0  0.63760  0.62040  0.20180  1.0000 0.0988194321
H   H30       1.0  0.36240  0.12040  0.79820  1.0000 0.0988194321
H   H31       1.0  0.67400  0.64910  0.39370  1.0000 0.140151821
H   H32       1.0  0.32600  0.14910  0.60630  1.0000 0.140151821
H   H33       1.0  0.57560  0.56560  0.36220  1.0000 0.1499621371
H   H34       1.0  0.42440  0.06560  0.63780  1.0000 0.1499621371
H   H35       1.0  0.69800  0.52560  0.40990  1.0000 0.1499621371
H   H36       1.0  0.30200  0.02560  0.59010  1.0000 0.1499621371
H   H37       1.0  0.63610  0.55270  0.87700  1.0000 0.0988194321
H   H38       1.0  0.36390  0.05270  0.12300  1.0000 0.0988194321
H   H39       1.0  0.67360  0.51190  0.70020  1.0000 0.140151821
H   H40       1.0  0.32640  0.01190  0.29980  1.0000 0.140151821
H   H41       1.0  0.57400  0.59520  0.69690  1.0000 0.140151821
H   H42       1.0  0.42600  0.09520  0.30310  1.0000 0.140151821
H   H43       1.0  0.69620  0.63440  0.68190  1.0000 0.1499621371
H   H44       1.0  0.30380  0.13440  0.31810  1.0000 0.1499621371
H   H45       1.0  0.82040  0.12770  0.09170  1.0000 0.3809092491
H   H46       1.0  0.17960  0.62770  0.90830  1.0000 0.3809092491
H   H47       1.0  0.88070  0.21440  0.14290  1.0000 0.372827664
H   H48       1.0  0.11930  0.71440  0.85710  1.0000 0.372827664
H   H49       1.0  0.76090  0.10380  0.31050  1.0000 0.3302823454
H   H50       1.0  0.23910  0.60380  0.68950  1.0000 0.3302823454
H   H51       1.0  0.79380  0.15590  0.40850  1.0000 0.3865227997
H   H52       1.0  0.20620  0.65590  0.59150  1.0000 0.3865227997
C   C1        1.0  0.48210  0.33950  0.48830  1.0000 0.0134887993
C   C2        1.0  0.51790  0.83950  0.51170  1.0000 0.0134887993
C   C3        1.0  0.38640  0.37480  0.53010  1.0000 -0.2496962175
C   C4        1.0  0.61360  0.87480  0.46990  1.0000 -0.2496962175
C   C5        1.0  0.38680  0.37000  0.64090  1.0000 0.2616250167
C   C6        1.0  0.61320  0.87000  0.35910  1.0000 0.2616250167
C   C7        1.0  0.48060  0.33420  0.71060  1.0000 -0.3518394456
C   C8        1.0  0.51940  0.83420  0.28940  1.0000 -0.3518394456
C   C9        1.0  0.57760  0.30360  0.66770  1.0000 0.2810482308
C   C10       1.0  0.42240  0.80360  0.33230  1.0000 0.2810482308
C   C11       1.0  0.57760  0.30210  0.55740  1.0000 -0.2496962175
C   C12       1.0  0.42240  0.80210  0.44260  1.0000 -0.2496962175
C   C13       1.0  0.48490  0.34090  0.36910  1.0000 0.6389734297
C   C14       1.0  0.51510  0.84090  0.63090  1.0000 0.6389734297
C   C15       1.0  0.27870  0.38110  0.78690  1.0000 0.0712493192
C   C16       1.0  0.72130  0.88110  0.21310  1.0000 0.0712493192
C   C17       1.0  0.35650  0.45780  0.86260  1.0000 0.62712498
C   C18       1.0  0.64350  0.95780  0.13740  1.0000 0.62712498
C   C19       1.0  0.15550  0.39350  0.80140  1.0000 -0.4512681018
C   C20       1.0  0.84450  0.89350  0.19860  1.0000 -0.4512681018
C   C21       1.0  0.69010  0.29480  0.84280  1.0000 0.0712493192
C   C22       1.0  0.30990  0.79480  0.15720  1.0000 0.0712493192
C   C23       1.0  0.63060  0.21160  0.90610  1.0000 0.6389734297
C   C24       1.0  0.36940  0.71160  0.09390  1.0000 0.6389734297
C   C25       1.0  0.81680  0.29890  0.88160  1.0000 -0.4512681018
C   C26       1.0  0.18320  0.79890  0.11840  1.0000 -0.4512681018
C   C27       1.0  0.02280  0.54680  0.09260  1.0000 0.0233093202
C   C28       1.0  0.97720  0.04680  0.90740  1.0000 0.0233093202
C   C29       1.0  0.96460  0.54990  0.98840  1.0000 -0.256899342
C   C30       1.0  0.03540  0.04990  0.01160  1.0000 -0.256899342
C   C31       1.0  0.84930  0.57190  0.97190  1.0000 0.2810482308
C   C32       1.0  0.15070  0.07190  0.02810  1.0000 0.2810482308
C   C33       1.0  0.79220  0.58980  0.06000  1.0000 -0.3518394456
C   C34       1.0  0.20780  0.08980  0.94000  1.0000 -0.3518394456
C   C35       1.0  0.85230  0.58620  0.16430  1.0000 0.2616250167
C   C36       1.0  0.14770  0.08620  0.83570  1.0000 0.2656973153
C   C37       1.0  0.96750  0.56530  0.18180  1.0000 -0.2355011553
C   C38       1.0  0.03250  0.06530  0.81820  1.0000 -0.2355011553
C   C39       1.0  0.14770  0.52030  0.11080  1.0000 0.5603476911
C   C40       1.0  0.85230  0.02030  0.88920  1.0000 0.5603476911
C   C41       1.0  0.68630  0.57150  0.24990  1.0000 0.0880225052
C   C42       1.0  0.31370  0.07150  0.75010  1.0000 0.0880225052
C   C43       1.0  0.66890  0.45640  0.20870  1.0000 0.5870626717
C   C44       1.0  0.33110  0.95640  0.79130  1.0000 0.5870626717
C   C45       1.0  0.65560  0.57860  0.36460  1.0000 -0.4512681018
C   C46       1.0  0.34440  0.07860  0.63540  1.0000 -0.4447848052
C   C47       1.0  0.68340  0.59960  0.83900  1.0000 0.0880225052
C   C48       1.0  0.31660  0.09960  0.16100  1.0000 0.0880225052
C   C49       1.0  0.66360  0.71730  0.86620  1.0000 0.5814539343
C   C50       1.0  0.33640  0.21730  0.13380  1.0000 0.5814539343
C   C51       1.0  0.65420  0.58390  0.71860  1.0000 -0.4550756664
C   C52       1.0  0.34580  0.08390  0.28140  1.0000 -0.4512681018
O   O1        1.0  0.55960  0.28430  0.33530  1.0000 -0.6689756364
O   O2        1.0  0.44040  0.78430  0.66470  1.0000 -0.6689756364
O   O3        1.0  0.41270  0.39800  0.31190  1.0000 -0.6495274753
O   O4        1.0  0.58730  0.89800  0.68810  1.0000 -0.6495274753
O   O5        1.0  0.28760  0.40050  0.67670  1.0000 -0.2165106312
O   O6        1.0  0.71240  0.90050  0.32330  1.0000 -0.2165106312
O   O7        1.0  0.38140  0.54690  0.82820  1.0000 -0.6615304947
O   O8        1.0  0.61860  0.04690  0.17180  1.0000 -0.6615304947
O   O9        1.0  0.39010  0.42200  0.95530  1.0000 -0.6355764121
O   O10       1.0  0.60990  0.92200  0.04470  1.0000 -0.6355764121
O   O11       1.0  0.67630  0.27300  0.72940  1.0000 -0.1989553385
O   O12       1.0  0.32370  0.77300  0.27060  1.0000 -0.1989553385
O   O13       1.0  0.62360  0.23720  0.00120  1.0000 -0.6615304947
O   O14       1.0  0.37640  0.73720  0.99880  1.0000 -0.6615304947
O   O15       1.0  0.59250  0.12680  0.85940  1.0000 -0.6615304947
O   O16       1.0  0.40750  0.62680  0.14060  1.0000 -0.6615304947
O   O17       1.0  0.19870  0.49590  0.20230  1.0000 -0.5859251172
O   O18       1.0  0.80130  0.99590  0.79770  1.0000 -0.5859251172
O   O19       1.0  0.20070  0.52210  0.02860  1.0000 -0.6615304947
O   O20       1.0  0.79930  0.02210  0.97140  1.0000 -0.6615304947
O   O21       1.0  0.79970  0.57140  0.86660  1.0000 -0.1989553385
O   O22       1.0  0.20030  0.07140  0.13340  1.0000 -0.1989553385
O   O23       1.0  0.74290  0.78260  0.87860  1.0000 -0.5662317724
O   O24       1.0  0.25710  0.28260  0.12140  1.0000 -0.5662317724
O   O25       1.0  0.56190  0.74500  0.87200  1.0000 -0.7296513767
O   O26       1.0  0.43810  0.24500  0.12800  1.0000 -0.7296513767
O   O27       1.0  0.80190  0.60290  0.25530  1.0000 -0.2109043003
O   O28       1.0  0.19810  0.10290  0.74470  1.0000 -0.2109043003
O   O29       1.0  0.74670  0.38850  0.23160  1.0000 -0.6051044912
O   O30       1.0  0.25330  0.88850  0.76840  1.0000 -0.6043626518
O   O31       1.0  0.57360  0.43070  0.15560  1.0000 -0.7142456025
O   O32       1.0  0.42640  0.93070  0.84440  1.0000 -0.7142456025
O   O33       1.0  0.81990  0.17740  0.13850  1.0000 -0.7808257789
O   O34       1.0  0.18010  0.67740  0.86150  1.0000 -0.7808257789
O   O35       1.0  0.75310  0.16060  0.34660  1.0000 -0.7459964604
O   O36       1.0  0.24690  0.66060  0.65340  1.0000 -0.7459964604
