# DDEC6 charges by PACMAN v1.1 (https://github.com/mtap-research/PACMAN-charge/)
data_2017[Sm][nan]3[FSR]2
_chemical_formula_sum              "Sm4 H52 C52 O36"
_cell_length_a       11.9
_cell_length_b       12.494
_cell_length_c       12.539
_cell_angle_alpha    90
_cell_angle_beta     98.76
_cell_angle_gamma    90

_symmetry_space_group_name_H-M    "P 1"
_symmetry_Int_Tables_number       1

loop_
  _symmetry_equiv_pos_as_xyz
  'x, y, z'

loop_
  _atom_site_type_symbol
  _atom_site_label
  _atom_site_symmetry_multiplicity
  _atom_site_fract_x
  _atom_site_fract_y
  _atom_site_fract_z
  _atom_site_occupancy
  _atom_site_charge
Sm  Sm1       1.0  0.37261  0.44570  0.13154  1.0000 2.0873113002
Sm  Sm2       1.0  0.62739  0.94570  0.86846  1.0000 2.0873113002
Sm  Sm3       1.0  0.64113  0.22936  0.18695  1.0000 2.1354918803
Sm  Sm4       1.0  0.35887  0.72936  0.81305  1.0000 2.1349113311
H   H1        1.0  0.32590  0.39960  0.48380  1.0000 0.1570866171
H   H2        1.0  0.67410  0.89960  0.51620  1.0000 0.1570866171
H   H3        1.0  0.48110  0.33050  0.78440  1.0000 0.1333341296
H   H4        1.0  0.51890  0.83050  0.21560  1.0000 0.1333341296
H   H5        1.0  0.64340  0.27740  0.53040  1.0000 0.1493990055
H   H6        1.0  0.35660  0.77740  0.46960  1.0000 0.1493990055
H   H7        1.0  0.30250  0.30600  0.80240  1.0000 0.0999520214
H   H8        1.0  0.69750  0.80600  0.19760  1.0000 0.0999520214
H   H9        1.0  0.11090  0.34010  0.75360  1.0000 0.1493990055
H   H10       1.0  0.88910  0.84010  0.24640  1.0000 0.1493990055
H   H11       1.0  0.14810  0.38040  0.87210  1.0000 0.1493990055
H   H12       1.0  0.85190  0.88040  0.12790  1.0000 0.1493990055
H   H13       1.0  0.13020  0.46260  0.77660  1.0000 0.1333341296
H   H14       1.0  0.86980  0.96260  0.22340  1.0000 0.1395999625
H   H15       1.0  0.66100  0.36670  0.85490  1.0000 0.0999520214
H   H16       1.0  0.33900  0.86670  0.14510  1.0000 0.0999520214
H   H17       1.0  0.85450  0.34950  0.84340  1.0000 0.1493990055
H   H18       1.0  0.14550  0.84950  0.15660  1.0000 0.1493990055
H   H19       1.0  0.83190  0.31730  0.95910  1.0000 0.1395999625
H   H20       1.0  0.16810  0.81730  0.04090  1.0000 0.1395999625
H   H21       1.0  0.85060  0.22840  0.87530  1.0000 0.1395999625
H   H22       1.0  0.14940  0.72840  0.12470  1.0000 0.1395999625
H   H23       1.0  0.00030  0.53490  0.92950  1.0000 0.1333341296
H   H24       1.0  0.99970  0.03490  0.07050  1.0000 0.1333341296
H   H25       1.0  0.71230  0.60490  0.04600  1.0000 0.1493990055
H   H26       1.0  0.28770  0.10490  0.95400  1.0000 0.1493990055
H   H27       1.0  0.00720  0.56480  0.24870  1.0000 0.1493990055
H   H28       1.0  0.99280  0.06480  0.75130  1.0000 0.1493990055
H   H29       1.0  0.63670  0.62030  0.20060  1.0000 0.0999520214
H   H30       1.0  0.36330  0.12030  0.79940  1.0000 0.0999520214
H   H31       1.0  0.67530  0.65160  0.38930  1.0000 0.1395999625
H   H32       1.0  0.32470  0.15160  0.61070  1.0000 0.1395999625
H   H33       1.0  0.57880  0.56640  0.36020  1.0000 0.1493990055
H   H34       1.0  0.42120  0.06640  0.63980  1.0000 0.1493990055
H   H35       1.0  0.70240  0.52950  0.40710  1.0000 0.1493990055
H   H36       1.0  0.29760  0.02950  0.59290  1.0000 0.1493990055
H   H37       1.0  0.63420  0.55320  0.87390  1.0000 0.0999520214
H   H38       1.0  0.36580  0.05320  0.12610  1.0000 0.0999520214
H   H39       1.0  0.67010  0.51360  0.69610  1.0000 0.1395999625
H   H40       1.0  0.32990  0.01360  0.30390  1.0000 0.1395999625
H   H41       1.0  0.57390  0.59980  0.69240  1.0000 0.1395999625
H   H42       1.0  0.42610  0.09980  0.30760  1.0000 0.1395999625
H   H43       1.0  0.69770  0.63460  0.67950  1.0000 0.1570866171
H   H44       1.0  0.30230  0.13460  0.32050  1.0000 0.1570866171
H   H45       1.0  0.82440  0.12690  0.09270  1.0000 0.3901169549
H   H46       1.0  0.17560  0.62690  0.90730  1.0000 0.3901169549
H   H47       1.0  0.88480  0.21370  0.14400  1.0000 0.3759667452
H   H48       1.0  0.11520  0.71370  0.85600  1.0000 0.3759667452
H   H49       1.0  0.77180  0.11090  0.31360  1.0000 0.333935308
H   H50       1.0  0.22820  0.61090  0.68640  1.0000 0.333935308
H   H51       1.0  0.80490  0.16310  0.41200  1.0000 0.3901169549
H   H52       1.0  0.19510  0.66310  0.58800  1.0000 0.3901169549
C   C1        1.0  0.48450  0.34020  0.49050  1.0000 0.0141574989
C   C2        1.0  0.51550  0.84020  0.50950  1.0000 0.0141574989
C   C3        1.0  0.38880  0.37420  0.53000  1.0000 -0.2491780147
C   C4        1.0  0.61120  0.87420  0.47000  1.0000 -0.2491780147
C   C5        1.0  0.38840  0.36950  0.64020  1.0000 0.2679605807
C   C6        1.0  0.61160  0.86950  0.35980  1.0000 0.2679605807
C   C7        1.0  0.48290  0.33410  0.71060  1.0000 -0.3528033469
C   C8        1.0  0.51710  0.83410  0.28940  1.0000 -0.3528033469
C   C9        1.0  0.57980  0.30440  0.66920  1.0000 0.2801972852
C   C10       1.0  0.42020  0.80440  0.33080  1.0000 0.2801972852
C   C11       1.0  0.58060  0.30280  0.55860  1.0000 -0.2491780147
C   C12       1.0  0.41940  0.80280  0.44140  1.0000 -0.2491780147
C   C13       1.0  0.48700  0.34100  0.37130  1.0000 0.6478661622
C   C14       1.0  0.51300  0.84100  0.62870  1.0000 0.6478661622
C   C15       1.0  0.27900  0.37980  0.78430  1.0000 0.0689942974
C   C16       1.0  0.72100  0.87980  0.21570  1.0000 0.0689942974
C   C17       1.0  0.35780  0.45610  0.85890  1.0000 0.6270717706
C   C18       1.0  0.64220  0.95610  0.14110  1.0000 0.6270717706
C   C19       1.0  0.15590  0.39180  0.79790  1.0000 -0.4522305739
C   C20       1.0  0.84410  0.89180  0.20210  1.0000 -0.4522305739
C   C21       1.0  0.69220  0.29570  0.84410  1.0000 0.0611348401
C   C22       1.0  0.30780  0.79570  0.15590  1.0000 0.0611348401
C   C23       1.0  0.63220  0.21490  0.90490  1.0000 0.6478661622
C   C24       1.0  0.36780  0.71490  0.09510  1.0000 0.6478661622
C   C25       1.0  0.81890  0.29790  0.88410  1.0000 -0.4522305739
C   C26       1.0  0.18110  0.79790  0.11590  1.0000 -0.4522305739
C   C27       1.0  0.02080  0.54600  0.09090  1.0000 0.0192683439
C   C28       1.0  0.97920  0.04600  0.90910  1.0000 0.0192683439
C   C29       1.0  0.96250  0.54870  0.98770  1.0000 -0.2491780147
C   C30       1.0  0.03750  0.04870  0.01230  1.0000 -0.2491780147
C   C31       1.0  0.84670  0.57200  0.97020  1.0000 0.2801972852
C   C32       1.0  0.15330  0.07200  0.02980  1.0000 0.2801972852
C   C33       1.0  0.79000  0.59070  0.05690  1.0000 -0.358924893
C   C34       1.0  0.21000  0.09070  0.94310  1.0000 -0.358924893
C   C35       1.0  0.85200  0.58790  0.16230  1.0000 0.2801972852
C   C36       1.0  0.14800  0.08790  0.83770  1.0000 0.2801972852
C   C37       1.0  0.96670  0.56610  0.17920  1.0000 -0.2365346675
C   C38       1.0  0.03330  0.06610  0.82080  1.0000 -0.2365346675
C   C39       1.0  0.14490  0.51900  0.10830  1.0000 0.564182135
C   C40       1.0  0.85510  0.01900  0.89170  1.0000 0.564182135
C   C41       1.0  0.68680  0.57310  0.24880  1.0000 0.0797052167
C   C42       1.0  0.31320  0.07310  0.75120  1.0000 0.0797052167
C   C43       1.0  0.67250  0.45800  0.20870  1.0000 0.5829265143
C   C44       1.0  0.32750  0.95800  0.79130  1.0000 0.5829265143
C   C45       1.0  0.65830  0.58080  0.36160  1.0000 -0.4522305739
C   C46       1.0  0.34170  0.08080  0.63840  1.0000 -0.4522305739
C   C47       1.0  0.68200  0.60010  0.83710  1.0000 0.0797052167
C   C48       1.0  0.31800  0.10010  0.16290  1.0000 0.0797052167
C   C49       1.0  0.66190  0.71610  0.86430  1.0000 0.5829265143
C   C50       1.0  0.33810  0.21610  0.13570  1.0000 0.5829265143
C   C51       1.0  0.65320  0.58570  0.71490  1.0000 -0.4522305739
C   C52       1.0  0.34680  0.08570  0.28510  1.0000 -0.4522305739
O   O1        1.0  0.56380  0.28570  0.33770  1.0000 -0.6919765149
O   O2        1.0  0.43620  0.78570  0.66230  1.0000 -0.6919765149
O   O3        1.0  0.41620  0.39770  0.31360  1.0000 -0.6410120998
O   O4        1.0  0.58380  0.89770  0.68640  1.0000 -0.6410120998
O   O5        1.0  0.28830  0.39810  0.67460  1.0000 -0.2085431118
O   O6        1.0  0.71170  0.89810  0.32540  1.0000 -0.2085431118
O   O7        1.0  0.37980  0.54510  0.82560  1.0000 -0.6616991435
O   O8        1.0  0.62020  0.04510  0.17440  1.0000 -0.6616991435
O   O9        1.0  0.39050  0.42110  0.95330  1.0000 -0.6616991435
O   O10       1.0  0.60950  0.92110  0.04670  1.0000 -0.6616991435
O   O11       1.0  0.67890  0.27500  0.73260  1.0000 -0.2015566428
O   O12       1.0  0.32110  0.77500  0.26740  1.0000 -0.2015566428
O   O13       1.0  0.62550  0.23730  0.00200  1.0000 -0.6919765149
O   O14       1.0  0.37450  0.73730  0.99800  1.0000 -0.6919765149
O   O15       1.0  0.59290  0.12860  0.85970  1.0000 -0.6806634341
O   O16       1.0  0.40710  0.62860  0.14030  1.0000 -0.6806634341
O   O17       1.0  0.19730  0.49660  0.20060  1.0000 -0.5976833974
O   O18       1.0  0.80270  0.99660  0.79940  1.0000 -0.5976833974
O   O19       1.0  0.19850  0.52170  0.02700  1.0000 -0.6616991435
O   O20       1.0  0.80150  0.02170  0.97300  1.0000 -0.6616991435
O   O21       1.0  0.79790  0.57030  0.86410  1.0000 -0.2085431118
O   O22       1.0  0.20210  0.07030  0.13590  1.0000 -0.2085431118
O   O23       1.0  0.74210  0.78180  0.87700  1.0000 -0.587439902
O   O24       1.0  0.25790  0.28180  0.12300  1.0000 -0.584824947
O   O25       1.0  0.56130  0.74540  0.87050  1.0000 -0.7336727057
O   O26       1.0  0.43870  0.24540  0.12950  1.0000 -0.7336727057
O   O27       1.0  0.80240  0.60570  0.25170  1.0000 -0.2015566428
O   O28       1.0  0.19760  0.10570  0.74830  1.0000 -0.2015566428
O   O29       1.0  0.74960  0.39110  0.23150  1.0000 -0.587439902
O   O30       1.0  0.25040  0.89110  0.76850  1.0000 -0.587439902
O   O31       1.0  0.57620  0.43110  0.15550  1.0000 -0.7425033127
O   O32       1.0  0.42380  0.93110  0.84450  1.0000 -0.7425033127
O   O33       1.0  0.82390  0.17670  0.13960  1.0000 -0.7881903027
O   O34       1.0  0.17610  0.67670  0.86040  1.0000 -0.7881903027
O   O35       1.0  0.76400  0.16790  0.34970  1.0000 -0.7560476635
O   O36       1.0  0.23600  0.66790  0.65030  1.0000 -0.7560476635
