# DDEC6 charges by PACMAN v1.1 (https://github.com/mtap-research/PACMAN-charge/)
data_2017[Ni][pts]3[FSR]1
_chemical_formula_sum              "Ni4 H60 C56 N4 O26"
_cell_length_a       10.07
_cell_length_b       13.107
_cell_length_c       15.216
_cell_angle_alpha    78.42
_cell_angle_beta     76.527
_cell_angle_gamma    68.204

_symmetry_space_group_name_H-M    "P 1"
_symmetry_Int_Tables_number       1

loop_
  _symmetry_equiv_pos_as_xyz
  'x, y, z'

loop_
  _atom_site_type_symbol
  _atom_site_label
  _atom_site_symmetry_multiplicity
  _atom_site_fract_x
  _atom_site_fract_y
  _atom_site_fract_z
  _atom_site_occupancy
  _atom_site_charge
Ni  Ni1       1.0  0.01571  0.57777  0.34037  1.0000 0.9259382324
Ni  Ni2       1.0  0.98429  0.42223  0.65963  1.0000 0.9259382324
Ni  Ni3       1.0  0.73771  0.80245  0.26034  1.0000 0.857535942
Ni  Ni4       1.0  0.26229  0.19755  0.73966  1.0000 0.857535942
H   H1        1.0  0.37450  0.66270  0.03290  1.0000 0.1204191302
H   H2        1.0  0.62550  0.33730  0.96710  1.0000 0.1204191302
H   H3        1.0  0.61580  0.61970  0.96800  1.0000 0.1109526498
H   H4        1.0  0.38420  0.38030  0.03200  1.0000 0.1109526498
H   H5        1.0  0.48490  0.52510  0.27510  1.0000 0.1204191302
H   H6        1.0  0.51510  0.47490  0.72490  1.0000 0.1204191302
H   H7        1.0  0.72550  0.49050  0.21240  1.0000 0.1204191302
H   H8        1.0  0.27450  0.50950  0.78760  1.0000 0.1204191302
H   H9        1.0  0.84090  0.46730  0.93210  1.0000 0.1204191302
H   H10       1.0  0.15910  0.53270  0.06790  1.0000 0.1204191302
H   H11       1.0  0.71920  0.41530  0.41350  1.0000 0.127884317
H   H12       1.0  0.28080  0.58470  0.58650  1.0000 0.127884317
H   H13       1.0  0.79430  0.22970  0.48270  1.0000 0.1204191302
H   H14       1.0  0.20570  0.77030  0.51730  1.0000 0.1204191302
H   H15       1.0  0.87330  0.05430  0.44290  1.0000 0.1204191302
H   H16       1.0  0.12670  0.94570  0.55710  1.0000 0.1204191302
H   H17       1.0  0.39510  0.27480  0.44600  1.0000 0.127884317
H   H18       1.0  0.60490  0.72520  0.55400  1.0000 0.127884317
H   H19       1.0  0.47670  0.09950  0.40390  1.0000 0.1204191302
H   H20       1.0  0.52330  0.90050  0.59610  1.0000 0.1204191302
H   H21       1.0  0.22580  0.38940  0.26180  1.0000 0.1048845188
H   H22       1.0  0.77420  0.61060  0.73820  1.0000 0.1048845188
H   H23       1.0  0.35000  0.24280  0.19170  1.0000 0.1394887963
H   H24       1.0  0.65000  0.75720  0.80830  1.0000 0.1394887963
H   H25       1.0  0.26410  0.16090  0.20550  1.0000 0.1394887963
H   H26       1.0  0.73590  0.83910  0.79450  1.0000 0.1394887963
H   H27       1.0  0.39470  0.13110  0.25660  1.0000 0.1394887963
H   H28       1.0  0.60530  0.86890  0.74340  1.0000 0.1394887963
H   H29       1.0  0.14310  0.20530  0.44060  1.0000 0.1465104432
H   H30       1.0  0.85690  0.79470  0.55940  1.0000 0.1465104432
H   H31       1.0  0.21270  0.10360  0.38530  1.0000 0.127884317
H   H32       1.0  0.78730  0.89640  0.61470  1.0000 0.127884317
H   H33       1.0  0.05770  0.18810  0.37400  1.0000 0.1394887963
H   H34       1.0  0.94230  0.81190  0.62600  1.0000 0.1394887963
H   H35       1.0  0.43020  0.85240  0.32840  1.0000 0.1109526498
H   H36       1.0  0.56980  0.14760  0.67160  1.0000 0.1109526498
H   H37       1.0  0.37550  0.93980  0.10970  1.0000 0.1394887963
H   H38       1.0  0.62450  0.06020  0.89030  1.0000 0.1394887963
H   H39       1.0  0.20590  0.97390  0.13400  1.0000 0.1394887963
H   H40       1.0  0.79410  0.02610  0.86600  1.0000 0.1394887963
H   H41       1.0  0.30160  0.85010  0.12330  1.0000 0.1394887963
H   H42       1.0  0.69840  0.14990  0.87670  1.0000 0.1394887963
H   H43       1.0  0.16390  0.82440  0.31230  1.0000 0.1465104432
H   H44       1.0  0.83610  0.17560  0.68770  1.0000 0.1465104432
H   H45       1.0  0.09120  0.95100  0.28100  1.0000 0.1394887963
H   H46       1.0  0.90880  0.04900  0.71900  1.0000 0.1394887963
H   H47       1.0  0.17940  0.91290  0.36120  1.0000 0.1204191302
H   H48       1.0  0.82060  0.08710  0.63880  1.0000 0.1204191302
H   H49       1.0  0.14190  0.57160  0.47770  1.0000 0.3519941182
H   H50       1.0  0.85810  0.42840  0.52230  1.0000 0.3519941182
H   H51       1.0  0.99510  0.62770  0.49450  1.0000 0.3519941182
H   H52       1.0  0.00490  0.37230  0.50550  1.0000 0.3519941182
H   H53       1.0  0.01360  0.74450  0.25970  1.0000 0.3413396464
H   H54       1.0  0.98640  0.25550  0.74030  1.0000 0.3413396464
H   H55       1.0  0.92900  0.77550  0.34130  1.0000 0.3236340718
H   H56       1.0  0.07100  0.22450  0.65870  1.0000 0.3236340718
H   H57       1.0  0.73070  0.90530  0.16730  1.0000 0.2823290364
H   H58       1.0  0.26930  0.09470  0.83270  1.0000 0.2823290364
H   H59       1.0  0.82820  0.91820  0.21010  1.0000 0.3071241067
H   H60       1.0  0.17180  0.08180  0.78990  1.0000 0.3071241067
C   C1        1.0  0.24800  0.62920  0.20360  1.0000 0.5503241406
C   C2        1.0  0.75200  0.37080  0.79640  1.0000 0.5503241406
C   C3        1.0  0.40480  0.59990  0.16120  1.0000 -0.0294587752
C   C4        1.0  0.59520  0.40010  0.83880  1.0000 -0.0294587752
C   C5        1.0  0.44530  0.62710  0.06920  1.0000 -0.1100789453
C   C6        1.0  0.55470  0.37290  0.93080  1.0000 -0.1100789453
C   C7        1.0  0.59020  0.60210  0.03050  1.0000 -0.145729126
C   C8        1.0  0.40980  0.39790  0.96950  1.0000 -0.145729126
C   C9        1.0  0.51090  0.54650  0.21340  1.0000 -0.0963849812
C   C10       1.0  0.48910  0.45350  0.78660  1.0000 -0.0963849812
C   C11       1.0  0.65510  0.52430  0.17550  1.0000 -0.1287744692
C   C12       1.0  0.34490  0.47570  0.82450  1.0000 -0.1287744692
C   C13       1.0  0.69700  0.55180  0.08236  1.0000 0.0861275816
C   C14       1.0  0.30300  0.44820  0.91764  1.0000 0.0861275816
C   C15       1.0  0.85240  0.52770  0.04055  1.0000 0.0483946265
C   C16       1.0  0.14760  0.47230  0.95945  1.0000 0.0483946265
C   C17       1.0  0.90490  0.48070  0.95986  1.0000 -0.1576002776
C   C18       1.0  0.09510  0.51930  0.04014  1.0000 -0.1576002776
C   C19       1.0  0.95030  0.54670  0.08057  1.0000 -0.0508193034
C   C20       1.0  0.04970  0.45330  0.91943  1.0000 -0.0508193034
C   C21       1.0  0.90650  0.60010  0.16613  1.0000 0.5853949622
C   C22       1.0  0.09350  0.39990  0.83387  1.0000 0.5853949622
C   C23       1.0  0.69710  0.61730  0.40770  1.0000 0.5754205421
C   C24       1.0  0.30290  0.38270  0.59230  1.0000 0.5754205421
C   C25       1.0  0.59370  0.55940  0.45945  1.0000 -0.0508193034
C   C26       1.0  0.40630  0.44060  0.54055  1.0000 -0.0508193034
C   C27       1.0  0.63000  0.44970  0.44842  1.0000 -0.1762604876
C   C28       1.0  0.37000  0.55030  0.55158  1.0000 -0.1762604876
C   C29       1.0  0.53940  0.38840  0.48709  1.0000 0.056225956
C   C30       1.0  0.46060  0.61160  0.51291  1.0000 0.056225956
C   C31       1.0  0.58560  0.27240  0.46698  1.0000 0.0775051774
C   C32       1.0  0.41440  0.72760  0.53302  1.0000 0.0775051774
C   C33       1.0  0.72970  0.20410  0.46650  1.0000 -0.1576002776
C   C34       1.0  0.27030  0.79590  0.53350  1.0000 -0.1576002776
C   C35       1.0  0.77700  0.09920  0.44240  1.0000 -0.1100789453
C   C36       1.0  0.22300  0.90080  0.55760  1.0000 -0.1100789453
C   C37       1.0  0.49230  0.23120  0.44440  1.0000 -0.1287744692
C   C38       1.0  0.50770  0.76880  0.55560  1.0000 -0.1287744692
C   C39       1.0  0.54100  0.12590  0.41950  1.0000 -0.0949895098
C   C40       1.0  0.45900  0.87410  0.58050  1.0000 -0.0963849812
C   C41       1.0  0.68480  0.05970  0.41750  1.0000 -0.0294587752
C   C42       1.0  0.31520  0.94030  0.58250  1.0000 -0.0294587752
C   C43       1.0  0.74180  0.94840  0.38340  1.0000 0.5503241406
C   C44       1.0  0.25820  0.05160  0.61660  1.0000 0.5503241406
C   C45       1.0  0.18390  0.35090  0.31170  1.0000 0.2975031273
C   C46       1.0  0.81610  0.64910  0.68830  1.0000 0.2975031273
C   C47       1.0  0.31450  0.19030  0.23470  1.0000 -0.3384292959
C   C48       1.0  0.68550  0.80970  0.76530  1.0000 -0.3384292959
C   C49       1.0  0.15210  0.18010  0.38370  1.0000 -0.3268878921
C   C50       1.0  0.84790  0.81990  0.61630  1.0000 -0.3268878921
C   C51       1.0  0.42880  0.86910  0.26620  1.0000 0.2717504338
C   C52       1.0  0.57120  0.13090  0.73380  1.0000 0.2717504338
C   C53       1.0  0.29620  0.91660  0.14360  1.0000 -0.3186010285
C   C54       1.0  0.70380  0.08340  0.85640  1.0000 -0.3186010285
C   C55       1.0  0.17380  0.89600  0.30390  1.0000 -0.3384292959
C   C56       1.0  0.82620  0.10400  0.69610  1.0000 -0.3384292959
N   N1        1.0  0.21580  0.24480  0.31090  1.0000 0.0314844423
N   N2        1.0  0.78420  0.75520  0.68910  1.0000 0.0314844423
N   N3        1.0  0.30490  0.89490  0.23960  1.0000 0.0156627507
N   N4        1.0  0.69510  0.10510  0.76040  1.0000 0.0156627507
O   O1        1.0  0.15840  0.71055  0.16631  1.0000 -0.5110421045
O   O2        1.0  0.84160  0.28945  0.83369  1.0000 -0.5110421045
O   O3        1.0  0.21800  0.56941  0.27525  1.0000 -0.5668948754
O   O4        1.0  0.78200  0.43059  0.72475  1.0000 -0.5668948754
O   O5        1.0  0.81250  0.69541  0.16506  1.0000 -0.5110421045
O   O6        1.0  0.18750  0.30459  0.83494  1.0000 -0.5110421045
O   O7        1.0  0.97070  0.54418  0.22986  1.0000 -0.5597142144
O   O8        1.0  0.02930  0.45582  0.77014  1.0000 -0.5597142144
O   O9        1.0  0.82650  0.56983  0.41990  1.0000 -0.5509808525
O   O10       1.0  0.17350  0.43017  0.58010  1.0000 -0.5509808525
O   O11       1.0  0.64990  0.70293  0.35602  1.0000 -0.5234373971
O   O12       1.0  0.35010  0.29707  0.64398  1.0000 -0.5234373971
O   O13       1.0  0.86690  0.88792  0.39769  1.0000 -0.5396683379
O   O14       1.0  0.13310  0.11208  0.60231  1.0000 -0.5396683379
O   O15       1.0  0.66420  0.92624  0.34258  1.0000 -0.5509808525
O   O16       1.0  0.33580  0.07376  0.65742  1.0000 -0.5509808525
O   O17       1.0  0.10220  0.40384  0.37404  1.0000 -0.4504440292
O   O18       1.0  0.89780  0.59616  0.62596  1.0000 -0.4504440292
O   O19       1.0  0.54430  0.86522  0.21441  1.0000 -0.4334898158
O   O20       1.0  0.45570  0.13478  0.78559  1.0000 -0.4334898158
O   O21       1.0  0.06830  0.60826  0.45249  1.0000 -0.6706841751
O   O22       1.0  0.93170  0.39174  0.54751  1.0000 -0.6706841751
O   O23       1.0  0.93637  0.74297  0.29644  1.0000 -0.6789701148
O   O24       1.0  0.06363  0.25703  0.70356  1.0000 -0.6789701148
O   O25       1.0  0.81120  0.91610  0.15849  1.0000 -0.6335124536
O   O26       1.0  0.18880  0.08390  0.84151  1.0000 -0.6335124536
