# DDEC6 charges by PACMAN v1.1 (https://github.com/mtap-research/PACMAN-charge/)
data_2017[Gd][mog]3[FSR]2
_chemical_formula_sum              "Gd2 H20 C14 O22"
_cell_length_a       6.1139
_cell_length_b       8.7718
_cell_length_c       13.1543
_cell_angle_alpha    101.048
_cell_angle_beta     101.805
_cell_angle_gamma    96.546

_symmetry_space_group_name_H-M    "P 1"
_symmetry_Int_Tables_number       1

loop_
  _symmetry_equiv_pos_as_xyz
  'x, y, z'

loop_
  _atom_site_type_symbol
  _atom_site_label
  _atom_site_symmetry_multiplicity
  _atom_site_fract_x
  _atom_site_fract_y
  _atom_site_fract_z
  _atom_site_occupancy
  _atom_site_charge
Gd  Gd1       1.0  0.74716  0.21931  0.72457  1.0000 1.9636703399
Gd  Gd2       1.0  0.25284  0.78069  0.27543  1.0000 1.9636703399
H   H1        1.0  0.68300  0.33000  0.95100  1.0000 0.362850633
H   H2        1.0  0.31700  0.67000  0.04900  1.0000 0.362850633
H   H3        1.0  0.17300  0.50900  0.79100  1.0000 0.3847610024
H   H4        1.0  0.82700  0.49100  0.20900  1.0000 0.3847610024
H   H5        1.0  0.67400  0.93600  0.82500  1.0000 0.3703185586
H   H6        1.0  0.32600  0.06400  0.17500  1.0000 0.3703185586
H   H7        1.0  0.45960  0.24640  0.06510  1.0000 0.3418329326
H   H8        1.0  0.54040  0.75360  0.93490  1.0000 0.3418329326
H   H9        1.0  0.94080  0.18710  0.54980  1.0000 0.3919386534
H   H10       1.0  0.05920  0.81290  0.45020  1.0000 0.3919386534
H   H11       1.0  0.12650  0.23680  0.63980  1.0000 0.3919386534
H   H12       1.0  0.87350  0.76320  0.36020  1.0000 0.3919386534
H   H13       1.0  0.33550  0.89630  0.82030  1.0000 0.1071210769
H   H14       1.0  0.66450  0.10370  0.17970  1.0000 0.1071210769
H   H15       1.0  0.26240  0.02390  0.98300  1.0000 0.0911100028
H   H16       1.0  0.73760  0.97610  0.01700  1.0000 0.0911100028
H   H17       1.0  0.80060  0.57720  0.99370  1.0000 0.0911100028
H   H18       1.0  0.19940  0.42280  0.00630  1.0000 0.0911100028
H   H19       1.0  0.06600  0.67400  0.89470  1.0000 0.0956259636
H   H20       1.0  0.93400  0.32600  0.10530  1.0000 0.0956259636
C   C1        1.0  0.40840  0.00830  0.85050  1.0000 -0.0228698118
C   C2        1.0  0.59160  0.99170  0.14950  1.0000 -0.0228698118
C   C3        1.0  0.26780  0.11520  0.79400  1.0000 0.6282221941
C   C4        1.0  0.73220  0.88480  0.20600  1.0000 0.6282221941
C   C5        1.0  0.41720  0.04790  0.97040  1.0000 0.0796083906
C   C6        1.0  0.58280  0.95210  0.02960  1.0000 0.0796083906
C   C7        1.0  0.89550  0.50790  0.95870  1.0000 0.0796083906
C   C8        1.0  0.10450  0.49210  0.04130  1.0000 0.0796083906
C   C9        1.0  0.55030  0.92860  0.51770  1.0000 0.4893692104
C   C10       1.0  0.44970  0.07140  0.48230  1.0000 0.4893692104
C   C11       1.0  0.74360  0.59130  0.79160  1.0000 0.5912457374
C   C12       1.0  0.25640  0.40870  0.20840  1.0000 0.5912457374
C   C13       1.0  0.96070  0.57170  0.86740  1.0000 -0.0303362584
C   C14       1.0  0.03930  0.42830  0.13260  1.0000 -0.0303362584
O   O1        1.0  0.50170  0.80020  0.45150  1.0000 -0.551453087
O   O2        1.0  0.49830  0.19980  0.54850  1.0000 -0.551453087
O   O3        1.0  0.06500  0.10660  0.80050  1.0000 -0.6223919722
O   O4        1.0  0.93500  0.89340  0.19950  1.0000 -0.6223919722
O   O5        1.0  0.76690  0.35690  0.90970  1.0000 -0.5419340166
O   O6        1.0  0.23310  0.64310  0.09030  1.0000 -0.5419340166
O   O7        1.0  0.06730  0.45510  0.81370  1.0000 -0.5077913138
O   O8        1.0  0.93270  0.54490  0.18630  1.0000 -0.5077913138
O   O9        1.0  0.65950  0.47920  0.71240  1.0000 -0.5868610474
O   O10       1.0  0.34050  0.52080  0.28760  1.0000 -0.5868610474
O   O11       1.0  0.63020  0.02900  0.82930  1.0000 -0.5419340166
O   O12       1.0  0.36980  0.97100  0.17070  1.0000 -0.5419340166
O   O13       1.0  0.50530  0.21270  0.01030  1.0000 -0.4918083432
O   O14       1.0  0.49470  0.78730  0.98970  1.0000 -0.4918083432
O   O15       1.0  0.65830  0.71380  0.81540  1.0000 -0.5647329124
O   O16       1.0  0.34170  0.28620  0.18460  1.0000 -0.5647329124
O   O17       1.0  0.36390  0.20070  0.74420  1.0000 -0.6279861661
O   O18       1.0  0.63610  0.79930  0.25580  1.0000 -0.6279861661
O   O19       1.0  0.99270  0.25350  0.61070  1.0000 -0.7715606423
O   O20       1.0  0.00730  0.74650  0.38930  1.0000 -0.7715606423
O   O21       1.0  0.67800  0.95860  0.60990  1.0000 -0.5986721547
O   O22       1.0  0.32200  0.04140  0.39010  1.0000 -0.5986721547
