# DDEC6 charges by PACMAN v1.1 (https://github.com/mtap-research/PACMAN-charge/)
data_2017[Ag][hcb]2[FSR]16
_chemical_formula_sum              "Ag6 H126 C168 S6 N18 O54 F18"
_cell_length_a       16.6573
_cell_length_b       17.6031
_cell_length_c       19.911
_cell_angle_alpha    95.464
_cell_angle_beta     94.201
_cell_angle_gamma    117.238

_symmetry_space_group_name_H-M    "P 1"
_symmetry_Int_Tables_number       1

loop_
  _symmetry_equiv_pos_as_xyz
  'x, y, z'

loop_
  _atom_site_type_symbol
  _atom_site_label
  _atom_site_symmetry_multiplicity
  _atom_site_fract_x
  _atom_site_fract_y
  _atom_site_fract_z
  _atom_site_occupancy
  _atom_site_charge
Ag  Ag1       1.0  0.76889  0.64725  0.72173  1.0000 0.2975560802
Ag  Ag2       1.0  0.18908  0.66281  0.93977  1.0000 0.3123508769
Ag  Ag3       1.0  0.78600  0.00653  0.36060  1.0000 0.2923570353
Ag  Ag4       1.0  0.23111  0.35275  0.27827  1.0000 0.2975560802
Ag  Ag5       1.0  0.81092  0.33719  0.06023  1.0000 0.3123508769
Ag  Ag6       1.0  0.21400  0.99347  0.63940  1.0000 0.2923570353
H   H1        1.0  0.66160  0.75200  0.70450  1.0000 0.1111402416
H   H2        1.0  0.67650  0.88810  0.70350  1.0000 0.1389946034
H   H3        1.0  0.94740  0.98360  0.75480  1.0000 0.1389946034
H   H4        1.0  0.92290  0.84430  0.75810  1.0000 0.1111402416
H   H5        1.0  0.89910  0.19480  0.69750  1.0000 0.1027832309
H   H6        1.0  0.90370  0.20370  0.77880  1.0000 0.1195946036
H   H7        1.0  0.82450  0.49490  0.72430  1.0000 0.1111402416
H   H8        1.0  0.94840  0.47000  0.73840  1.0000 0.1310542169
H   H9        1.0  0.11170  0.72780  0.76290  1.0000 0.1310542169
H   H10       1.0  0.98300  0.74660  0.75020  1.0000 0.1111402416
H   H11       1.0  0.22130  0.50500  0.71570  1.0000 0.1195946036
H   H12       1.0  0.22800  0.51840  0.79730  1.0000 0.1111402416
H   H13       1.0  0.59970  0.50770  0.62050  1.0000 0.1195946036
H   H14       1.0  0.45610  0.39180  0.61590  1.0000 0.1310542169
H   H15       1.0  0.49990  0.40850  0.81920  1.0000 0.1389946034
H   H16       1.0  0.64140  0.52610  0.81910  1.0000 0.1111402416
H   H17       1.0  0.23660  0.18680  0.74500  1.0000 0.1111402416
H   H18       1.0  0.24770  0.21930  0.82460  1.0000 0.1195946036
H   H19       1.0  0.01690  0.35370  0.73590  1.0000 0.1195946036
H   H20       1.0  0.27760  0.39920  0.76960  1.0000 0.1195946036
H   H21       1.0  0.07330  0.15650  0.75710  1.0000 0.1310542169
H   H22       1.0  0.24830  0.81010  0.84110  1.0000 0.1027832309
H   H23       1.0  0.37550  0.93280  0.81920  1.0000 0.1389946034
H   H24       1.0  0.52150  0.91240  0.98120  1.0000 0.1310542169
H   H25       1.0  0.38650  0.79830  0.00520  1.0000 0.1195946036
H   H26       1.0  0.69940  0.08110  0.84320  1.0000 0.1195946036
H   H27       1.0  0.72940  0.12810  0.92060  1.0000 0.1111402416
H   H28       1.0  0.96920  0.55990  0.91490  1.0000 0.1111402416
H   H29       1.0  0.84130  0.57810  0.89980  1.0000 0.1389946034
H   H30       1.0  0.00560  0.83660  0.92310  1.0000 0.1310542169
H   H31       1.0  0.12920  0.80990  0.94210  1.0000 0.1027832309
H   H32       1.0  0.72780  0.79130  0.87170  1.0000 0.1111402416
H   H33       1.0  0.74310  0.80880  0.95330  1.0000 0.1195946036
H   H34       1.0  0.04030  0.46970  0.90150  1.0000 0.1111402416
H   H35       1.0  0.01410  0.32940  0.90180  1.0000 0.1389946034
H   H36       1.0  0.28340  0.42050  0.95830  1.0000 0.1389946034
H   H37       1.0  0.30140  0.55770  0.95940  1.0000 0.1195946036
H   H38       1.0  0.05330  0.10440  0.87800  1.0000 0.1111402416
H   H39       1.0  0.06120  0.11770  0.95950  1.0000 0.1027832309
H   H40       1.0  0.68250  0.91240  0.90010  1.0000 0.1310542169
H   H41       1.0  0.94400  0.95620  0.91950  1.0000 0.1195946036
H   H42       1.0  0.88530  0.15330  0.90380  1.0000 0.1389946034
H   H43       1.0  0.59770  0.88330  0.26920  1.0000 0.1195946036
H   H44       1.0  0.45650  0.77000  0.27210  1.0000 0.1389946034
H   H45       1.0  0.52580  0.77970  0.47220  1.0000 0.1389946034
H   H46       1.0  0.66730  0.89350  0.46280  1.0000 0.1111402416
H   H47       1.0  0.25730  0.55760  0.40820  1.0000 0.1111402416
H   H48       1.0  0.27640  0.58780  0.48870  1.0000 0.1195946036
H   H49       1.0  0.84000  0.85970  0.38870  1.0000 0.1111402416
H   H50       1.0  0.96220  0.83560  0.41670  1.0000 0.1310542169
H   H51       1.0  0.12640  0.09190  0.42760  1.0000 0.1389946034
H   H52       1.0  0.99870  0.10730  0.39690  1.0000 0.1111402416
H   H53       1.0  0.24070  0.87790  0.40780  1.0000 0.1195946036
H   H54       1.0  0.23810  0.88340  0.48850  1.0000 0.1111402416
H   H55       1.0  0.68190  0.11590  0.34530  1.0000 0.1111402416
H   H56       1.0  0.69740  0.25350  0.36010  1.0000 0.1389946034
H   H57       1.0  0.96720  0.34400  0.41720  1.0000 0.1310542169
H   H58       1.0  0.94180  0.20200  0.40460  1.0000 0.1111402416
H   H59       1.0  0.91700  0.56170  0.38050  1.0000 0.1027832309
H   H60       1.0  0.92520  0.56110  0.46120  1.0000 0.1195946036
H   H61       1.0  0.29580  0.76850  0.44830  1.0000 0.1195946036
H   H62       1.0  0.03210  0.71750  0.42400  1.0000 0.1195946036
H   H63       1.0  0.09670  0.52330  0.42870  1.0000 0.1310542169
H   H64       1.0  0.33840  0.24800  0.29550  1.0000 0.1111402416
H   H65       1.0  0.32350  0.11190  0.29650  1.0000 0.1389946034
H   H66       1.0  0.05260  0.01640  0.24520  1.0000 0.1389946034
H   H67       1.0  0.07710  0.15570  0.24190  1.0000 0.1111402416
H   H68       1.0  0.10090  0.80520  0.30250  1.0000 0.1027832309
H   H69       1.0  0.09630  0.79630  0.22120  1.0000 0.1195946036
H   H70       1.0  0.17550  0.50510  0.27570  1.0000 0.1111402416
H   H71       1.0  0.05160  0.53000  0.26160  1.0000 0.1310542169
H   H72       1.0  0.88830  0.27220  0.23710  1.0000 0.1310542169
H   H73       1.0  0.01700  0.25340  0.24980  1.0000 0.1111402416
H   H74       1.0  0.77870  0.49500  0.28430  1.0000 0.1195946036
H   H75       1.0  0.77200  0.48160  0.20270  1.0000 0.1111402416
H   H76       1.0  0.40030  0.49230  0.37950  1.0000 0.1195946036
H   H77       1.0  0.54390  0.60820  0.38410  1.0000 0.1310542169
H   H78       1.0  0.50010  0.59150  0.18080  1.0000 0.1389946034
H   H79       1.0  0.35860  0.47390  0.18090  1.0000 0.1111402416
H   H80       1.0  0.76340  0.81320  0.25500  1.0000 0.1111402416
H   H81       1.0  0.75230  0.78070  0.17540  1.0000 0.1195946036
H   H82       1.0  0.98310  0.64630  0.26410  1.0000 0.1195946036
H   H83       1.0  0.72240  0.60080  0.23040  1.0000 0.1195946036
H   H84       1.0  0.92670  0.84350  0.24290  1.0000 0.1310542169
H   H85       1.0  0.75170  0.18990  0.15890  1.0000 0.1027832309
H   H86       1.0  0.62450  0.06720  0.18080  1.0000 0.1389946034
H   H87       1.0  0.47850  0.08760  0.01880  1.0000 0.1310542169
H   H88       1.0  0.61350  0.20170  0.99480  1.0000 0.1195946036
H   H89       1.0  0.30060  0.91890  0.15680  1.0000 0.1195946036
H   H90       1.0  0.27060  0.87190  0.07940  1.0000 0.1111402416
H   H91       1.0  0.03080  0.44010  0.08510  1.0000 0.1111402416
H   H92       1.0  0.15870  0.42190  0.10020  1.0000 0.1389946034
H   H93       1.0  0.99440  0.16340  0.07690  1.0000 0.1310542169
H   H94       1.0  0.87080  0.19010  0.05790  1.0000 0.1027832309
H   H95       1.0  0.27220  0.20870  0.12830  1.0000 0.1111402416
H   H96       1.0  0.25690  0.19120  0.04670  1.0000 0.1195946036
H   H97       1.0  0.95970  0.53030  0.09850  1.0000 0.1111402416
H   H98       1.0  0.98590  0.67060  0.09820  1.0000 0.1389946034
H   H99       1.0  0.71660  0.57950  0.04170  1.0000 0.1389946034
H   H100      1.0  0.69860  0.44230  0.04060  1.0000 0.1195946036
H   H101      1.0  0.94670  0.89560  0.12200  1.0000 0.1111402416
H   H102      1.0  0.93880  0.88230  0.04050  1.0000 0.1027832309
H   H103      1.0  0.31750  0.08760  0.09990  1.0000 0.1310542169
H   H104      1.0  0.05600  0.04380  0.08050  1.0000 0.1195946036
H   H105      1.0  0.11470  0.84670  0.09620  1.0000 0.1389946034
H   H106      1.0  0.40230  0.11670  0.73080  1.0000 0.1195946036
H   H107      1.0  0.54350  0.23000  0.72790  1.0000 0.1389946034
H   H108      1.0  0.47420  0.22030  0.52780  1.0000 0.1389946034
H   H109      1.0  0.33270  0.10650  0.53720  1.0000 0.1111402416
H   H110      1.0  0.74270  0.44240  0.59180  1.0000 0.1111402416
H   H111      1.0  0.72360  0.41220  0.51130  1.0000 0.1195946036
H   H112      1.0  0.16000  0.14030  0.61130  1.0000 0.1111402416
H   H113      1.0  0.03780  0.16440  0.58330  1.0000 0.1310542169
H   H114      1.0  0.87360  0.90810  0.57240  1.0000 0.1389946034
H   H115      1.0  0.00130  0.89270  0.60310  1.0000 0.1111402416
H   H116      1.0  0.75930  0.12210  0.59220  1.0000 0.1195946036
H   H117      1.0  0.76190  0.11660  0.51150  1.0000 0.1111402416
H   H118      1.0  0.31810  0.88410  0.65470  1.0000 0.1111402416
H   H119      1.0  0.30260  0.74650  0.63990  1.0000 0.1389946034
H   H120      1.0  0.03280  0.65600  0.58280  1.0000 0.1310542169
H   H121      1.0  0.05820  0.79800  0.59540  1.0000 0.1111402416
H   H122      1.0  0.08300  0.43830  0.61950  1.0000 0.1027832309
H   H123      1.0  0.07480  0.43890  0.53880  1.0000 0.1195946036
H   H124      1.0  0.70420  0.23150  0.55170  1.0000 0.1195946036
H   H125      1.0  0.96790  0.28250  0.57600  1.0000 0.1195946036
H   H126      1.0  0.90330  0.47670  0.57130  1.0000 0.1310542169
C   C1        1.0  0.72050  0.80010  0.71630  1.0000 0.0677846611
C   C2        1.0  0.72860  0.88070  0.71470  1.0000 -0.1499006522
C   C3        1.0  0.81520  0.95210  0.72960  1.0000 0.0027574273
C   C4        1.0  0.88730  0.93700  0.74520  1.0000 -0.138966616
C   C5        1.0  0.87210  0.85370  0.74680  1.0000 0.0623529979
C   C6        1.0  0.82480  0.04000  0.72780  1.0000 0.4909549646
C   C7        1.0  0.92900  0.18780  0.73960  1.0000 -0.0732741502
C   C8        1.0  0.88390  0.54290  0.73280  1.0000 0.0790850676
C   C9        1.0  0.95700  0.52750  0.74090  1.0000 -0.1606534181
C   C10       1.0  0.04360  0.59660  0.75270  1.0000 0.0027574273
C   C11       1.0  0.05290  0.67910  0.75550  1.0000 -0.1499006522
C   C12       1.0  0.97620  0.68980  0.74760  1.0000 0.0790850676
C   C13       1.0  0.12790  0.58550  0.76070  1.0000 0.4909549646
C   C14       1.0  0.18680  0.48620  0.75460  1.0000 -0.0855214668
C   C15       1.0  0.57850  0.48810  0.66180  1.0000 0.0790850676
C   C16       1.0  0.49310  0.41870  0.65840  1.0000 -0.1499006522
C   C17       1.0  0.46230  0.38880  0.71780  1.0000 -0.0033126459
C   C18       1.0  0.51860  0.42870  0.77760  1.0000 -0.1499006522
C   C19       1.0  0.60300  0.49870  0.77710  1.0000 0.0790850676
C   C20       1.0  0.36880  0.31480  0.71420  1.0000 0.4968569654
C   C21       1.0  0.25260  0.23790  0.77910  1.0000 -0.0732741502
C   C22       1.0  0.02940  0.24530  0.74660  1.0000 0.1111402416
C   C23       1.0  0.06010  0.33350  0.74440  1.0000 -0.2185846043
C   C24       1.0  0.15200  0.39170  0.75420  1.0000 0.1111402416
C   C25       1.0  0.21430  0.36000  0.76380  1.0000 -0.2185846043
C   C26       1.0  0.18640  0.27300  0.76520  1.0000 0.1111402416
C   C27       1.0  0.09330  0.21630  0.75640  1.0000 -0.2085204971
C   C28       1.0  0.78240  0.66360  0.47660  1.0000 0.4909549646
C   C29       1.0  0.30410  0.83170  0.87030  1.0000 0.0790850676
C   C30       1.0  0.37990  0.90300  0.85550  1.0000 -0.138966616
C   C31       1.0  0.46160  0.92890  0.89540  1.0000 0.0027574273
C   C32       1.0  0.46600  0.89220  0.95200  1.0000 -0.1499006522
C   C33       1.0  0.38520  0.82350  0.96530  1.0000 0.0927569049
C   C34       1.0  0.54660  0.00200  0.87700  1.0000 0.5131399113
C   C35       1.0  0.70660  0.07200  0.89110  1.0000 -0.0732741502
C   C36       1.0  0.97650  0.61690  0.91690  1.0000 0.0623529979
C   C37       1.0  0.90000  0.62700  0.90760  1.0000 -0.1499006522
C   C38       1.0  0.90940  0.70980  0.90980  1.0000 -0.0033126459
C   C39       1.0  0.99630  0.77900  0.92190  1.0000 -0.1606534181
C   C40       1.0  0.06990  0.76210  0.93210  1.0000 0.0927569049
C   C41       1.0  0.82640  0.72210  0.90260  1.0000 0.4909549646
C   C42       1.0  0.77320  0.82480  0.91210  1.0000 -0.0732741502
C   C43       1.0  0.09030  0.45930  0.91380  1.0000 0.0790850676
C   C44       1.0  0.07420  0.37560  0.91320  1.0000 -0.138966616
C   C45       1.0  0.14540  0.35920  0.92920  1.0000 -0.0033126459
C   C46       1.0  0.23220  0.42930  0.94680  1.0000 -0.1499006522
C   C47       1.0  0.24210  0.51030  0.94710  1.0000 0.0623529979
C   C48       1.0  0.13450  0.27010  0.92880  1.0000 0.4909549646
C   C49       1.0  0.02960  0.12250  0.91730  1.0000 -0.0732741502
C   C50       1.0  0.77320  0.03620  0.90090  1.0000 0.1111402416
C   C51       1.0  0.74570  0.95110  0.90330  1.0000 -0.2085204971
C   C52       1.0  0.80850  0.91960  0.91030  1.0000 0.1027832309
C   C53       1.0  0.90030  0.97660  0.91490  1.0000 -0.2185846043
C   C54       1.0  0.92850  0.06440  0.91290  1.0000 0.1027832309
C   C55       1.0  0.86590  0.09380  0.90560  1.0000 -0.2006396223
C   C56       1.0  0.24230  0.67860  0.17680  1.0000 0.4134137112
C   C57       1.0  0.58290  0.86180  0.31100  1.0000 0.0790850676
C   C58       1.0  0.49900  0.79450  0.31240  1.0000 -0.1499006522
C   C59       1.0  0.47570  0.76190  0.37280  1.0000 -0.0033126459
C   C60       1.0  0.53900  0.79960  0.42960  1.0000 -0.1606534181
C   C61       1.0  0.62330  0.86780  0.42350  1.0000 0.0790850676
C   C62       1.0  0.38290  0.68770  0.37360  1.0000 0.4968569654
C   C63       1.0  0.27560  0.60770  0.44390  1.0000 -0.0732741502
C   C64       1.0  0.89930  0.90770  0.39670  1.0000 0.0790850676
C   C65       1.0  0.97140  0.89230  0.41290  1.0000 -0.1681371887
C   C66       1.0  0.05820  0.96210  0.42370  1.0000 0.0112826473
C   C67       1.0  0.06800  0.04270  0.41910  1.0000 -0.138966616
C   C68       1.0  0.99130  0.05140  0.40180  1.0000 0.0677846611
C   C69       1.0  0.14240  0.95200  0.43880  1.0000 0.4968569654
C   C70       1.0  0.20160  0.85430  0.44350  1.0000 -0.0855214668
C   C71       1.0  0.74040  0.16310  0.36130  1.0000 0.0677846611
C   C72       1.0  0.74880  0.24440  0.36920  1.0000 -0.1499006522
C   C73       1.0  0.83500  0.31370  0.39090  1.0000 0.0027574273
C   C74       1.0  0.90750  0.29780  0.40330  1.0000 -0.138966616
C   C75       1.0  0.89170  0.21310  0.39520  1.0000 0.0790850676
C   C76       1.0  0.84530  0.40350  0.39840  1.0000 0.4909549646
C   C77       1.0  0.94900  0.55050  0.41920  1.0000 -0.0732741502
C   C78       1.0  0.20640  0.64130  0.43780  1.0000 0.1111402416
C   C79       1.0  0.23280  0.72840  0.44230  1.0000 -0.2185846043
C   C80       1.0  0.16880  0.75880  0.43810  1.0000 0.1111402416
C   C81       1.0  0.07690  0.69850  0.42850  1.0000 -0.2185846043
C   C82       1.0  0.04960  0.61040  0.42540  1.0000 0.1111402416
C   C83       1.0  0.11500  0.58310  0.43040  1.0000 -0.2006396223
C   C84       1.0  0.79610  0.98320  0.10980  1.0000 0.4909549646
C   C85       1.0  0.27950  0.19990  0.28370  1.0000 0.0677846611
C   C86       1.0  0.27140  0.11930  0.28530  1.0000 -0.1499006522
C   C87       1.0  0.18480  0.04790  0.27040  1.0000 0.0027574273
C   C88       1.0  0.11270  0.06300  0.25480  1.0000 -0.138966616
C   C89       1.0  0.12790  0.14630  0.25320  1.0000 0.0623529979
C   C90       1.0  0.17520  0.96000  0.27220  1.0000 0.4909549646
C   C91       1.0  0.07100  0.81220  0.26040  1.0000 -0.0801501346
C   C92       1.0  0.11610  0.45710  0.26720  1.0000 0.0790850676
C   C93       1.0  0.04300  0.47250  0.25910  1.0000 -0.1606534181
C   C94       1.0  0.95640  0.40340  0.24730  1.0000 0.0027574273
C   C95       1.0  0.94710  0.32090  0.24450  1.0000 -0.1499006522
C   C96       1.0  0.02380  0.31020  0.25240  1.0000 0.0790850676
C   C97       1.0  0.87210  0.41450  0.23930  1.0000 0.4909549646
C   C98       1.0  0.81320  0.51380  0.24540  1.0000 -0.0855214668
C   C99       1.0  0.42150  0.51190  0.33820  1.0000 0.0790850676
C   C100      1.0  0.50690  0.58130  0.34160  1.0000 -0.1499006522
C   C101      1.0  0.53770  0.61120  0.28220  1.0000 -0.0033126459
C   C102      1.0  0.48140  0.57130  0.22240  1.0000 -0.1499006522
C   C103      1.0  0.39700  0.50130  0.22290  1.0000 0.0790850676
C   C104      1.0  0.63120  0.68520  0.28580  1.0000 0.4968569654
C   C105      1.0  0.74740  0.76210  0.22090  1.0000 -0.0732741502
C   C106      1.0  0.97060  0.75470  0.25340  1.0000 0.1111402416
C   C107      1.0  0.93990  0.66650  0.25560  1.0000 -0.2185846043
C   C108      1.0  0.84800  0.60830  0.24580  1.0000 0.1111402416
C   C109      1.0  0.78570  0.64000  0.23620  1.0000 -0.2185846043
C   C110      1.0  0.81360  0.72700  0.23480  1.0000 0.1111402416
C   C111      1.0  0.90670  0.78370  0.24360  1.0000 -0.2085204971
C   C112      1.0  0.21760  0.33640  0.52340  1.0000 0.4909549646
C   C113      1.0  0.69590  0.16830  0.12970  1.0000 0.0790850676
C   C114      1.0  0.62010  0.09700  0.14450  1.0000 -0.138966616
C   C115      1.0  0.53840  0.07110  0.10460  1.0000 0.0027574273
C   C116      1.0  0.53400  0.10780  0.04800  1.0000 -0.1499006522
C   C117      1.0  0.61480  0.17650  0.03470  1.0000 0.0927569049
C   C118      1.0  0.45340  0.99800  0.12300  1.0000 0.5131399113
C   C119      1.0  0.29340  0.92800  0.10890  1.0000 -0.0732741502
C   C120      1.0  0.02350  0.38310  0.08310  1.0000 0.0623529979
C   C121      1.0  0.10000  0.37300  0.09240  1.0000 -0.1499006522
C   C122      1.0  0.09060  0.29020  0.09020  1.0000 -0.0033126459
C   C123      1.0  0.00370  0.22100  0.07810  1.0000 -0.1606534181
C   C124      1.0  0.93010  0.23790  0.06790  1.0000 0.0927569049
C   C125      1.0  0.17360  0.27790  0.09740  1.0000 0.4909549646
C   C126      1.0  0.22680  0.17520  0.08790  1.0000 -0.0732741502
C   C127      1.0  0.90970  0.54070  0.08620  1.0000 0.0790850676
C   C128      1.0  0.92580  0.62440  0.08680  1.0000 -0.138966616
C   C129      1.0  0.85460  0.64080  0.07080  1.0000 -0.0033126459
C   C130      1.0  0.76780  0.57070  0.05320  1.0000 -0.1499006522
C   C131      1.0  0.75790  0.48970  0.05290  1.0000 0.0623529979
C   C132      1.0  0.86550  0.72990  0.07120  1.0000 0.4909549646
C   C133      1.0  0.97040  0.87750  0.08270  1.0000 -0.0732741502
C   C134      1.0  0.22680  0.96380  0.09910  1.0000 0.1111402416
C   C135      1.0  0.25430  0.04890  0.09670  1.0000 -0.2085204971
C   C136      1.0  0.19150  0.08040  0.08970  1.0000 0.1111402416
C   C137      1.0  0.09970  0.02340  0.08510  1.0000 -0.2185846043
C   C138      1.0  0.07150  0.93560  0.08710  1.0000 0.1027832309
C   C139      1.0  0.13410  0.90620  0.09440  1.0000 -0.2006396223
C   C140      1.0  0.75770  0.32140  0.82320  1.0000 0.4134137112
C   C141      1.0  0.41710  0.13820  0.68900  1.0000 0.0790850676
C   C142      1.0  0.50100  0.20550  0.68760  1.0000 -0.1499006522
C   C143      1.0  0.52430  0.23810  0.62720  1.0000 -0.0033126459
C   C144      1.0  0.46100  0.20040  0.57040  1.0000 -0.1606534181
C   C145      1.0  0.37670  0.13220  0.57650  1.0000 0.0790850676
C   C146      1.0  0.61710  0.31230  0.62640  1.0000 0.4968569654
C   C147      1.0  0.72440  0.39230  0.55610  1.0000 -0.0732741502
C   C148      1.0  0.10070  0.09230  0.60330  1.0000 0.0790850676
C   C149      1.0  0.02860  0.10770  0.58710  1.0000 -0.1681371887
C   C150      1.0  0.94180  0.03790  0.57630  1.0000 0.0112826473
C   C151      1.0  0.93200  0.95730  0.58090  1.0000 -0.138966616
C   C152      1.0  0.00870  0.94860  0.59820  1.0000 0.0677846611
C   C153      1.0  0.85760  0.04800  0.56120  1.0000 0.4968569654
C   C154      1.0  0.79840  0.14570  0.55650  1.0000 -0.0801501346
C   C155      1.0  0.25960  0.83690  0.63870  1.0000 0.0677846611
C   C156      1.0  0.25120  0.75560  0.63080  1.0000 -0.1499006522
C   C157      1.0  0.16500  0.68630  0.60910  1.0000 0.0027574273
C   C158      1.0  0.09250  0.70220  0.59670  1.0000 -0.138966616
C   C159      1.0  0.10830  0.78690  0.60480  1.0000 0.0790850676
C   C160      1.0  0.15470  0.59650  0.60160  1.0000 0.4909549646
C   C161      1.0  0.05100  0.44950  0.58080  1.0000 -0.0732741502
C   C162      1.0  0.79360  0.35870  0.56220  1.0000 0.1111402416
C   C163      1.0  0.76720  0.27160  0.55770  1.0000 -0.2185846043
C   C164      1.0  0.83120  0.24120  0.56190  1.0000 0.1111402416
C   C165      1.0  0.92310  0.30150  0.57150  1.0000 -0.2185846043
C   C166      1.0  0.95040  0.38960  0.57460  1.0000 0.1111402416
C   C167      1.0  0.88500  0.41690  0.56960  1.0000 -0.2006396223
C   C168      1.0  0.20390  0.01680  0.89020  1.0000 0.4909549646
S   S1        1.0  0.82364  0.65784  0.56130  1.0000 0.9611062932
S   S2        1.0  0.18379  0.67275  0.10628  1.0000 0.9959029633
S   S3        1.0  0.83798  0.01946  0.19965  1.0000 0.9611062932
S   S4        1.0  0.17636  0.34216  0.43870  1.0000 0.9611062932
S   S5        1.0  0.81621  0.32725  0.89372  1.0000 0.9959029633
S   S6        1.0  0.16202  0.98054  0.80035  1.0000 0.9611062932
N   N1        1.0  0.78900  0.78490  0.73310  1.0000 -0.1812680634
N   N2        1.0  0.89190  0.62240  0.73630  1.0000 -0.2006396223
N   N3        1.0  0.63250  0.52900  0.72000  1.0000 -0.1812680634
N   N4        1.0  0.30680  0.79210  0.92420  1.0000 -0.2006396223
N   N5        1.0  0.06190  0.68360  0.92890  1.0000 -0.2085204971
N   N6        1.0  0.17270  0.52690  0.93090  1.0000 -0.1812680634
N   N7        1.0  0.64530  0.89870  0.36590  1.0000 -0.1883680048
N   N8        1.0  0.90690  0.98510  0.39150  1.0000 -0.1883680048
N   N9        1.0  0.80970  0.14620  0.37470  1.0000 -0.1883680048
N   N10       1.0  0.21100  0.21510  0.26690  1.0000 -0.1812680634
N   N11       1.0  0.10810  0.37760  0.26370  1.0000 -0.2006396223
N   N12       1.0  0.36750  0.47100  0.28000  1.0000 -0.1812680634
N   N13       1.0  0.69320  0.20790  0.07580  1.0000 -0.2006396223
N   N14       1.0  0.93810  0.31640  0.07110  1.0000 -0.2085204971
N   N15       1.0  0.82730  0.47310  0.06910  1.0000 -0.1812680634
N   N16       1.0  0.35470  0.10130  0.63410  1.0000 -0.1883680048
N   N17       1.0  0.09310  0.01490  0.60850  1.0000 -0.2006396223
N   N18       1.0  0.19030  0.85380  0.62530  1.0000 -0.1883680048
O   O1        1.0  0.76180  0.05620  0.71890  1.0000 -0.441492818
O   O2        1.0  0.91170  0.09980  0.73700  1.0000 -0.2085204971
O   O3        1.0  0.20390  0.64430  0.77430  1.0000 -0.4619736296
O   O4        1.0  0.10950  0.50350  0.74970  1.0000 -0.2006396223
O   O5        1.0  0.32150  0.27230  0.66110  1.0000 -0.4619736296
O   O6        1.0  0.34540  0.30220  0.77630  1.0000 -0.2085204971
O   O7        1.0  0.74180  0.62210  0.59230  1.0000 -0.5487621548
O   O8        1.0  0.86330  0.60150  0.55090  1.0000 -0.5560333353
O   O9        1.0  0.88610  0.74460  0.58920  1.0000 -0.5560333353
O   O10       1.0  0.54190  0.04980  0.83700  1.0000 -0.4798401517
O   O11       1.0  0.61970  0.00980  0.90890  1.0000 -0.2376439047
O   O12       1.0  0.75050  0.66380  0.88860  1.0000 -0.4798401517
O   O13       1.0  0.84830  0.80510  0.91270  1.0000 -0.2085204971
O   O14       1.0  0.19730  0.25500  0.94020  1.0000 -0.441492818
O   O15       1.0  0.04710  0.21060  0.91720  1.0000 -0.2006396223
O   O16       1.0  0.12090  0.58510  0.08560  1.0000 -0.570478968
O   O17       1.0  0.14860  0.73400  0.12600  1.0000 -0.5997170133
O   O18       1.0  0.25660  0.70520  0.06200  1.0000 -0.5919808668
O   O19       1.0  0.33120  0.64560  0.32350  1.0000 -0.441492818
O   O20       1.0  0.36650  0.67390  0.43710  1.0000 -0.2185846043
O   O21       1.0  0.21790  0.01160  0.45000  1.0000 -0.4668827278
O   O22       1.0  0.12350  0.86990  0.43550  1.0000 -0.2085204971
O   O23       1.0  0.78210  0.41920  0.39520  1.0000 -0.441492818
O   O24       1.0  0.93260  0.46270  0.40840  1.0000 -0.2006396223
O   O25       1.0  0.75630  0.98480  0.23050  1.0000 -0.5487621548
O   O26       1.0  0.89170  0.97520  0.21360  1.0000 -0.5779512149
O   O27       1.0  0.88560  0.11020  0.20570  1.0000 -0.5487621548
O   O28       1.0  0.23820  0.94380  0.28110  1.0000 -0.441492818
O   O29       1.0  0.08830  0.90020  0.26300  1.0000 -0.2085204971
O   O30       1.0  0.79610  0.35570  0.22570  1.0000 -0.4619736296
O   O31       1.0  0.89050  0.49650  0.25030  1.0000 -0.2085204971
O   O32       1.0  0.67850  0.72770  0.33890  1.0000 -0.4619736296
O   O33       1.0  0.65460  0.69780  0.22370  1.0000 -0.2085204971
O   O34       1.0  0.25820  0.37790  0.40770  1.0000 -0.5487621548
O   O35       1.0  0.13670  0.39850  0.44910  1.0000 -0.5560333353
O   O36       1.0  0.11390  0.25540  0.41080  1.0000 -0.5560333353
O   O37       1.0  0.45810  0.95020  0.16300  1.0000 -0.4798401517
O   O38       1.0  0.38030  0.99020  0.09110  1.0000 -0.2376439047
O   O39       1.0  0.24950  0.33620  0.11140  1.0000 -0.4798401517
O   O40       1.0  0.15170  0.19490  0.08730  1.0000 -0.2085204971
O   O41       1.0  0.80270  0.74500  0.05980  1.0000 -0.441492818
O   O42       1.0  0.95290  0.78940  0.08280  1.0000 -0.2006396223
O   O43       1.0  0.87910  0.41490  0.91440  1.0000 -0.570478968
O   O44       1.0  0.85140  0.26600  0.87400  1.0000 -0.5997170133
O   O45       1.0  0.74340  0.29480  0.93800  1.0000 -0.5919808668
O   O46       1.0  0.66880  0.35440  0.67650  1.0000 -0.441492818
O   O47       1.0  0.63350  0.32610  0.56290  1.0000 -0.2185846043
O   O48       1.0  0.78210  0.98840  0.55000  1.0000 -0.4668827278
O   O49       1.0  0.87650  0.13010  0.56450  1.0000 -0.2085204971
O   O50       1.0  0.21790  0.58080  0.60480  1.0000 -0.441492818
O   O51       1.0  0.06740  0.53730  0.59160  1.0000 -0.2006396223
O   O52       1.0  0.24370  0.01520  0.76950  1.0000 -0.5487621548
O   O53       1.0  0.10830  0.02480  0.78640  1.0000 -0.5779512149
O   O54       1.0  0.11440  0.88980  0.79430  1.0000 -0.5487621548
F   F1        1.0  0.84900  0.68980  0.43700  1.0000 -0.1812680634
F   F2        1.0  0.75080  0.71970  0.47840  1.0000 -0.1812680634
F   F3        1.0  0.72000  0.59010  0.44540  1.0000 -0.1606534181
F   F4        1.0  0.18910  0.66160  0.23340  1.0000 -0.1812680634
F   F5        1.0  0.28040  0.62060  0.17360  1.0000 -0.1883680048
F   F6        1.0  0.31160  0.76060  0.20680  1.0000 -0.138966616
F   F7        1.0  0.74680  0.01610  0.08540  1.0000 -0.1681371887
F   F8        1.0  0.75290  0.90050  0.09470  1.0000 -0.1606534181
F   F9        1.0  0.86840  0.01010  0.07400  1.0000 -0.1883680048
F   F10       1.0  0.15100  0.31020  0.56300  1.0000 -0.1812680634
F   F11       1.0  0.24920  0.28030  0.52160  1.0000 -0.1812680634
F   F12       1.0  0.28000  0.40990  0.55460  1.0000 -0.1606534181
F   F13       1.0  0.81090  0.33840  0.76660  1.0000 -0.1812680634
F   F14       1.0  0.71960  0.37940  0.82640  1.0000 -0.1883680048
F   F15       1.0  0.68840  0.23940  0.79320  1.0000 -0.138966616
F   F16       1.0  0.25320  0.98390  0.91460  1.0000 -0.1681371887
F   F17       1.0  0.24710  0.09950  0.90530  1.0000 -0.1606534181
F   F18       1.0  0.13160  0.98990  0.92600  1.0000 -0.1883680048
