# DDEC6 charges by PACMAN v1.1 (https://github.com/mtap-research/PACMAN-charge/)
data_2017[SmCu][nan]3[FSR]1
_chemical_formula_sum              "Sm8 Cu16 H184 C200 I12 N36 O64"
_cell_length_a       9.321
_cell_length_b       22.934
_cell_length_c       31.037
_cell_angle_alpha    90
_cell_angle_beta     90
_cell_angle_gamma    90

_symmetry_space_group_name_H-M    "P 1"
_symmetry_Int_Tables_number       1

loop_
  _symmetry_equiv_pos_as_xyz
  'x, y, z'

loop_
  _atom_site_type_symbol
  _atom_site_label
  _atom_site_symmetry_multiplicity
  _atom_site_fract_x
  _atom_site_fract_y
  _atom_site_fract_z
  _atom_site_occupancy
  _atom_site_charge
Sm  Sm1       1.0  0.54015  0.55829  0.48437  1.0000 2.2005539832
Sm  Sm2       1.0  0.00873  0.52988  0.47763  1.0000 2.1793452201
Sm  Sm3       1.0  0.95985  0.44171  0.98437  1.0000 2.2005539832
Sm  Sm4       1.0  0.49127  0.47012  0.97763  1.0000 2.1793452201
Sm  Sm5       1.0  0.45985  0.05829  0.01563  1.0000 2.2005539832
Sm  Sm6       1.0  0.99127  0.02988  0.02237  1.0000 2.1793452201
Sm  Sm7       1.0  0.04015  0.94171  0.51563  1.0000 2.2005539832
Sm  Sm8       1.0  0.50873  0.97012  0.52237  1.0000 2.1793452201
Cu  Cu1       1.0  0.28362  0.23400  0.31934  1.0000 0.2019313721
Cu  Cu2       1.0  0.48966  0.35964  0.24853  1.0000 0.1890088318
Cu  Cu3       1.0  0.95569  0.11693  0.27564  1.0000 0.2825811205
Cu  Cu4       1.0  0.25642  0.28313  0.23984  1.0000 0.1690309902
Cu  Cu5       1.0  0.21638  0.76600  0.81934  1.0000 0.2019313721
Cu  Cu6       1.0  0.01034  0.64036  0.74853  1.0000 0.1890088318
Cu  Cu7       1.0  0.54431  0.88307  0.77564  1.0000 0.2825811205
Cu  Cu8       1.0  0.24358  0.71687  0.73984  1.0000 0.1690309902
Cu  Cu9       1.0  0.71638  0.73400  0.18066  1.0000 0.2019313721
Cu  Cu10      1.0  0.51034  0.85964  0.25147  1.0000 0.1890088318
Cu  Cu11      1.0  0.04431  0.61693  0.22436  1.0000 0.2825811205
Cu  Cu12      1.0  0.74358  0.78313  0.26016  1.0000 0.1690309902
Cu  Cu13      1.0  0.78362  0.26600  0.68066  1.0000 0.2019313721
Cu  Cu14      1.0  0.98966  0.14036  0.75147  1.0000 0.1890088318
Cu  Cu15      1.0  0.45569  0.38307  0.72436  1.0000 0.2825811205
Cu  Cu16      1.0  0.75642  0.21687  0.76016  1.0000 0.1690309902
H   H1        1.0  0.11440  0.51910  0.36380  1.0000 0.1403694177
H   H2        1.0  0.00140  0.68020  0.37830  1.0000 0.1280475617
H   H3        1.0  0.46460  0.41500  0.09350  1.0000 0.1403694177
H   H4        1.0  0.42380  0.45170  0.31400  1.0000 0.1007041173
H   H5        1.0  0.51990  0.49820  0.37170  1.0000 0.1403694177
H   H6        1.0  0.06250  0.08750  0.41790  1.0000 0.1280475617
H   H7        1.0  0.09810  0.40720  0.39800  1.0000 0.1403694177
H   H8        1.0  0.51020  0.37270  0.42250  1.0000 0.1403694177
H   H9        1.0  0.03080  0.53140  0.29510  1.0000 0.109834242
H   H10       1.0  0.38260  0.39110  0.16120  1.0000 0.1007041173
H   H11       1.0  0.48100  0.18140  0.38690  1.0000 0.1007041173
H   H12       1.0  0.97390  0.74070  0.32110  1.0000 0.1007041173
H   H13       1.0  0.34570  0.66380  0.35130  1.0000 0.1403694177
H   H14       1.0  0.57680  0.68700  0.39690  1.0000 0.1403694177
H   H15       1.0  0.55680  0.74180  0.33410  1.0000 0.0893794669
H   H16       1.0  0.84880  0.35510  0.12540  1.0000 0.1484849687
H   H17       1.0  0.10050  0.33500  0.34710  1.0000 0.1007041173
H   H18       1.0  0.89720  0.42210  0.34260  1.0000 0.1403694177
H   H19       1.0  0.08350  0.14750  0.35940  1.0000 0.0893794669
H   H20       1.0  0.25740  0.36540  0.64990  1.0000 0.109834242
H   H21       1.0  0.78420  0.37250  0.28880  1.0000 0.109834242
H   H22       1.0  0.50030  0.29850  0.37540  1.0000 0.1007041173
H   H23       1.0  0.27450  0.63090  0.57540  1.0000 0.1552220134
H   H24       1.0  0.27950  0.69880  0.58090  1.0000 0.1280475617
H   H25       1.0  0.42250  0.66330  0.57670  1.0000 0.1690309902
H   H26       1.0  0.76250  0.33520  0.19430  1.0000 0.109834242
H   H27       1.0  0.24460  0.67780  0.28530  1.0000 0.1007041173
H   H28       1.0  0.20790  0.11260  0.20130  1.0000 0.1484849687
H   H29       1.0  0.35380  0.08010  0.19400  1.0000 0.1484849687
H   H30       1.0  0.35080  0.13940  0.21910  1.0000 0.1484849687
H   H31       1.0  0.49630  0.49530  0.68090  1.0000 0.1226838657
H   H32       1.0  0.31630  0.71330  0.44620  1.0000 0.1403694177
H   H33       1.0  0.18830  0.75690  0.45230  1.0000 0.1403694177
H   H34       1.0  0.15790  0.69150  0.44060  1.0000 0.1403694177
H   H35       1.0  0.43930  0.54590  0.62090  1.0000 0.1484849687
H   H36       1.0  0.08160  0.69940  0.55160  1.0000 0.1226838657
H   H37       1.0  0.00130  0.71310  0.50840  1.0000 0.1484849687
H   H38       1.0  0.09070  0.76190  0.53140  1.0000 0.1403694177
H   H39       1.0  0.18180  0.41360  0.58770  1.0000 0.1403694177
H   H40       1.0  0.47310  0.12340  0.44810  1.0000 0.1403694177
H   H41       1.0  0.54240  0.07810  0.23520  1.0000 0.109834242
H   H42       1.0  0.58520  0.02170  0.26080  1.0000 0.1226838657
H   H43       1.0  0.59170  0.08280  0.28340  1.0000 0.1280475617
H   H44       1.0  0.34330  0.04890  0.34110  1.0000 0.1280475617
H   H45       1.0  0.44770  0.99900  0.32680  1.0000 0.1226838657
H   H46       1.0  0.28400  0.99510  0.31560  1.0000 0.1280475617
H   H47       1.0  0.38560  0.48090  0.86380  1.0000 0.1403694177
H   H48       1.0  0.49860  0.31980  0.87830  1.0000 0.1280475617
H   H49       1.0  0.03540  0.58500  0.59350  1.0000 0.1403694177
H   H50       1.0  0.07620  0.54830  0.81400  1.0000 0.1007041173
H   H51       1.0  0.98010  0.50180  0.87170  1.0000 0.1403694177
H   H52       1.0  0.43750  0.91250  0.91790  1.0000 0.1280475617
H   H53       1.0  0.40190  0.59280  0.89800  1.0000 0.1403694177
H   H54       1.0  0.98980  0.62730  0.92250  1.0000 0.1403694177
H   H55       1.0  0.46920  0.46860  0.79510  1.0000 0.109834242
H   H56       1.0  0.11740  0.60890  0.66120  1.0000 0.1007041173
H   H57       1.0  0.01900  0.81860  0.88690  1.0000 0.1007041173
H   H58       1.0  0.52610  0.25930  0.82110  1.0000 0.1007041173
H   H59       1.0  0.15430  0.33620  0.85130  1.0000 0.1403694177
H   H60       1.0  0.92320  0.31300  0.89690  1.0000 0.1403694177
H   H61       1.0  0.94320  0.25820  0.83410  1.0000 0.0893794669
H   H62       1.0  0.65120  0.64490  0.62540  1.0000 0.1484849687
H   H63       1.0  0.39950  0.66500  0.84710  1.0000 0.1007041173
H   H64       1.0  0.60280  0.57790  0.84260  1.0000 0.1403694177
H   H65       1.0  0.41650  0.85250  0.85940  1.0000 0.0893794669
H   H66       1.0  0.24260  0.63460  0.14990  1.0000 0.109834242
H   H67       1.0  0.71580  0.62750  0.78880  1.0000 0.109834242
H   H68       1.0  0.99970  0.70150  0.87540  1.0000 0.1007041173
H   H69       1.0  0.22550  0.36910  0.07540  1.0000 0.1552220134
H   H70       1.0  0.22050  0.30120  0.08090  1.0000 0.1280475617
H   H71       1.0  0.07750  0.33670  0.07670  1.0000 0.1690309902
H   H72       1.0  0.73750  0.66480  0.69430  1.0000 0.109834242
H   H73       1.0  0.25540  0.32220  0.78530  1.0000 0.1007041173
H   H74       1.0  0.29210  0.88740  0.70130  1.0000 0.1484849687
H   H75       1.0  0.14620  0.91990  0.69400  1.0000 0.1484849687
H   H76       1.0  0.14920  0.86060  0.71910  1.0000 0.1484849687
H   H77       1.0  0.00370  0.50470  0.18090  1.0000 0.1226838657
H   H78       1.0  0.18370  0.28670  0.94620  1.0000 0.1403694177
H   H79       1.0  0.31170  0.24310  0.95230  1.0000 0.1403694177
H   H80       1.0  0.34210  0.30850  0.94060  1.0000 0.1403694177
H   H81       1.0  0.06070  0.45410  0.12090  1.0000 0.1484849687
H   H82       1.0  0.41840  0.30060  0.05160  1.0000 0.1226838657
H   H83       1.0  0.49870  0.28690  0.00840  1.0000 0.1484849687
H   H84       1.0  0.40930  0.23810  0.03140  1.0000 0.1403694177
H   H85       1.0  0.31820  0.58640  0.08770  1.0000 0.1403694177
H   H86       1.0  0.02690  0.87660  0.94810  1.0000 0.1403694177
H   H87       1.0  0.95760  0.92190  0.73520  1.0000 0.109834242
H   H88       1.0  0.91480  0.97830  0.76080  1.0000 0.1226838657
H   H89       1.0  0.90830  0.91720  0.78340  1.0000 0.1280475617
H   H90       1.0  0.15670  0.95110  0.84110  1.0000 0.1280475617
H   H91       1.0  0.05230  0.00100  0.82680  1.0000 0.1226838657
H   H92       1.0  0.21600  0.00490  0.81560  1.0000 0.1280475617
H   H93       1.0  0.88560  0.01910  0.13620  1.0000 0.1403694177
H   H94       1.0  0.99860  0.18020  0.12170  1.0000 0.1280475617
H   H95       1.0  0.53540  0.91500  0.40650  1.0000 0.1403694177
H   H96       1.0  0.57620  0.95170  0.18600  1.0000 0.1007041173
H   H97       1.0  0.48010  0.99820  0.12830  1.0000 0.1403694177
H   H98       1.0  0.93750  0.58750  0.08210  1.0000 0.1280475617
H   H99       1.0  0.90190  0.90720  0.10200  1.0000 0.1403694177
H   H100      1.0  0.48980  0.87270  0.07750  1.0000 0.1403694177
H   H101      1.0  0.96920  0.03140  0.20490  1.0000 0.109834242
H   H102      1.0  0.61740  0.89110  0.33880  1.0000 0.1007041173
H   H103      1.0  0.51900  0.68140  0.11310  1.0000 0.1007041173
H   H104      1.0  0.02610  0.24070  0.17890  1.0000 0.1007041173
H   H105      1.0  0.65430  0.16380  0.14870  1.0000 0.1403694177
H   H106      1.0  0.42320  0.18700  0.10310  1.0000 0.1403694177
H   H107      1.0  0.44320  0.24180  0.16590  1.0000 0.0893794669
H   H108      1.0  0.15120  0.85510  0.37460  1.0000 0.1484849687
H   H109      1.0  0.89950  0.83500  0.15290  1.0000 0.1007041173
H   H110      1.0  0.10280  0.92210  0.15740  1.0000 0.1403694177
H   H111      1.0  0.91650  0.64750  0.14060  1.0000 0.0893794669
H   H112      1.0  0.74260  0.86540  0.85010  1.0000 0.109834242
H   H113      1.0  0.21580  0.87250  0.21120  1.0000 0.109834242
H   H114      1.0  0.49970  0.79850  0.12460  1.0000 0.1007041173
H   H115      1.0  0.72550  0.13090  0.92460  1.0000 0.1552220134
H   H116      1.0  0.72050  0.19880  0.91910  1.0000 0.1280475617
H   H117      1.0  0.57750  0.16330  0.92330  1.0000 0.1690309902
H   H118      1.0  0.23750  0.83520  0.30570  1.0000 0.109834242
H   H119      1.0  0.75540  0.17780  0.21470  1.0000 0.1007041173
H   H120      1.0  0.79210  0.61260  0.29870  1.0000 0.1484849687
H   H121      1.0  0.64620  0.58010  0.30600  1.0000 0.1484849687
H   H122      1.0  0.64920  0.63940  0.28090  1.0000 0.1484849687
H   H123      1.0  0.50370  0.99530  0.81910  1.0000 0.1226838657
H   H124      1.0  0.68370  0.21330  0.05380  1.0000 0.1403694177
H   H125      1.0  0.81170  0.25690  0.04770  1.0000 0.1403694177
H   H126      1.0  0.84210  0.19150  0.05940  1.0000 0.1403694177
H   H127      1.0  0.56070  0.04590  0.87910  1.0000 0.1484849687
H   H128      1.0  0.91840  0.19940  0.94840  1.0000 0.1226838657
H   H129      1.0  0.99870  0.21310  0.99160  1.0000 0.1484849687
H   H130      1.0  0.90930  0.26190  0.96860  1.0000 0.1403694177
H   H131      1.0  0.81820  0.91360  0.91230  1.0000 0.1403694177
H   H132      1.0  0.52690  0.62340  0.05190  1.0000 0.1403694177
H   H133      1.0  0.45760  0.57810  0.26480  1.0000 0.109834242
H   H134      1.0  0.41480  0.52170  0.23920  1.0000 0.1226838657
H   H135      1.0  0.40830  0.58280  0.21660  1.0000 0.1280475617
H   H136      1.0  0.65670  0.54890  0.15890  1.0000 0.1280475617
H   H137      1.0  0.55230  0.49900  0.17320  1.0000 0.1226838657
H   H138      1.0  0.71600  0.49510  0.18440  1.0000 0.1280475617
H   H139      1.0  0.61440  0.98090  0.63620  1.0000 0.1403694177
H   H140      1.0  0.50140  0.81980  0.62170  1.0000 0.1280475617
H   H141      1.0  0.96460  0.08500  0.90650  1.0000 0.1403694177
H   H142      1.0  0.92380  0.04830  0.68600  1.0000 0.1007041173
H   H143      1.0  0.01990  0.00180  0.62830  1.0000 0.1403694177
H   H144      1.0  0.56250  0.41250  0.58210  1.0000 0.1280475617
H   H145      1.0  0.59810  0.09280  0.60200  1.0000 0.1403694177
H   H146      1.0  0.01020  0.12730  0.57750  1.0000 0.1403694177
H   H147      1.0  0.53080  0.96860  0.70490  1.0000 0.109834242
H   H148      1.0  0.88260  0.10890  0.83880  1.0000 0.1007041173
H   H149      1.0  0.98100  0.31860  0.61310  1.0000 0.1007041173
H   H150      1.0  0.47390  0.75930  0.67890  1.0000 0.1007041173
H   H151      1.0  0.84570  0.83620  0.64870  1.0000 0.1403694177
H   H152      1.0  0.07680  0.81300  0.60310  1.0000 0.1403694177
H   H153      1.0  0.05680  0.75820  0.66590  1.0000 0.0893794669
H   H154      1.0  0.34880  0.14490  0.87460  1.0000 0.1484849687
H   H155      1.0  0.60050  0.16500  0.65290  1.0000 0.1007041173
H   H156      1.0  0.39720  0.07790  0.65740  1.0000 0.1403694177
H   H157      1.0  0.58350  0.35250  0.64060  1.0000 0.0893794669
H   H158      1.0  0.75740  0.13460  0.35010  1.0000 0.109834242
H   H159      1.0  0.28420  0.12750  0.71120  1.0000 0.109834242
H   H160      1.0  0.00030  0.20150  0.62460  1.0000 0.1007041173
H   H161      1.0  0.77450  0.86910  0.42460  1.0000 0.1552220134
H   H162      1.0  0.77950  0.80120  0.41910  1.0000 0.1280475617
H   H163      1.0  0.92250  0.83670  0.42330  1.0000 0.1690309902
H   H164      1.0  0.26250  0.16480  0.80570  1.0000 0.109834242
H   H165      1.0  0.74460  0.82220  0.71470  1.0000 0.1007041173
H   H166      1.0  0.70790  0.38740  0.79870  1.0000 0.1484849687
H   H167      1.0  0.85380  0.41990  0.80600  1.0000 0.1484849687
H   H168      1.0  0.85080  0.36060  0.78090  1.0000 0.1484849687
H   H169      1.0  0.99630  0.00470  0.31910  1.0000 0.1226838657
H   H170      1.0  0.81630  0.78670  0.55380  1.0000 0.1403694177
H   H171      1.0  0.68830  0.74310  0.54770  1.0000 0.1403694177
H   H172      1.0  0.65790  0.80850  0.55940  1.0000 0.1403694177
H   H173      1.0  0.93930  0.95410  0.37910  1.0000 0.1484849687
H   H174      1.0  0.58160  0.80060  0.44840  1.0000 0.1226838657
H   H175      1.0  0.50130  0.78690  0.49160  1.0000 0.1484849687
H   H176      1.0  0.59070  0.73810  0.46860  1.0000 0.1403694177
H   H177      1.0  0.68180  0.08640  0.41230  1.0000 0.1403694177
H   H178      1.0  0.97310  0.37660  0.55190  1.0000 0.1403694177
H   H179      1.0  0.04240  0.42190  0.76480  1.0000 0.109834242
H   H180      1.0  0.08520  0.47830  0.73920  1.0000 0.1226838657
H   H181      1.0  0.09170  0.41720  0.71660  1.0000 0.1280475617
H   H182      1.0  0.84330  0.45110  0.65890  1.0000 0.1280475617
H   H183      1.0  0.94770  0.50100  0.67320  1.0000 0.1226838657
H   H184      1.0  0.78400  0.50490  0.68440  1.0000 0.1280475617
C   C1        1.0  0.30180  0.44560  0.44990  1.0000 0.6457423268
C   C2        1.0  0.80350  0.63900  0.43430  1.0000 0.6302308259
C   C3        1.0  0.14380  0.55140  0.34800  1.0000 -0.1497430915
C   C4        1.0  0.91040  0.69300  0.37050  1.0000 -0.1497430915
C   C5        1.0  0.52700  0.39860  0.11350  1.0000 -0.1426151968
C   C6        1.0  0.51950  0.44460  0.32060  1.0000 0.0842262951
C   C7        1.0  0.23790  0.59010  0.36620  1.0000 0.0195096172
C   C8        1.0  0.26090  0.05270  0.47430  1.0000 0.6457423268
C   C9        1.0  0.57630  0.47310  0.35540  1.0000 -0.1596374055
C   C10       1.0  0.31940  0.67320  0.51850  1.0000 0.5379088966
C   C11       1.0  0.72080  0.40570  0.05760  1.0000 0.6215115684
C   C12       1.0  0.15000  0.10520  0.41190  1.0000 -0.1426151968
C   C13       1.0  0.26420  0.51660  0.55570  1.0000 0.6215115684
C   C14       1.0  0.18140  0.38570  0.39350  1.0000 -0.1497430915
C   C15       1.0  0.26600  0.09500  0.43730  1.0000 0.011880711
C   C16       1.0  0.29630  0.58260  0.41090  1.0000 0.6215115684
C   C17       1.0  0.78410  0.49090  0.40550  1.0000 0.6215115684
C   C18       1.0  0.42450  0.36470  0.40840  1.0000 -0.1426151968
C   C19       1.0  0.79100  0.67690  0.39420  1.0000 0.0195096172
C   C20       1.0  0.30390  0.39810  0.41710  1.0000 -0.0004175189
C   C21       1.0  0.72220  0.46380  0.36620  1.0000 0.011880711
C   C22       1.0  0.09180  0.55930  0.30690  1.0000 0.0893794669
C   C23       1.0  0.30160  0.48430  0.59720  1.0000 0.0338074191
C   C24       1.0  0.47890  0.38520  0.15480  1.0000 0.0593834272
C   C25       1.0  0.39570  0.16220  0.39320  1.0000 0.0505616536
C   C26       1.0  0.89180  0.72820  0.33550  1.0000 0.0685060022
C   C27       1.0  0.27850  0.63730  0.34100  1.0000 -0.1596374055
C   C28       1.0  0.65830  0.69620  0.38110  1.0000 -0.1497430915
C   C29       1.0  0.64720  0.73010  0.34340  1.0000 0.0593834272
C   C30       1.0  0.75400  0.36370  0.13230  1.0000 -0.1497430915
C   C31       1.0  0.18270  0.34150  0.36330  1.0000 0.0685060022
C   C32       1.0  0.79920  0.42720  0.33850  1.0000 -0.1497430915
C   C33       1.0  0.16350  0.14220  0.37690  1.0000 0.0685060022
C   C34       1.0  0.29310  0.40250  0.64430  1.0000 0.0685060022
C   C35       1.0  0.73190  0.39880  0.30540  1.0000 0.0505616536
C   C36       1.0  0.41840  0.32090  0.37970  1.0000 0.0505616536
C   C37       1.0  0.66610  0.38740  0.10250  1.0000 0.0195096172
C   C38       1.0  0.32450  0.66590  0.56740  1.0000 -0.6034351887
C   C39       1.0  0.70130  0.35190  0.17410  1.0000 0.0593834272
C   C40       1.0  0.21970  0.64480  0.30100  1.0000 0.0505616536
C   C41       1.0  0.29980  0.10380  0.21370  1.0000 -0.569178343
C   C42       1.0  0.43240  0.47830  0.66160  1.0000 0.0505616536
C   C43       1.0  0.21960  0.71740  0.45640  1.0000 -0.3114391567
C   C44       1.0  0.39910  0.50940  0.62600  1.0000 -0.1497430915
C   C45       1.0  0.08570  0.72100  0.52520  1.0000 -0.346713347
C   C46       1.0  0.24760  0.43120  0.60620  1.0000 -0.1596374055
C   C47       1.0  0.27830  0.07020  0.25690  1.0000 0.5059012769
C   C48       1.0  0.39440  0.12640  0.42980  1.0000 -0.1669978204
C   C49       1.0  0.54050  0.05930  0.26290  1.0000 -0.346713347
C   C50       1.0  0.36400  0.02100  0.31890  1.0000 -0.346713347
C   C51       1.0  0.19820  0.55440  0.94990  1.0000 0.6457423268
C   C52       1.0  0.69650  0.36100  0.93430  1.0000 0.6302308259
C   C53       1.0  0.35620  0.44860  0.84800  1.0000 -0.1497430915
C   C54       1.0  0.58960  0.30700  0.87050  1.0000 -0.1497430915
C   C55       1.0  0.97300  0.60140  0.61350  1.0000 -0.1426151968
C   C56       1.0  0.98050  0.55540  0.82060  1.0000 0.0842262951
C   C57       1.0  0.26210  0.40990  0.86620  1.0000 0.0195096172
C   C58       1.0  0.23910  0.94730  0.97430  1.0000 0.6457423268
C   C59       1.0  0.92370  0.52690  0.85540  1.0000 -0.1596374055
C   C60       1.0  0.18060  0.32680  0.01850  1.0000 0.5379088966
C   C61       1.0  0.77920  0.59430  0.55760  1.0000 0.6215115684
C   C62       1.0  0.35000  0.89480  0.91190  1.0000 -0.1426151968
C   C63       1.0  0.23580  0.48340  0.05570  1.0000 0.6215115684
C   C64       1.0  0.31860  0.61430  0.89350  1.0000 -0.1497430915
C   C65       1.0  0.23400  0.90500  0.93730  1.0000 0.011880711
C   C66       1.0  0.20370  0.41740  0.91090  1.0000 0.6215115684
C   C67       1.0  0.71590  0.50910  0.90550  1.0000 0.6215115684
C   C68       1.0  0.07550  0.63530  0.90840  1.0000 -0.1426151968
C   C69       1.0  0.70900  0.32310  0.89420  1.0000 0.0195096172
C   C70       1.0  0.19610  0.60190  0.91710  1.0000 -0.0004175189
C   C71       1.0  0.77780  0.53620  0.86620  1.0000 0.011880711
C   C72       1.0  0.40820  0.44070  0.80690  1.0000 0.0893794669
C   C73       1.0  0.19840  0.51570  0.09720  1.0000 0.0338074191
C   C74       1.0  0.02110  0.61480  0.65480  1.0000 0.0593834272
C   C75       1.0  0.10430  0.83780  0.89320  1.0000 0.0505616536
C   C76       1.0  0.60820  0.27180  0.83550  1.0000 0.0685060022
C   C77       1.0  0.22150  0.36270  0.84100  1.0000 -0.1596374055
C   C78       1.0  0.84170  0.30380  0.88110  1.0000 -0.1497430915
C   C79       1.0  0.85280  0.26990  0.84340  1.0000 0.0593834272
C   C80       1.0  0.74600  0.63630  0.63230  1.0000 -0.1497430915
C   C81       1.0  0.31730  0.65850  0.86330  1.0000 0.0685060022
C   C82       1.0  0.70080  0.57280  0.83850  1.0000 -0.1497430915
C   C83       1.0  0.33650  0.85780  0.87690  1.0000 0.0685060022
C   C84       1.0  0.20690  0.59750  0.14430  1.0000 0.0685060022
C   C85       1.0  0.76810  0.60120  0.80540  1.0000 0.0505616536
C   C86       1.0  0.08160  0.67910  0.87970  1.0000 0.0505616536
C   C87       1.0  0.83390  0.61260  0.60250  1.0000 0.0195096172
C   C88       1.0  0.17550  0.33410  0.06740  1.0000 -0.6034351887
C   C89       1.0  0.79870  0.64810  0.67410  1.0000 0.0593834272
C   C90       1.0  0.28030  0.35520  0.80100  1.0000 0.0505616536
C   C91       1.0  0.20020  0.89620  0.71370  1.0000 -0.569178343
C   C92       1.0  0.06760  0.52170  0.16160  1.0000 0.0505616536
C   C93       1.0  0.28040  0.28260  0.95640  1.0000 -0.3114391567
C   C94       1.0  0.10090  0.49060  0.12600  1.0000 -0.1497430915
C   C95       1.0  0.41430  0.27900  0.02520  1.0000 -0.346713347
C   C96       1.0  0.25240  0.56880  0.10620  1.0000 -0.1596374055
C   C97       1.0  0.22170  0.92980  0.75690  1.0000 0.5059012769
C   C98       1.0  0.10560  0.87360  0.92980  1.0000 -0.1669978204
C   C99       1.0  0.95950  0.94070  0.76290  1.0000 -0.346713347
C   C100      1.0  0.13600  0.97900  0.81890  1.0000 -0.346713347
C   C101      1.0  0.69820  0.94560  0.05010  1.0000 0.6457423268
C   C102      1.0  0.19650  0.13900  0.06570  1.0000 0.6302308259
C   C103      1.0  0.85620  0.05140  0.15200  1.0000 -0.1497430915
C   C104      1.0  0.08960  0.19300  0.12950  1.0000 -0.1497430915
C   C105      1.0  0.47300  0.89860  0.38650  1.0000 -0.1426151968
C   C106      1.0  0.48050  0.94460  0.17940  1.0000 0.0842262951
C   C107      1.0  0.76210  0.09010  0.13380  1.0000 0.0195096172
C   C108      1.0  0.73910  0.55270  0.02570  1.0000 0.6457423268
C   C109      1.0  0.42370  0.97310  0.14460  1.0000 -0.1596374055
C   C110      1.0  0.68060  0.17320  0.98150  1.0000 0.5379088966
C   C111      1.0  0.27920  0.90570  0.44240  1.0000 0.6215115684
C   C112      1.0  0.85000  0.60520  0.08810  1.0000 -0.1426151968
C   C113      1.0  0.73580  0.01660  0.94430  1.0000 0.6215115684
C   C114      1.0  0.81860  0.88570  0.10650  1.0000 -0.1497430915
C   C115      1.0  0.73400  0.59500  0.06270  1.0000 0.011880711
C   C116      1.0  0.70370  0.08260  0.08910  1.0000 0.6215115684
C   C117      1.0  0.21590  0.99090  0.09450  1.0000 0.6215115684
C   C118      1.0  0.57550  0.86470  0.09160  1.0000 -0.1426151968
C   C119      1.0  0.20900  0.17690  0.10580  1.0000 0.0195096172
C   C120      1.0  0.69610  0.89810  0.08290  1.0000 -0.0004175189
C   C121      1.0  0.27780  0.96380  0.13380  1.0000 0.011880711
C   C122      1.0  0.90820  0.05930  0.19310  1.0000 0.0893794669
C   C123      1.0  0.69840  0.98430  0.90280  1.0000 0.0338074191
C   C124      1.0  0.52110  0.88520  0.34520  1.0000 0.0593834272
C   C125      1.0  0.60430  0.66220  0.10680  1.0000 0.0505616536
C   C126      1.0  0.10820  0.22820  0.16450  1.0000 0.0685060022
C   C127      1.0  0.72150  0.13730  0.15900  1.0000 -0.1596374055
C   C128      1.0  0.34170  0.19620  0.11890  1.0000 -0.1497430915
C   C129      1.0  0.35280  0.23010  0.15660  1.0000 0.0593834272
C   C130      1.0  0.24600  0.86370  0.36770  1.0000 -0.1497430915
C   C131      1.0  0.81730  0.84150  0.13670  1.0000 0.0685060022
C   C132      1.0  0.20080  0.92720  0.16150  1.0000 -0.1497430915
C   C133      1.0  0.83650  0.64220  0.12310  1.0000 0.0685060022
C   C134      1.0  0.70690  0.90250  0.85570  1.0000 0.0685060022
C   C135      1.0  0.26810  0.89880  0.19460  1.0000 0.0505616536
C   C136      1.0  0.58160  0.82090  0.12030  1.0000 0.0505616536
C   C137      1.0  0.33390  0.88740  0.39750  1.0000 0.0195096172
C   C138      1.0  0.67550  0.16590  0.93260  1.0000 -0.6034351887
C   C139      1.0  0.29870  0.85190  0.32590  1.0000 0.0593834272
C   C140      1.0  0.78030  0.14480  0.19900  1.0000 0.0505616536
C   C141      1.0  0.70020  0.60380  0.28630  1.0000 -0.569178343
C   C142      1.0  0.56760  0.97830  0.83840  1.0000 0.0505616536
C   C143      1.0  0.78040  0.21740  0.04360  1.0000 -0.3114391567
C   C144      1.0  0.60090  0.00940  0.87400  1.0000 -0.1497430915
C   C145      1.0  0.91430  0.22100  0.97480  1.0000 -0.346713347
C   C146      1.0  0.75240  0.93120  0.89380  1.0000 -0.1596374055
C   C147      1.0  0.72170  0.57020  0.24310  1.0000 0.5059012769
C   C148      1.0  0.60560  0.62640  0.07020  1.0000 -0.1669978204
C   C149      1.0  0.45950  0.55930  0.23710  1.0000 -0.346713347
C   C150      1.0  0.63600  0.52100  0.18110  1.0000 -0.346713347
C   C151      1.0  0.80180  0.05440  0.55010  1.0000 0.6457423268
C   C152      1.0  0.30350  0.86100  0.56570  1.0000 0.6302308259
C   C153      1.0  0.64380  0.94860  0.65200  1.0000 -0.1497430915
C   C154      1.0  0.41040  0.80700  0.62950  1.0000 -0.1497430915
C   C155      1.0  0.02700  0.10140  0.88650  1.0000 -0.1426151968
C   C156      1.0  0.01950  0.05540  0.67940  1.0000 0.0842262951
C   C157      1.0  0.73790  0.90990  0.63380  1.0000 0.0195096172
C   C158      1.0  0.76090  0.44730  0.52570  1.0000 0.6457423268
C   C159      1.0  0.07630  0.02690  0.64460  1.0000 -0.1596374055
C   C160      1.0  0.81940  0.82680  0.48150  1.0000 0.5379088966
C   C161      1.0  0.22080  0.09430  0.94240  1.0000 0.6215115684
C   C162      1.0  0.65000  0.39480  0.58810  1.0000 -0.1426151968
C   C163      1.0  0.76420  0.98340  0.44430  1.0000 0.6302308259
C   C164      1.0  0.68140  0.11430  0.60650  1.0000 -0.1497430915
C   C165      1.0  0.76600  0.40500  0.56270  1.0000 0.011880711
C   C166      1.0  0.79630  0.91740  0.58910  1.0000 0.6215115684
C   C167      1.0  0.28410  0.00910  0.59450  1.0000 0.6215115684
C   C168      1.0  0.92450  0.13530  0.59160  1.0000 -0.1426151968
C   C169      1.0  0.29100  0.82310  0.60580  1.0000 0.0195096172
C   C170      1.0  0.80390  0.10190  0.58290  1.0000 -0.0004175189
C   C171      1.0  0.22220  0.03620  0.63380  1.0000 0.011880711
C   C172      1.0  0.59180  0.94070  0.69310  1.0000 0.0893794669
C   C173      1.0  0.80160  0.01570  0.40280  1.0000 0.0338074191
C   C174      1.0  0.97890  0.11480  0.84520  1.0000 0.0593834272
C   C175      1.0  0.89570  0.33780  0.60680  1.0000 0.0505616536
C   C176      1.0  0.39180  0.77180  0.66450  1.0000 0.0685060022
C   C177      1.0  0.77850  0.86270  0.65900  1.0000 -0.1596374055
C   C178      1.0  0.15830  0.80380  0.61890  1.0000 -0.1497430915
C   C179      1.0  0.14720  0.76990  0.65660  1.0000 0.0593834272
C   C180      1.0  0.25400  0.13630  0.86770  1.0000 -0.1497430915
C   C181      1.0  0.68270  0.15850  0.63670  1.0000 0.0685060022
C   C182      1.0  0.29920  0.07280  0.66150  1.0000 -0.1497430915
C   C183      1.0  0.66350  0.35780  0.62310  1.0000 0.0685060022
C   C184      1.0  0.79310  0.09750  0.35570  1.0000 0.0685060022
C   C185      1.0  0.23190  0.10120  0.69460  1.0000 0.0505616536
C   C186      1.0  0.91840  0.17910  0.62030  1.0000 0.0505616536
C   C187      1.0  0.16610  0.11260  0.89750  1.0000 0.0195096172
C   C188      1.0  0.82450  0.83410  0.43260  1.0000 -0.6034351887
C   C189      1.0  0.20130  0.14810  0.82590  1.0000 0.0593834272
C   C190      1.0  0.71970  0.85520  0.69900  1.0000 0.0505616536
C   C191      1.0  0.79980  0.39620  0.78630  1.0000 -0.569178343
C   C192      1.0  0.93240  0.02170  0.33840  1.0000 0.0505616536
C   C193      1.0  0.71960  0.78260  0.54360  1.0000 -0.3114391567
C   C194      1.0  0.89910  0.99060  0.37400  1.0000 -0.1497430915
C   C195      1.0  0.58570  0.77900  0.47480  1.0000 -0.346713347
C   C196      1.0  0.74760  0.06880  0.39380  1.0000 -0.1596374055
C   C197      1.0  0.77830  0.42980  0.74310  1.0000 0.5059012769
C   C198      1.0  0.89440  0.37360  0.57020  1.0000 -0.1669978204
C   C199      1.0  0.04050  0.44070  0.73710  1.0000 -0.346713347
C   C200      1.0  0.86400  0.47900  0.68110  1.0000 -0.346713347
I   I1        1.0  0.51505  0.24483  0.27097  1.0000 -0.381631233
I   I2        1.0  0.20991  0.39416  0.24612  1.0000 -0.4342229219
I   I3        1.0  0.02542  0.22912  0.28294  1.0000 -0.3930507752
I   I4        1.0  0.98495  0.75517  0.77097  1.0000 -0.381631233
I   I5        1.0  0.29009  0.60584  0.74612  1.0000 -0.4342229219
I   I6        1.0  0.47458  0.77088  0.78294  1.0000 -0.3930507752
I   I7        1.0  0.48495  0.74483  0.22903  1.0000 -0.381631233
I   I8        1.0  0.79009  0.89416  0.25388  1.0000 -0.4342229219
I   I9        1.0  0.97458  0.72912  0.21706  1.0000 -0.3930507752
I   I10       1.0  0.01505  0.25517  0.72903  1.0000 -0.381631233
I   I11       1.0  0.70991  0.10584  0.75388  1.0000 -0.4342229219
I   I12       1.0  0.52542  0.27088  0.71706  1.0000 -0.3930507752
N   N1        1.0  0.29790  0.30750  0.35640  1.0000 -0.1785850092
N   N2        1.0  0.12710  0.60620  0.28350  1.0000 -0.1860511752
N   N3        1.0  0.76460  0.74640  0.32000  1.0000 -0.1785850092
N   N4        1.0  0.28410  0.17110  0.36630  1.0000 -0.1785850092
N   N5        1.0  0.38210  0.42530  0.67180  1.0000 -0.1785850092
N   N6        1.0  0.56520  0.36420  0.18590  1.0000 -0.1785850092
N   N7        1.0  0.59010  0.40780  0.29580  1.0000 -0.1785850092
N   N8        1.0  0.21420  0.70330  0.50050  1.0000 0.0045952264
N   N9        1.0  0.39130  0.05240  0.27710  1.0000 -0.0085872735
N   N10       1.0  0.20210  0.69250  0.85640  1.0000 -0.1785850092
N   N11       1.0  0.37290  0.39380  0.78350  1.0000 -0.1860511752
N   N12       1.0  0.73540  0.25360  0.82000  1.0000 -0.1785850092
N   N13       1.0  0.21590  0.82890  0.86630  1.0000 -0.1785850092
N   N14       1.0  0.11790  0.57470  0.17180  1.0000 -0.1785850092
N   N15       1.0  0.93480  0.63580  0.68590  1.0000 -0.1785850092
N   N16       1.0  0.90990  0.59220  0.79580  1.0000 -0.1785850092
N   N17       1.0  0.28580  0.29670  0.00050  1.0000 0.0045952264
N   N18       1.0  0.10870  0.94760  0.77710  1.0000 -0.0085872735
N   N19       1.0  0.70210  0.80750  0.14360  1.0000 -0.1785850092
N   N20       1.0  0.87290  0.10620  0.21650  1.0000 -0.1860511752
N   N21       1.0  0.23540  0.24640  0.18000  1.0000 -0.1785850092
N   N22       1.0  0.71590  0.67110  0.13370  1.0000 -0.1785850092
N   N23       1.0  0.61790  0.92530  0.82820  1.0000 -0.1785850092
N   N24       1.0  0.43480  0.86420  0.31410  1.0000 -0.1785850092
N   N25       1.0  0.40990  0.90780  0.20420  1.0000 -0.1785850092
N   N26       1.0  0.78580  0.20330  0.99950  1.0000 0.0045952264
N   N27       1.0  0.60870  0.55240  0.22290  1.0000 -0.0085872735
N   N28       1.0  0.79790  0.19250  0.64360  1.0000 -0.1785850092
N   N29       1.0  0.62710  0.89380  0.71650  1.0000 -0.1860511752
N   N30       1.0  0.26460  0.75360  0.68000  1.0000 -0.1785850092
N   N31       1.0  0.78410  0.32890  0.63370  1.0000 -0.1785850092
N   N32       1.0  0.88210  0.07470  0.32820  1.0000 -0.1785850092
N   N33       1.0  0.06520  0.13580  0.81410  1.0000 -0.1785850092
N   N34       1.0  0.09010  0.09220  0.70420  1.0000 -0.1785850092
N   N35       1.0  0.71420  0.79670  0.49950  1.0000 0.0045952264
N   N36       1.0  0.89130  0.44760  0.72290  1.0000 -0.0085872735
O   O1        1.0  0.92550  0.61530  0.44050  1.0000 -0.6857693495
O   O2        1.0  0.69470  0.63390  0.45730  1.0000 -0.641669661
O   O3        1.0  0.41760  0.47100  0.45800  1.0000 -0.6495397192
O   O4        1.0  0.20890  0.57040  0.44120  1.0000 -0.7133030298
O   O5        1.0  0.14740  0.02320  0.47830  1.0000 -0.6604775491
O   O6        1.0  0.42960  0.58800  0.41600  1.0000 -0.6315328481
O   O7        1.0  0.70880  0.51810  0.43180  1.0000 -0.6769613328
O   O8        1.0  0.41980  0.65220  0.49670  1.0000 -0.6315328481
O   O9        1.0  0.85350  0.40230  0.05080  1.0000 -0.6315328481
O   O10       1.0  0.15330  0.06120  0.27020  1.0000 -0.5503784867
O   O11       1.0  0.62950  0.42050  0.03100  1.0000 -0.6708770794
O   O12       1.0  0.37130  0.04700  0.49640  1.0000 -0.6495397192
O   O13       1.0  0.13500  0.51700  0.54510  1.0000 -0.6495397192
O   O14       1.0  0.36340  0.54110  0.53710  1.0000 -0.641669661
O   O15       1.0  0.91950  0.48460  0.41100  1.0000 -0.6708770794
O   O16       1.0  0.18020  0.45560  0.46650  1.0000 -0.6708770794
O   O17       1.0  0.57450  0.38470  0.94050  1.0000 -0.6857693495
O   O18       1.0  0.80530  0.36610  0.95730  1.0000 -0.641669661
O   O19       1.0  0.08240  0.52900  0.95800  1.0000 -0.6495397192
O   O20       1.0  0.29110  0.42960  0.94120  1.0000 -0.7133030298
O   O21       1.0  0.35260  0.97680  0.97830  1.0000 -0.6604775491
O   O22       1.0  0.07040  0.41200  0.91600  1.0000 -0.6315328481
O   O23       1.0  0.79120  0.48190  0.93180  1.0000 -0.6769613328
O   O24       1.0  0.08020  0.34780  0.99670  1.0000 -0.6315328481
O   O25       1.0  0.64650  0.59770  0.55080  1.0000 -0.6315328481
O   O26       1.0  0.34670  0.93880  0.77020  1.0000 -0.5503784867
O   O27       1.0  0.87050  0.57950  0.53100  1.0000 -0.6708770794
O   O28       1.0  0.12870  0.95300  0.99640  1.0000 -0.6495397192
O   O29       1.0  0.36500  0.48300  0.04510  1.0000 -0.6495397192
O   O30       1.0  0.13660  0.45890  0.03710  1.0000 -0.641669661
O   O31       1.0  0.58050  0.51540  0.91100  1.0000 -0.6708770794
O   O32       1.0  0.31980  0.54440  0.96650  1.0000 -0.6708770794
O   O33       1.0  0.07450  0.11530  0.05950  1.0000 -0.6857693495
O   O34       1.0  0.30530  0.13390  0.04270  1.0000 -0.641669661
O   O35       1.0  0.58240  0.97100  0.04200  1.0000 -0.6495397192
O   O36       1.0  0.79110  0.07040  0.05880  1.0000 -0.7133030298
O   O37       1.0  0.85260  0.52320  0.02170  1.0000 -0.6604775491
O   O38       1.0  0.57040  0.08800  0.08400  1.0000 -0.6315328481
O   O39       1.0  0.29120  0.01810  0.06820  1.0000 -0.6769613328
O   O40       1.0  0.58020  0.15220  0.00330  1.0000 -0.6315328481
O   O41       1.0  0.14650  0.90230  0.44920  1.0000 -0.6315328481
O   O42       1.0  0.84670  0.56120  0.22980  1.0000 -0.5503784867
O   O43       1.0  0.37050  0.92050  0.46900  1.0000 -0.6708770794
O   O44       1.0  0.62870  0.54700  0.00360  1.0000 -0.6495397192
O   O45       1.0  0.86500  0.01700  0.95490  1.0000 -0.6495397192
O   O46       1.0  0.63660  0.04110  0.96290  1.0000 -0.641669661
O   O47       1.0  0.08050  0.98460  0.08900  1.0000 -0.6708770794
O   O48       1.0  0.81980  0.95560  0.03350  1.0000 -0.6708770794
O   O49       1.0  0.42550  0.88470  0.55950  1.0000 -0.6857693495
O   O50       1.0  0.19470  0.86610  0.54270  1.0000 -0.641669661
O   O51       1.0  0.91760  0.02900  0.54200  1.0000 -0.6495397192
O   O52       1.0  0.70890  0.92960  0.55880  1.0000 -0.7133030298
O   O53       1.0  0.64740  0.47680  0.52170  1.0000 -0.6604775491
O   O54       1.0  0.92960  0.91200  0.58400  1.0000 -0.6315328481
O   O55       1.0  0.20880  0.98190  0.56820  1.0000 -0.6769613328
O   O56       1.0  0.91980  0.84780  0.50330  1.0000 -0.6315328481
O   O57       1.0  0.35350  0.09770  0.94920  1.0000 -0.6315328481
O   O58       1.0  0.65330  0.43880  0.72980  1.0000 -0.5503784867
O   O59       1.0  0.12950  0.07950  0.96900  1.0000 -0.6708770794
O   O60       1.0  0.87130  0.45300  0.50360  1.0000 -0.6495397192
O   O61       1.0  0.63500  0.98300  0.45490  1.0000 -0.6495397192
O   O62       1.0  0.86340  0.95890  0.46290  1.0000 -0.641669661
O   O63       1.0  0.41950  0.01540  0.58900  1.0000 -0.6708770794
O   O64       1.0  0.68020  0.04440  0.53350  1.0000 -0.6708770794
