# DDEC6 charges by PACMAN v1.1 (https://github.com/mtap-research/PACMAN-charge/)
data_2017[Eu][nan]3[FSR]8
_chemical_formula_sum              "Eu2 P6 H34 C24 O26"
_cell_length_a       10.39
_cell_length_b       11.803
_cell_length_c       11.934
_cell_angle_alpha    82.967
_cell_angle_beta     81.366
_cell_angle_gamma    87.884

_symmetry_space_group_name_H-M    "P 1"
_symmetry_Int_Tables_number       1

loop_
  _symmetry_equiv_pos_as_xyz
  'x, y, z'

loop_
  _atom_site_type_symbol
  _atom_site_label
  _atom_site_symmetry_multiplicity
  _atom_site_fract_x
  _atom_site_fract_y
  _atom_site_fract_z
  _atom_site_occupancy
  _atom_site_charge
Eu  Eu1       1.0  0.98046  0.23992  0.07532  1.0000 2.1997859364
Eu  Eu2       1.0  0.01954  0.76008  0.92468  1.0000 2.1997859364
P   P1        1.0  0.70541  0.27650  0.31429  1.0000 1.267699409
P   P2        1.0  0.29459  0.72350  0.68571  1.0000 1.267699409
P   P3        1.0  0.11627  0.50548  0.11598  1.0000 1.2780318146
P   P4        1.0  0.88373  0.49452  0.88402  1.0000 1.2780318146
P   P5        1.0  0.84736  0.96613  0.10555  1.0000 1.2860423212
P   P6        1.0  0.15264  0.03387  0.89445  1.0000 1.2860423212
H   H1        1.0  0.55340  0.17630  0.32870  1.0000 0.3754307513
H   H2        1.0  0.44660  0.82370  0.67130  1.0000 0.3754307513
H   H3        1.0  0.81730  0.53940  0.32630  1.0000 0.349629798
H   H4        1.0  0.18270  0.46060  0.67370  1.0000 0.349629798
H   H5        1.0  0.19850  0.45050  0.25530  1.0000 0.3754307513
H   H6        1.0  0.80150  0.54950  0.74470  1.0000 0.3754307513
H   H7        1.0  0.24340  0.31290  0.94590  1.0000 0.349629798
H   H8        1.0  0.75660  0.68710  0.05410  1.0000 0.349629798
H   H9        1.0  0.75700  0.95900  0.26670  1.0000 0.3922545796
H   H10       1.0  0.24300  0.04100  0.73330  1.0000 0.3922545796
H   H11       1.0  0.75920  0.21170  0.94710  1.0000 0.3690224175
H   H12       1.0  0.24080  0.78830  0.05290  1.0000 0.3690224175
H   H13       1.0  0.13250  0.22510  0.26570  1.0000 0.3198298697
H   H14       1.0  0.86750  0.77490  0.73430  1.0000 0.3198298697
H   H15       1.0  0.11600  0.11510  0.26810  1.0000 0.349629798
H   H16       1.0  0.88400  0.88490  0.73190  1.0000 0.349629798
H   H17       1.0  0.67150  0.46630  0.24570  1.0000 0.1200408012
H   H18       1.0  0.32850  0.53370  0.75430  1.0000 0.1200408012
H   H19       1.0  0.45390  0.50520  0.31620  1.0000 0.1200408012
H   H20       1.0  0.54610  0.49480  0.68380  1.0000 0.1200408012
H   H21       1.0  0.70380  0.43990  0.54180  1.0000 0.1200408012
H   H22       1.0  0.29620  0.56010  0.45820  1.0000 0.1200408012
H   H23       1.0  0.20260  0.48390  0.92770  1.0000 0.1295489927
H   H24       1.0  0.79740  0.51610  0.07230  1.0000 0.1295489927
H   H25       1.0  0.35840  0.63870  0.93140  1.0000 0.1200408012
H   H26       1.0  0.64160  0.36130  0.06860  1.0000 0.1200408012
H   H27       1.0  0.42390  0.32030  0.07130  1.0000 0.1200408012
H   H28       1.0  0.57610  0.67970  0.92870  1.0000 0.1200408012
H   H29       1.0  0.82050  0.02220  0.91550  1.0000 0.1385631373
H   H30       1.0  0.17950  0.97780  0.08450  1.0000 0.1385631373
H   H31       1.0  0.56520  0.13250  0.10720  1.0000 0.1200408012
H   H32       1.0  0.43480  0.86750  0.89280  1.0000 0.1200408012
H   H33       1.0  0.65260  0.90700  0.88030  1.0000 0.1200408012
H   H34       1.0  0.34740  0.09300  0.11970  1.0000 0.1200408012
C   C1        1.0  0.69530  0.43060  0.31850  1.0000 -0.151967686
C   C2        1.0  0.30470  0.56940  0.68150  1.0000 -0.151967686
C   C3        1.0  0.59430  0.46700  0.41340  1.0000 0.0600788618
C   C4        1.0  0.40570  0.53300  0.58660  1.0000 0.0600788618
C   C5        1.0  0.47280  0.50300  0.39020  1.0000 -0.1317686454
C   C6        1.0  0.52720  0.49700  0.60980  1.0000 -0.1317686454
C   C7        1.0  0.62190  0.46400  0.52480  1.0000 -0.1037933196
C   C8        1.0  0.37810  0.53600  0.47520  1.0000 -0.1037933196
C   C9        1.0  0.22700  0.44830  0.00030  1.0000 -0.1567933525
C   C10       1.0  0.77300  0.55170  0.99970  1.0000 -0.1567933525
C   C11       1.0  0.36910  0.47350  0.00020  1.0000 0.0600788618
C   C12       1.0  0.63090  0.52650  0.99980  1.0000 0.0600788618
C   C13       1.0  0.41480  0.58250  0.95860  1.0000 -0.1372250135
C   C14       1.0  0.58520  0.41750  0.04140  1.0000 -0.1372250135
C   C15       1.0  0.45400  0.39270  0.04200  1.0000 -0.1317686454
C   C16       1.0  0.54600  0.60730  0.95800  1.0000 -0.1317686454
C   C17       1.0  0.77490  0.04580  0.98720  1.0000 -0.1567933525
C   C18       1.0  0.22510  0.95420  0.01280  1.0000 -0.1567933525
C   C19       1.0  0.63160  0.02370  0.99280  1.0000 0.0767820326
C   C20       1.0  0.36840  0.97630  0.00720  1.0000 0.0767820326
C   C21       1.0  0.53930  0.07920  0.06410  1.0000 -0.1236765983
C   C22       1.0  0.46070  0.92080  0.93590  1.0000 -0.1236765983
C   C23       1.0  0.59120  0.94440  0.92860  1.0000 -0.1317686454
C   C24       1.0  0.40880  0.05560  0.07140  1.0000 -0.1317686454
O   O1        1.0  0.80040  0.25870  0.21110  1.0000 -0.8699235435
O   O2        1.0  0.19960  0.74130  0.78890  1.0000 -0.8699235435
O   O3        1.0  0.56660  0.24220  0.29960  1.0000 -0.6156524236
O   O4        1.0  0.43340  0.75780  0.70040  1.0000 -0.6156524236
O   O5        1.0  0.74410  0.21900  0.42500  1.0000 -0.6955138559
O   O6        1.0  0.25590  0.78100  0.57500  1.0000 -0.6944120045
O   O7        1.0  0.81990  0.46970  0.32810  1.0000 -0.3845590467
O   O8        1.0  0.18010  0.53030  0.67190  1.0000 -0.3845590467
O   O9        1.0  0.07830  0.62480  0.07250  1.0000 -0.8526698465
O   O10       1.0  0.92170  0.37520  0.92750  1.0000 -0.8526698465
O   O11       1.0  0.00950  0.42010  0.15140  1.0000 -0.8363875861
O   O12       1.0  0.99050  0.57990  0.84860  1.0000 -0.8363875861
O   O13       1.0  0.19420  0.51370  0.21870  1.0000 -0.5971206541
O   O14       1.0  0.80580  0.48630  0.78130  1.0000 -0.5971206541
O   O15       1.0  0.20270  0.32980  0.00910  1.0000 -0.5328679199
O   O16       1.0  0.79730  0.67020  0.99090  1.0000 -0.5328679199
O   O17       1.0  0.89560  0.85230  0.07010  1.0000 -0.8597996647
O   O18       1.0  0.10440  0.14770  0.92990  1.0000 -0.8597996647
O   O19       1.0  0.94530  0.04210  0.13830  1.0000 -0.8597996647
O   O20       1.0  0.05470  0.95790  0.86170  1.0000 -0.8597996647
O   O21       1.0  0.73390  0.94200  0.20820  1.0000 -0.59401105
O   O22       1.0  0.26610  0.05800  0.79180  1.0000 -0.59401105
O   O23       1.0  0.80070  0.16430  0.98860  1.0000 -0.5243859107
O   O24       1.0  0.19930  0.83570  0.01140  1.0000 -0.5243859107
O   O25       1.0  0.10910  0.17740  0.22520  1.0000 -0.7700592394
O   O26       1.0  0.89090  0.82260  0.77480  1.0000 -0.7700592394
