# DDEC6 charges by PACMAN v1.1 (https://github.com/mtap-research/PACMAN-charge/)
data_2017[Cd][ant]3[FSR]1
_chemical_formula_sum              "Cd8 H48 C96 N16 O32"
_cell_length_a       11.8988
_cell_length_b       24.8683
_cell_length_c       12.8119
_cell_angle_alpha    90
_cell_angle_beta     93.064
_cell_angle_gamma    90

_symmetry_space_group_name_H-M    "P 1"
_symmetry_Int_Tables_number       1

loop_
  _symmetry_equiv_pos_as_xyz
  'x, y, z'

loop_
  _atom_site_type_symbol
  _atom_site_label
  _atom_site_symmetry_multiplicity
  _atom_site_fract_x
  _atom_site_fract_y
  _atom_site_fract_z
  _atom_site_occupancy
  _atom_site_charge
Cd  Cd1       1.0  0.64318  0.62955  0.40507  1.0000 0.9186876732
Cd  Cd2       1.0  0.86114  0.62872  0.60044  1.0000 0.9186876732
Cd  Cd3       1.0  0.35682  0.12955  0.09493  1.0000 0.9186876732
Cd  Cd4       1.0  0.13886  0.12872  0.89956  1.0000 0.9186876732
Cd  Cd5       1.0  0.35682  0.37045  0.59493  1.0000 0.9186876732
Cd  Cd6       1.0  0.13886  0.37128  0.39956  1.0000 0.9186876732
Cd  Cd7       1.0  0.64318  0.87045  0.90507  1.0000 0.9186876732
Cd  Cd8       1.0  0.86114  0.87128  0.10044  1.0000 0.9186876732
H   H1        1.0  0.48400  0.52450  0.43590  1.0000 0.1123177912
H   H2        1.0  0.28870  0.59520  0.14760  1.0000 0.1231460794
H   H3        1.0  0.22740  0.51420  0.21830  1.0000 0.1282772244
H   H4        1.0  0.66610  0.73730  0.25790  1.0000 0.1123177912
H   H5        1.0  0.42010  0.74850  0.03250  1.0000 0.1282772244
H   H6        1.0  0.33950  0.67050  0.09800  1.0000 0.1231460794
H   H7        1.0  0.97040  0.47450  0.44000  1.0000 0.1123177912
H   H8        1.0  0.85670  0.43690  0.09880  1.0000 0.1231460794
H   H9        1.0  0.79400  0.51580  0.17550  1.0000 0.1282772244
H   H10       1.0  0.88630  0.35710  0.04900  1.0000 0.1231460794
H   H11       1.0  0.95790  0.27780  0.98440  1.0000 0.1282772244
H   H12       1.0  0.15920  0.26560  0.24650  1.0000 0.1123177912
H   H13       1.0  0.51600  0.02450  0.06410  1.0000 0.1123177912
H   H14       1.0  0.71130  0.09520  0.35240  1.0000 0.1231460794
H   H15       1.0  0.77260  0.01420  0.28170  1.0000 0.1282772244
H   H16       1.0  0.33390  0.23730  0.24210  1.0000 0.1123177912
H   H17       1.0  0.57990  0.24850  0.46750  1.0000 0.1282772244
H   H18       1.0  0.66050  0.17050  0.40200  1.0000 0.1231460794
H   H19       1.0  0.02960  0.97450  0.06000  1.0000 0.1123177912
H   H20       1.0  0.14330  0.93690  0.40120  1.0000 0.1231460794
H   H21       1.0  0.20600  0.01580  0.32450  1.0000 0.1282772244
H   H22       1.0  0.11370  0.85710  0.45100  1.0000 0.1231460794
H   H23       1.0  0.04210  0.77780  0.51560  1.0000 0.1282772244
H   H24       1.0  0.84080  0.76560  0.25350  1.0000 0.1123177912
H   H25       1.0  0.51600  0.47550  0.56410  1.0000 0.1123177912
H   H26       1.0  0.71130  0.40480  0.85240  1.0000 0.1231460794
H   H27       1.0  0.77260  0.48580  0.78170  1.0000 0.1282772244
H   H28       1.0  0.33390  0.26270  0.74210  1.0000 0.1123177912
H   H29       1.0  0.57990  0.25150  0.96750  1.0000 0.1282772244
H   H30       1.0  0.66050  0.32950  0.90200  1.0000 0.1231460794
H   H31       1.0  0.02960  0.52550  0.56000  1.0000 0.1123177912
H   H32       1.0  0.14330  0.56310  0.90120  1.0000 0.1231460794
H   H33       1.0  0.20600  0.48420  0.82450  1.0000 0.1282772244
H   H34       1.0  0.11370  0.64290  0.95100  1.0000 0.1231460794
H   H35       1.0  0.04210  0.72220  0.01560  1.0000 0.1282772244
H   H36       1.0  0.84080  0.73440  0.75350  1.0000 0.1123177912
H   H37       1.0  0.48400  0.97550  0.93590  1.0000 0.1123177912
H   H38       1.0  0.28870  0.90480  0.64760  1.0000 0.1231460794
H   H39       1.0  0.22740  0.98580  0.71830  1.0000 0.1282772244
H   H40       1.0  0.66610  0.76270  0.75790  1.0000 0.1123177912
H   H41       1.0  0.42010  0.75150  0.53250  1.0000 0.1282772244
H   H42       1.0  0.33950  0.82950  0.59800  1.0000 0.1231460794
H   H43       1.0  0.97040  0.02550  0.94000  1.0000 0.1123177912
H   H44       1.0  0.85670  0.06310  0.59880  1.0000 0.1231460794
H   H45       1.0  0.79400  0.98420  0.67550  1.0000 0.1282772244
H   H46       1.0  0.88630  0.14290  0.54900  1.0000 0.1231460794
H   H47       1.0  0.95790  0.22220  0.48440  1.0000 0.1282772244
H   H48       1.0  0.15920  0.23440  0.74650  1.0000 0.1123177912
C   C1        1.0  0.35090  0.51030  0.33530  1.0000 -0.0602449212
C   C2        1.0  0.44290  0.53880  0.37660  1.0000 0.0885462357
C   C3        1.0  0.41990  0.60620  0.25390  1.0000 0.1705588344
C   C4        1.0  0.32730  0.58010  0.20750  1.0000 -0.1908038855
C   C5        1.0  0.29160  0.53210  0.24870  1.0000 -0.0498305892
C   C6        1.0  0.46220  0.65800  0.21310  1.0000 0.1761354412
C   C7        1.0  0.59990  0.72320  0.22350  1.0000 0.0885462357
C   C8        1.0  0.55340  0.75060  0.13730  1.0000 -0.068553644
C   C9        1.0  0.45540  0.73050  0.09090  1.0000 -0.0498305892
C   C10       1.0  0.40790  0.68420  0.12890  1.0000 -0.1908038855
C   C11       1.0  0.31600  0.45750  0.38180  1.0000 0.5848565492
C   C12       1.0  0.61310  0.79770  0.09100  1.0000 0.5873921706
C   C13       1.0  0.87430  0.50310  0.31830  1.0000 -0.068553644
C   C14       1.0  0.94570  0.46670  0.36990  1.0000 0.0837075841
C   C15       1.0  0.94770  0.41010  0.22750  1.0000 0.1705588344
C   C16       1.0  0.87850  0.44500  0.16950  1.0000 -0.1908038855
C   C17       1.0  0.84150  0.49170  0.21470  1.0000 -0.0498305892
C   C18       1.0  0.98730  0.35880  0.18390  1.0000 0.1761354412
C   C19       1.0  0.94420  0.33830  0.08780  1.0000 -0.1908038855
C   C20       1.0  0.98560  0.29140  0.05010  1.0000 -0.0602449212
C   C21       1.0  0.06860  0.26340  0.10860  1.0000 -0.068553644
C   C22       1.0  0.10460  0.28500  0.20470  1.0000 0.0885462357
C   C23       1.0  0.83080  0.55220  0.37140  1.0000 0.5873921706
C   C24       1.0  0.11990  0.21310  0.06750  1.0000 0.5873921706
C   C25       1.0  0.64910  0.01030  0.16470  1.0000 -0.0602449212
C   C26       1.0  0.55710  0.03880  0.12340  1.0000 0.0885462357
C   C27       1.0  0.58010  0.10620  0.24610  1.0000 0.1705588344
C   C28       1.0  0.67270  0.08010  0.29250  1.0000 -0.1908038855
C   C29       1.0  0.70840  0.03210  0.25130  1.0000 -0.0498305892
C   C30       1.0  0.53780  0.15800  0.28690  1.0000 0.1761354412
C   C31       1.0  0.40010  0.22320  0.27650  1.0000 0.0885462357
C   C32       1.0  0.44660  0.25060  0.36270  1.0000 -0.068553644
C   C33       1.0  0.54460  0.23050  0.40910  1.0000 -0.0498305892
C   C34       1.0  0.59210  0.18420  0.37110  1.0000 -0.1908038855
C   C35       1.0  0.68400  0.95750  0.11820  1.0000 0.5848565492
C   C36       1.0  0.38690  0.29770  0.40900  1.0000 0.5873921706
C   C37       1.0  0.12570  0.00310  0.18170  1.0000 -0.068553644
C   C38       1.0  0.05430  0.96670  0.13010  1.0000 0.0837075841
C   C39       1.0  0.05230  0.91010  0.27250  1.0000 0.1705588344
C   C40       1.0  0.12150  0.94500  0.33050  1.0000 -0.1908038855
C   C41       1.0  0.15850  0.99170  0.28530  1.0000 -0.0498305892
C   C42       1.0  0.01270  0.85880  0.31610  1.0000 0.1761354412
C   C43       1.0  0.05580  0.83830  0.41220  1.0000 -0.1908038855
C   C44       1.0  0.01440  0.79140  0.44990  1.0000 -0.0602449212
C   C45       1.0  0.93140  0.76340  0.39140  1.0000 -0.068553644
C   C46       1.0  0.89540  0.78500  0.29530  1.0000 0.0885462357
C   C47       1.0  0.16920  0.05220  0.12860  1.0000 0.5873921706
C   C48       1.0  0.88010  0.71310  0.43250  1.0000 0.5873921706
C   C49       1.0  0.64910  0.48970  0.66470  1.0000 -0.0602449212
C   C50       1.0  0.55710  0.46120  0.62340  1.0000 0.0885462357
C   C51       1.0  0.58010  0.39380  0.74610  1.0000 0.1705588344
C   C52       1.0  0.67270  0.41990  0.79250  1.0000 -0.1908038855
C   C53       1.0  0.70840  0.46790  0.75130  1.0000 -0.0498305892
C   C54       1.0  0.53780  0.34200  0.78690  1.0000 0.1761354412
C   C55       1.0  0.40010  0.27680  0.77650  1.0000 0.0885462357
C   C56       1.0  0.44660  0.24940  0.86270  1.0000 -0.068553644
C   C57       1.0  0.54460  0.26950  0.90910  1.0000 -0.0498305892
C   C58       1.0  0.59210  0.31580  0.87110  1.0000 -0.1908038855
C   C59       1.0  0.68400  0.54250  0.61820  1.0000 0.5848565492
C   C60       1.0  0.38690  0.20230  0.90900  1.0000 0.5873921706
C   C61       1.0  0.12570  0.49690  0.68170  1.0000 -0.068553644
C   C62       1.0  0.05430  0.53330  0.63010  1.0000 0.0837075841
C   C63       1.0  0.05230  0.58990  0.77250  1.0000 0.1705588344
C   C64       1.0  0.12150  0.55500  0.83050  1.0000 -0.1908038855
C   C65       1.0  0.15850  0.50830  0.78530  1.0000 -0.0498305892
C   C66       1.0  0.01270  0.64120  0.81610  1.0000 0.1761354412
C   C67       1.0  0.05580  0.66170  0.91220  1.0000 -0.1908038855
C   C68       1.0  0.01440  0.70860  0.94990  1.0000 -0.0602449212
C   C69       1.0  0.93140  0.73660  0.89140  1.0000 -0.068553644
C   C70       1.0  0.89540  0.71500  0.79530  1.0000 0.0885462357
C   C71       1.0  0.16920  0.44780  0.62860  1.0000 0.5873921706
C   C72       1.0  0.88010  0.78690  0.93250  1.0000 0.5873921706
C   C73       1.0  0.35090  0.98970  0.83530  1.0000 -0.0602449212
C   C74       1.0  0.44290  0.96120  0.87660  1.0000 0.0885462357
C   C75       1.0  0.41990  0.89380  0.75390  1.0000 0.1705588344
C   C76       1.0  0.32730  0.91990  0.70750  1.0000 -0.1908038855
C   C77       1.0  0.29160  0.96790  0.74870  1.0000 -0.0498305892
C   C78       1.0  0.46220  0.84200  0.71310  1.0000 0.1761354412
C   C79       1.0  0.59990  0.77680  0.72350  1.0000 0.0885462357
C   C80       1.0  0.55340  0.74940  0.63730  1.0000 -0.068553644
C   C81       1.0  0.45540  0.76950  0.59090  1.0000 -0.0498305892
C   C82       1.0  0.40790  0.81580  0.62890  1.0000 -0.1908038855
C   C83       1.0  0.31600  0.04250  0.88180  1.0000 0.5848565492
C   C84       1.0  0.61310  0.70230  0.59100  1.0000 0.5873921706
C   C85       1.0  0.87430  0.99690  0.81830  1.0000 -0.068553644
C   C86       1.0  0.94570  0.03330  0.86990  1.0000 0.0837075841
C   C87       1.0  0.94770  0.08990  0.72750  1.0000 0.1705588344
C   C88       1.0  0.87850  0.05500  0.66950  1.0000 -0.1908038855
C   C89       1.0  0.84150  0.00830  0.71470  1.0000 -0.0498305892
C   C90       1.0  0.98730  0.14120  0.68390  1.0000 0.1761354412
C   C91       1.0  0.94420  0.16170  0.58780  1.0000 -0.1908038855
C   C92       1.0  0.98560  0.20860  0.55010  1.0000 -0.0602449212
C   C93       1.0  0.06860  0.23660  0.60860  1.0000 -0.068553644
C   C94       1.0  0.10460  0.21500  0.70470  1.0000 0.0885462357
C   C95       1.0  0.83080  0.94780  0.87140  1.0000 0.5873921706
C   C96       1.0  0.11990  0.28690  0.56750  1.0000 0.5873921706
N   N1        1.0  0.47680  0.58530  0.33730  1.0000 -0.2542778087
N   N2        1.0  0.55670  0.67801  0.26060  1.0000 -0.2581954654
N   N3        1.0  0.98200  0.42120  0.32670  1.0000 -0.2542778087
N   N4        1.0  0.06620  0.33170  0.24160  1.0000 -0.2581954654
N   N5        1.0  0.52320  0.08530  0.16270  1.0000 -0.2542778087
N   N6        1.0  0.44330  0.17801  0.23940  1.0000 -0.2581954654
N   N7        1.0  0.01800  0.92120  0.17330  1.0000 -0.2542778087
N   N8        1.0  0.93380  0.83170  0.25840  1.0000 -0.2581954654
N   N9        1.0  0.52320  0.41470  0.66270  1.0000 -0.2542778087
N   N10       1.0  0.44330  0.32199  0.73940  1.0000 -0.2581954654
N   N11       1.0  0.01800  0.57880  0.67330  1.0000 -0.2542778087
N   N12       1.0  0.93380  0.66830  0.75840  1.0000 -0.2581954654
N   N13       1.0  0.47680  0.91470  0.83730  1.0000 -0.2542778087
N   N14       1.0  0.55670  0.82199  0.76060  1.0000 -0.2581954654
N   N15       1.0  0.98200  0.07880  0.82670  1.0000 -0.2542778087
N   N16       1.0  0.06620  0.16830  0.74160  1.0000 -0.2581954654
O   O1        1.0  0.36200  0.44287  0.46610  1.0000 -0.5600699317
O   O2        1.0  0.24070  0.43251  0.32720  1.0000 -0.5402244386
O   O3        1.0  0.55950  0.81962  0.01410  1.0000 -0.5402244386
O   O4        1.0  0.70800  0.80998  0.12810  1.0000 -0.5600699317
O   O5        1.0  0.75050  0.57557  0.32260  1.0000 -0.5295393076
O   O6        1.0  0.87610  0.56554  0.45820  1.0000 -0.5739752558
O   O7        1.0  0.21200  0.19678  0.10870  1.0000 -0.5739752558
O   O8        1.0  0.06530  0.19147  0.99130  1.0000 -0.5402244386
O   O9        1.0  0.63800  0.94287  0.03390  1.0000 -0.5600699317
O   O10       1.0  0.75930  0.93251  0.17280  1.0000 -0.5402244386
O   O11       1.0  0.44050  0.31962  0.48590  1.0000 -0.5402244386
O   O12       1.0  0.29200  0.30998  0.37190  1.0000 -0.5600699317
O   O13       1.0  0.24950  0.07557  0.17740  1.0000 -0.5295393076
O   O14       1.0  0.12390  0.06554  0.04180  1.0000 -0.5739752558
O   O15       1.0  0.78800  0.69678  0.39130  1.0000 -0.5739752558
O   O16       1.0  0.93470  0.69147  0.50870  1.0000 -0.5402244386
O   O17       1.0  0.63800  0.55713  0.53390  1.0000 -0.5600699317
O   O18       1.0  0.75930  0.56749  0.67280  1.0000 -0.5402244386
O   O19       1.0  0.44050  0.18038  0.98590  1.0000 -0.5402244386
O   O20       1.0  0.29200  0.19002  0.87190  1.0000 -0.5600699317
O   O21       1.0  0.24950  0.42443  0.67740  1.0000 -0.5295393076
O   O22       1.0  0.12390  0.43446  0.54180  1.0000 -0.5739752558
O   O23       1.0  0.78800  0.80322  0.89130  1.0000 -0.5739752558
O   O24       1.0  0.93470  0.80853  0.00870  1.0000 -0.5402244386
O   O25       1.0  0.36200  0.05713  0.96610  1.0000 -0.5600699317
O   O26       1.0  0.24070  0.06749  0.82720  1.0000 -0.5402244386
O   O27       1.0  0.55950  0.68038  0.51410  1.0000 -0.5402244386
O   O28       1.0  0.70800  0.69002  0.62810  1.0000 -0.5600699317
O   O29       1.0  0.75050  0.92443  0.82260  1.0000 -0.5295393076
O   O30       1.0  0.87610  0.93446  0.95820  1.0000 -0.5739752558
O   O31       1.0  0.21200  0.30322  0.60870  1.0000 -0.5739752558
O   O32       1.0  0.06530  0.30853  0.49130  1.0000 -0.5402244386
