# DDEC6 charges by PACMAN v1.1 (https://github.com/mtap-research/PACMAN-charge/)
data_2017[Ag][hcb]2[FSR]13
_chemical_formula_sum              "Ag6 H126 C168 S6 N18 O54 F18"
_cell_length_a       16.7441
_cell_length_b       17.591
_cell_length_c       20.0233
_cell_angle_alpha    96.127
_cell_angle_beta     95.807
_cell_angle_gamma    117.725

_symmetry_space_group_name_H-M    "P 1"
_symmetry_Int_Tables_number       1

loop_
  _symmetry_equiv_pos_as_xyz
  'x, y, z'

loop_
  _atom_site_type_symbol
  _atom_site_label
  _atom_site_symmetry_multiplicity
  _atom_site_fract_x
  _atom_site_fract_y
  _atom_site_fract_z
  _atom_site_occupancy
  _atom_site_charge
Ag  Ag1       1.0  0.78727  0.08791  0.80455  1.0000 0.3063649864
Ag  Ag2       1.0  0.14888  0.41710  0.67762  1.0000 0.2961889039
Ag  Ag3       1.0  0.75498  0.39667  0.47830  1.0000 0.2961889039
Ag  Ag4       1.0  0.19717  0.75025  0.39455  1.0000 0.2961889039
Ag  Ag5       1.0  0.76441  0.76334  0.10971  1.0000 0.2895939976
Ag  Ag6       1.0  0.21302  0.10708  0.02260  1.0000 0.2895939976
H   H1        1.0  0.84620  0.93810  0.81040  1.0000 0.1017193159
H   H2        1.0  0.97180  0.91540  0.81980  1.0000 0.1312932999
H   H3        1.0  0.13280  0.17440  0.84140  1.0000 0.1392278286
H   H4        1.0  0.00720  0.19180  0.82280  1.0000 0.1191762621
H   H5        1.0  0.25030  0.96490  0.87190  1.0000 0.110127478
H   H6        1.0  0.22990  0.94200  0.79010  1.0000 0.1191762621
H   H7        1.0  0.93970  0.28470  0.84410  1.0000 0.110127478
H   H8        1.0  0.96290  0.42490  0.84840  1.0000 0.1392278286
H   H9        1.0  0.69080  0.33090  0.80030  1.0000 0.1392278286
H   H10       1.0  0.67140  0.18930  0.80120  1.0000 0.110127478
H   H11       1.0  0.92420  0.64840  0.87410  1.0000 0.110127478
H   H12       1.0  0.90800  0.63110  0.79240  1.0000 0.1017193159
H   H13       1.0  0.72520  0.94100  0.89910  1.0000 0.1017193159
H   H14       1.0  0.60130  0.81490  0.91800  1.0000 0.1392278286
H   H15       1.0  0.44830  0.84660  0.76370  1.0000 0.1312932999
H   H16       1.0  0.58090  0.95570  0.74220  1.0000 0.1191762621
H   H17       1.0  0.27330  0.66700  0.89370  1.0000 0.1191762621
H   H18       1.0  0.23960  0.62350  0.81450  1.0000 0.110127478
H   H19       1.0  0.03430  0.79940  0.82960  1.0000 0.1191762621
H   H20       1.0  0.08850  0.59960  0.84190  1.0000 0.1392278286
H   H21       1.0  0.29130  0.84260  0.84340  1.0000 0.1191762621
H   H22       1.0  0.93110  0.31390  0.66360  1.0000 0.110127478
H   H23       1.0  0.80320  0.33180  0.65390  1.0000 0.1392278286
H   H24       1.0  0.97010  0.59100  0.66790  1.0000 0.1312932999
H   H25       1.0  0.09350  0.56490  0.68090  1.0000 0.1017193159
H   H26       1.0  0.71500  0.56920  0.71260  1.0000 0.1191762621
H   H27       1.0  0.68730  0.54270  0.63120  1.0000 0.110127478
H   H28       1.0  0.99830  0.22110  0.64850  1.0000 0.110127478
H   H29       1.0  0.97240  0.08080  0.64790  1.0000 0.1312932999
H   H30       1.0  0.25090  0.18110  0.68440  1.0000 0.1392278286
H   H31       1.0  0.26360  0.31250  0.68190  1.0000 0.110127478
H   H32       1.0  0.03160  0.87580  0.70470  1.0000 0.1017193159
H   H33       1.0  0.01650  0.85400  0.62300  1.0000 0.110127478
H   H34       1.0  0.35690  0.53790  0.73720  1.0000 0.1191762621
H   H35       1.0  0.48920  0.65370  0.71690  1.0000 0.1312932999
H   H36       1.0  0.33730  0.69440  0.57110  1.0000 0.1392278286
H   H37       1.0  0.20960  0.58200  0.59700  1.0000 0.1017193159
H   H38       1.0  0.69580  0.88310  0.67020  1.0000 0.110127478
H   H39       1.0  0.66400  0.83370  0.59240  1.0000 0.110127478
H   H40       1.0  0.91200  0.71380  0.67180  1.0000 0.1191762621
H   H41       1.0  0.85230  0.90830  0.65130  1.0000 0.1191762621
H   H42       1.0  0.64740  0.66680  0.65500  1.0000 0.1191762621
H   H43       1.0  0.64230  0.49800  0.47970  1.0000 0.1017193159
H   H44       1.0  0.65580  0.63470  0.47030  1.0000 0.1392278286
H   H45       1.0  0.93080  0.73410  0.49990  1.0000 0.1312932999
H   H46       1.0  0.90960  0.59590  0.50890  1.0000 0.110127478
H   H47       1.0  0.89060  0.95510  0.52590  1.0000 0.110127478
H   H48       1.0  0.87640  0.93960  0.44420  1.0000 0.110127478
H   H49       1.0  0.57660  0.26280  0.37230  1.0000 0.1191762621
H   H50       1.0  0.43020  0.14880  0.36620  1.0000 0.1312932999
H   H51       1.0  0.49020  0.14480  0.56450  1.0000 0.1392278286
H   H52       1.0  0.63460  0.26470  0.56910  1.0000 0.110127478
H   H53       1.0  0.22900  0.97080  0.56990  1.0000 0.1191762621
H   H54       1.0  0.21590  0.93520  0.49040  1.0000 0.110127478
H   H55       1.0  0.81160  0.24440  0.48790  1.0000 0.1191762621
H   H56       1.0  0.93220  0.21940  0.49050  1.0000 0.1312932999
H   H57       1.0  0.09740  0.47720  0.50270  1.0000 0.1312932999
H   H58       1.0  0.96900  0.49710  0.49870  1.0000 0.110127478
H   H59       1.0  0.21600  0.27100  0.53440  1.0000 0.110127478
H   H60       1.0  0.19770  0.25140  0.45250  1.0000 0.1191762621
H   H61       1.0  0.05410  0.90590  0.50360  1.0000 0.1392278286
H   H62       1.0  0.26060  0.15030  0.51310  1.0000 0.1191762621
H   H63       1.0  0.99730  0.10000  0.47910  1.0000 0.1312932999
H   H64       1.0  0.30410  0.64000  0.40340  1.0000 0.110127478
H   H65       1.0  0.28860  0.50530  0.38530  1.0000 0.1392278286
H   H66       1.0  0.01430  0.41180  0.33220  1.0000 0.1312932999
H   H67       1.0  0.04050  0.55280  0.35370  1.0000 0.110127478
H   H68       1.0  0.06940  0.19360  0.35930  1.0000 0.1017193159
H   H69       1.0  0.05140  0.19370  0.27920  1.0000 0.1191762621
H   H70       1.0  0.14290  0.89520  0.35450  1.0000 0.110127478
H   H71       1.0  0.01740  0.91280  0.32780  1.0000 0.1312932999
H   H72       1.0  0.85270  0.65910  0.33110  1.0000 0.1312932999
H   H73       1.0  0.98310  0.64640  0.35970  1.0000 0.110127478
H   H74       1.0  0.74080  0.87310  0.33780  1.0000 0.1191762621
H   H75       1.0  0.74140  0.86700  0.25740  1.0000 0.1017193159
H   H76       1.0  0.32110  0.85440  0.29470  1.0000 0.110127478
H   H77       1.0  0.46460  0.96050  0.28600  1.0000 0.1392278286
H   H78       1.0  0.52980  0.99680  0.48810  1.0000 0.1392278286
H   H79       1.0  0.39030  0.88200  0.49120  1.0000 0.1191762621
H   H80       1.0  0.72930  0.19270  0.35170  1.0000 0.1191762621
H   H81       1.0  0.70260  0.16160  0.27080  1.0000 0.1191762621
H   H82       1.0  0.94890  0.03370  0.31690  1.0000 0.1191762621
H   H83       1.0  0.68430  0.97960  0.30460  1.0000 0.1191762621
H   H84       1.0  0.88710  0.23120  0.32350  1.0000 0.1312932999
H   H85       1.0  0.98010  0.86820  0.14640  1.0000 0.110127478
H   H86       1.0  0.10800  0.85150  0.17250  1.0000 0.1392278286
H   H87       1.0  0.94270  0.59490  0.16830  1.0000 0.1312932999
H   H88       1.0  0.81950  0.62080  0.14770  1.0000 0.110127478
H   H89       1.0  0.22010  0.64490  0.23840  1.0000 0.110127478
H   H90       1.0  0.21970  0.63850  0.15780  1.0000 0.1191762621
H   H91       1.0  0.64470  0.65880  0.21260  1.0000 0.110127478
H   H92       1.0  0.50310  0.54290  0.21780  1.0000 0.1392278286
H   H93       1.0  0.43630  0.50720  0.01140  1.0000 0.1312932999
H   H94       1.0  0.58080  0.62110  0.01160  1.0000 0.1191762621
H   H95       1.0  0.25710  0.34550  0.23150  1.0000 0.1191762621
H   H96       1.0  0.23290  0.31560  0.15020  1.0000 0.110127478
H   H97       1.0  0.91980  0.96050  0.14080  1.0000 0.110127478
H   H98       1.0  0.94340  0.10380  0.15350  1.0000 0.1312932999
H   H99       1.0  0.67170  0.00990  0.13150  1.0000 0.1312932999
H   H100      1.0  0.65420  0.86560  0.11460  1.0000 0.110127478
H   H101      1.0  0.89270  0.32300  0.13420  1.0000 0.1017193159
H   H102      1.0  0.91000  0.32480  0.21490  1.0000 0.1191762621
H   H103      1.0  0.27380  0.53030  0.19110  1.0000 0.1191762621
H   H104      1.0  0.07400  0.28180  0.17020  1.0000 0.1312932999
H   H105      1.0  0.01380  0.48050  0.17720  1.0000 0.1191762621
H   H106      1.0  0.35200  0.21730  0.93120  1.0000 0.110127478
H   H107      1.0  0.49510  0.33110  0.93420  1.0000 0.1392278286
H   H108      1.0  0.53000  0.36830  0.13710  1.0000 0.1312932999
H   H109      1.0  0.38460  0.25020  0.12900  1.0000 0.1191762621
H   H110      1.0  0.75170  0.56710  0.01520  1.0000 0.110127478
H   H111      1.0  0.73590  0.53800  0.93440  1.0000 0.1191762621
H   H112      1.0  0.32510  0.00170  0.02040  1.0000 0.110127478
H   H113      1.0  0.31250  0.86860  0.02190  1.0000 0.1392278286
H   H114      1.0  0.03830  0.77120  0.00010  1.0000 0.1392278286
H   H115      1.0  0.06030  0.91150  0.00300  1.0000 0.110127478
H   H116      1.0  0.09180  0.56120  0.04970  1.0000 0.1017193159
H   H117      1.0  0.07970  0.54970  0.96800  1.0000 0.1191762621
H   H118      1.0  0.99710  0.00580  0.99370  1.0000 0.110127478
H   H119      1.0  0.86740  0.02220  0.98040  1.0000 0.1312932999
H   H120      1.0  0.03500  0.28400  0.00860  1.0000 0.1312932999
H   H121      1.0  0.16150  0.25840  0.01990  1.0000 0.1017193159
H   H122      1.0  0.76810  0.25000  0.03600  1.0000 0.1191762621
H   H123      1.0  0.75550  0.23370  0.95440  1.0000 0.110127478
H   H124      1.0  0.91590  0.60040  0.99660  1.0000 0.1312932999
H   H125      1.0  0.96930  0.40160  0.01700  1.0000 0.1191762621
H   H126      1.0  0.70660  0.35510  0.98700  1.0000 0.1191762621
C   C1        1.0  0.90560  0.98680  0.81500  1.0000 0.068876806
C   C2        1.0  0.97980  0.97280  0.82200  1.0000 -0.1575180376
C   C3        1.0  0.06560  0.04340  0.83210  1.0000 0.000402841
C   C4        1.0  0.07370  0.12470  0.83340  1.0000 -0.1406789839
C   C5        1.0  0.99920  0.13480  0.82350  1.0000 0.068876806
C   C6        1.0  0.14970  0.03320  0.84090  1.0000 0.5002824893
C   C7        1.0  0.20240  0.92870  0.83170  1.0000 -0.0629089283
C   C8        1.0  0.88840  0.29410  0.83580  1.0000 0.0601260775
C   C9        1.0  0.90250  0.37700  0.83780  1.0000 -0.1406789839
C   C10       1.0  0.82770  0.39090  0.82420  1.0000 0.0082662994
C   C11       1.0  0.74250  0.32250  0.81010  1.0000 -0.1506930249
C   C12       1.0  0.73150  0.23760  0.81020  1.0000 0.089302337
C   C13       1.0  0.83910  0.48140  0.82480  1.0000 0.490547847
C   C14       1.0  0.94370  0.62850  0.83380  1.0000 -0.0688540424
C   C15       1.0  0.66820  0.91840  0.86960  1.0000 0.0791804683
C   C16       1.0  0.59410  0.84540  0.88350  1.0000 -0.1406789839
C   C17       1.0  0.51000  0.81920  0.84530  1.0000 -0.0090753565
C   C18       1.0  0.50520  0.86290  0.79140  1.0000 -0.1575180376
C   C19       1.0  0.58410  0.92880  0.78030  1.0000 0.0791804683
C   C20       1.0  0.42770  0.74630  0.86150  1.0000 0.5002824893
C   C21       1.0  0.26510  0.67900  0.84710  1.0000 -0.0688540424
C   C22       1.0  0.16580  0.83330  0.83510  1.0000 0.089302337
C   C23       1.0  0.07730  0.77840  0.83300  1.0000 -0.2006536766
C   C24       1.0  0.04640  0.68840  0.83560  1.0000 0.1017193159
C   C25       1.0  0.10790  0.65930  0.83980  1.0000 -0.1909172927
C   C26       1.0  0.20070  0.71710  0.84120  1.0000 0.110127478
C   C27       1.0  0.22810  0.80300  0.84030  1.0000 -0.2106897217
C   C28       1.0  0.75480  0.04520  0.57230  1.0000 0.490547847
C   C29       1.0  0.93870  0.37110  0.66530  1.0000 0.0791804683
C   C30       1.0  0.86230  0.38110  0.65900  1.0000 -0.1506930249
C   C31       1.0  0.87180  0.46370  0.66020  1.0000 0.0082662994
C   C32       1.0  0.96040  0.53320  0.66770  1.0000 -0.170627278
C   C33       1.0  0.03330  0.51700  0.67490  1.0000 0.0791804683
C   C34       1.0  0.78770  0.47550  0.65610  1.0000 0.490547847
C   C35       1.0  0.73830  0.58010  0.66920  1.0000 -0.0804420195
C   C36       1.0  0.04980  0.21180  0.65540  1.0000 0.0791804683
C   C37       1.0  0.03320  0.12780  0.65550  1.0000 -0.1575180376
C   C38       1.0  0.10860  0.11290  0.66700  1.0000 -0.0209022669
C   C39       1.0  0.19740  0.18710  0.67680  1.0000 -0.1506930249
C   C40       1.0  0.20360  0.26430  0.67500  1.0000 0.0517387495
C   C41       1.0  0.10050  0.02660  0.66940  1.0000 0.4714902819
C   C42       1.0  0.99640  0.87590  0.66200  1.0000 -0.0688540424
C   C43       1.0  0.35330  0.56940  0.70240  1.0000 0.0601260775
C   C44       1.0  0.43160  0.63860  0.69090  1.0000 -0.1406789839
C   C45       1.0  0.42670  0.68550  0.64220  1.0000 0.0082662994
C   C46       1.0  0.34290  0.66330  0.60560  1.0000 -0.1506930249
C   C47       1.0  0.26790  0.59480  0.62030  1.0000 0.089302337
C   C48       1.0  0.51140  0.76120  0.62690  1.0000 0.5002824893
C   C49       1.0  0.67240  0.82590  0.64040  1.0000 -0.0688540424
C   C50       1.0  0.77390  0.67480  0.66360  1.0000 0.110127478
C   C51       1.0  0.86810  0.73350  0.66600  1.0000 -0.2294468589
C   C52       1.0  0.89610  0.81920  0.66000  1.0000 0.110127478
C   C53       1.0  0.83230  0.84870  0.65380  1.0000 -0.2190810778
C   C54       1.0  0.73860  0.79170  0.65120  1.0000 0.1191762621
C   C55       1.0  0.71060  0.70560  0.65640  1.0000 -0.2190810778
C   C56       1.0  0.22250  0.43160  0.92210  1.0000 0.4571468265
C   C57       1.0  0.70180  0.54640  0.48390  1.0000 0.089302337
C   C58       1.0  0.70930  0.62860  0.47880  1.0000 -0.1506930249
C   C59       1.0  0.79480  0.70020  0.48630  1.0000 -0.0090753565
C   C60       1.0  0.87070  0.68690  0.49630  1.0000 -0.1406789839
C   C61       1.0  0.85730  0.60390  0.50080  1.0000 0.068876806
C   C62       1.0  0.80380  0.78690  0.48180  1.0000 0.490547847
C   C63       1.0  0.91060  0.93550  0.48570  1.0000 -0.0688540424
C   C64       1.0  0.55810  0.24040  0.41240  1.0000 0.0791804683
C   C65       1.0  0.47130  0.17180  0.40850  1.0000 -0.1575180376
C   C66       1.0  0.44390  0.13630  0.46590  1.0000 -0.0209022669
C   C67       1.0  0.50580  0.16980  0.52480  1.0000 -0.1406789839
C   C68       1.0  0.59260  0.24110  0.52730  1.0000 0.110127478
C   C69       1.0  0.35010  0.06440  0.46040  1.0000 0.490547847
C   C70       1.0  0.23330  0.98790  0.52430  1.0000 -0.0688540424
C   C71       1.0  0.87070  0.29270  0.49030  1.0000 0.0791804683
C   C72       1.0  0.94150  0.27730  0.49310  1.0000 -0.1575180376
C   C73       1.0  0.02910  0.34680  0.50000  1.0000 -0.0010126803
C   C74       1.0  0.03850  0.42860  0.50020  1.0000 -0.1506930249
C   C75       1.0  0.96170  0.44000  0.49670  1.0000 0.089302337
C   C76       1.0  0.11380  0.33750  0.50350  1.0000 0.4836093516
C   C77       1.0  0.16910  0.23580  0.49340  1.0000 -0.0688540424
C   C78       1.0  0.07460  0.96560  0.50080  1.0000 -0.1909172927
C   C79       1.0  0.16720  0.02170  0.50890  1.0000 0.1191762621
C   C80       1.0  0.19690  0.11020  0.50650  1.0000 -0.2190810778
C   C81       1.0  0.13360  0.13900  0.49460  1.0000 0.110127478
C   C82       1.0  0.04100  0.08030  0.48650  1.0000 -0.2106897217
C   C83       1.0  0.01180  0.99300  0.48900  1.0000 0.110127478
C   C84       1.0  0.76940  0.42590  0.23570  1.0000 0.5002824893
C   C85       1.0  0.24420  0.59240  0.38770  1.0000 0.0426607758
C   C86       1.0  0.23620  0.51320  0.37780  1.0000 -0.1506930249
C   C87       1.0  0.14940  0.44200  0.35630  1.0000 0.0082662994
C   C88       1.0  0.07490  0.45840  0.34680  1.0000 -0.1506930249
C   C89       1.0  0.09150  0.54260  0.35880  1.0000 0.068876806
C   C90       1.0  0.13690  0.34990  0.34410  1.0000 0.4836093516
C   C91       1.0  0.03260  0.20410  0.32310  1.0000 -0.0629089283
C   C92       1.0  0.08370  0.84630  0.34980  1.0000 0.0601260775
C   C93       1.0  0.00880  0.85680  0.33410  1.0000 -0.1575180376
C   C94       1.0  0.92220  0.79010  0.32710  1.0000 0.0082662994
C   C95       1.0  0.91170  0.70840  0.33610  1.0000 -0.1575180376
C   C96       1.0  0.99030  0.70160  0.35250  1.0000 0.0791804683
C   C97       1.0  0.83830  0.79990  0.31170  1.0000 0.5002824893
C   C98       1.0  0.77940  0.89660  0.30290  1.0000 -0.0804420195
C   C99       1.0  0.36570  0.88200  0.33510  1.0000 0.0517387495
C   C100      1.0  0.44950  0.94630  0.32910  1.0000 -0.1506930249
C   C101      1.0  0.50950  0.98860  0.38670  1.0000 0.0082662994
C   C102      1.0  0.48740  0.96590  0.44700  1.0000 -0.1406789839
C   C103      1.0  0.40430  0.89860  0.44850  1.0000 0.068876806
C   C104      1.0  0.60440  0.06620  0.38380  1.0000 0.508475098
C   C105      1.0  0.70700  0.14170  0.31480  1.0000 -0.0804420195
C   C106      1.0  0.93240  0.14120  0.31960  1.0000 0.110127478
C   C107      1.0  0.90430  0.05280  0.31560  1.0000 -0.2190810778
C   C108      1.0  0.81310  0.99230  0.31000  1.0000 0.110127478
C   C109      1.0  0.74740  0.02100  0.30970  1.0000 -0.2294468589
C   C110      1.0  0.77420  0.11000  0.31680  1.0000 0.110127478
C   C111      1.0  0.86810  0.17080  0.32050  1.0000 -0.2190810778
C   C112      1.0  0.17840  0.77580  0.64180  1.0000 0.490547847
C   C113      1.0  0.97250  0.81210  0.15070  1.0000 0.0601260775
C   C114      1.0  0.04870  0.80230  0.16590  1.0000 -0.1406789839
C   C115      1.0  0.03930  0.72230  0.17140  1.0000 0.0191974633
C   C116      1.0  0.95200  0.65160  0.16420  1.0000 -0.170627278
C   C117      1.0  0.87950  0.66810  0.15080  1.0000 0.089302337
C   C118      1.0  0.12460  0.71280  0.18400  1.0000 0.490547847
C   C119      1.0  0.18180  0.61500  0.19300  1.0000 -0.0688540424
C   C120      1.0  0.60240  0.62690  0.17170  1.0000 0.0791804683
C   C121      1.0  0.51760  0.55830  0.17490  1.0000 -0.1575180376
C   C122      1.0  0.45370  0.51180  0.11620  1.0000 -0.0090753565
C   C123      1.0  0.47810  0.53660  0.05300  1.0000 -0.1575180376
C   C124      1.0  0.56390  0.60450  0.05380  1.0000 0.0791804683
C   C125      1.0  0.36030  0.43980  0.11630  1.0000 0.490547847
C   C126      1.0  0.25400  0.36590  0.18760  1.0000 -0.0629089283
C   C127      1.0  0.86810  0.96970  0.13710  1.0000 0.0791804683
C   C128      1.0  0.88300  0.05610  0.14560  1.0000 -0.1245141297
C   C129      1.0  0.81150  0.06990  0.14240  1.0000 0.0082662994
C   C130      1.0  0.72350  0.00080  0.13220  1.0000 -0.1506930249
C   C131      1.0  0.71390  0.91450  0.12250  1.0000 0.068876806
C   C132      1.0  0.82170  0.15900  0.14970  1.0000 0.5002824893
C   C133      1.0  0.92810  0.31230  0.17130  1.0000 -0.0804420195
C   C134      1.0  0.14760  0.51800  0.18590  1.0000 0.1017193159
C   C135      1.0  0.21080  0.48940  0.18750  1.0000 -0.2106897217
C   C136      1.0  0.18470  0.40330  0.18390  1.0000 0.1191762621
C   C137      1.0  0.09210  0.34220  0.17530  1.0000 -0.2006536766
C   C138      1.0  0.02740  0.36880  0.17410  1.0000 0.110127478
C   C139      1.0  0.05750  0.46030  0.17890  1.0000 -0.2106897217
C   C140      1.0  0.77480  0.73280  0.85930  1.0000 0.490547847
C   C141      1.0  0.38850  0.24800  0.97450  1.0000 0.0791804683
C   C142      1.0  0.47340  0.31620  0.97550  1.0000 -0.1575180376
C   C143      1.0  0.52490  0.36080  0.03500  1.0000 0.0082662994
C   C144      1.0  0.49360  0.33740  0.09390  1.0000 -0.1575180376
C   C145      1.0  0.40710  0.26720  0.08840  1.0000 0.0601260775
C   C146      1.0  0.61900  0.43850  0.04120  1.0000 0.508475098
C   C147      1.0  0.73310  0.51690  0.97840  1.0000 -0.0688540424
C   C148      1.0  0.26560  0.95340  0.01660  1.0000 0.0517387495
C   C149      1.0  0.25960  0.87610  0.01840  1.0000 -0.1506930249
C   C150      1.0  0.17110  0.80490  0.01490  1.0000 0.0191974633
C   C151      1.0  0.09860  0.81880  0.00610  1.0000 -0.1406789839
C   C152      1.0  0.11170  0.90180  0.00590  1.0000 0.089302337
C   C153      1.0  0.16320  0.71460  0.01630  1.0000 0.490547847
C   C154      1.0  0.05840  0.56700  0.00850  1.0000 -0.0688540424
C   C155      1.0  0.00450  0.06300  0.99610  1.0000 0.0791804683
C   C156      1.0  0.92660  0.07180  0.98900  1.0000 -0.1406789839
C   C157      1.0  0.93770  0.15560  0.99500  1.0000 -0.0090753565
C   C158      1.0  0.02590  0.22610  0.00550  1.0000 -0.170627278
C   C159      1.0  0.10120  0.21040  0.01170  1.0000 0.089302337
C   C160      1.0  0.85640  0.16830  0.99030  1.0000 0.490547847
C   C161      1.0  0.79990  0.26760  0.99670  1.0000 -0.0688540424
C   C162      1.0  0.79950  0.48020  0.98790  1.0000 0.1191762621
C   C163      1.0  0.89530  0.54010  0.99610  1.0000 -0.2190810778
C   C164      1.0  0.95730  0.50950  0.00340  1.0000 0.1191762621
C   C165      1.0  0.92580  0.42110  0.00730  1.0000 -0.2190810778
C   C166      1.0  0.83410  0.36190  0.99760  1.0000 0.110127478
C   C167      1.0  0.77010  0.39400  0.99030  1.0000 -0.2294468589
C   C168      1.0  0.18620  0.08930  0.26220  1.0000 0.4714902819
S   S1        1.0  0.74810  0.11300  0.64195  1.0000 0.9796195359
S   S2        1.0  0.16210  0.42480  0.84380  1.0000 0.9796195359
S   S3        1.0  0.80680  0.41020  0.32030  1.0000 0.9660568267
S   S4        1.0  0.14370  0.73720  0.55099  1.0000 0.9660568267
S   S5        1.0  0.81730  0.77030  0.95100  1.0000 0.9599097104
S   S6        1.0  0.15570  0.10140  0.17887  1.0000 0.9796195359
N   N1        1.0  0.91280  0.06710  0.81430  1.0000 -0.2106897217
N   N2        1.0  0.80180  0.22350  0.82230  1.0000 -0.1802194454
N   N3        1.0  0.66470  0.95850  0.81820  1.0000 -0.1909172927
N   N4        1.0  0.02340  0.43770  0.67380  1.0000 -0.2006536766
N   N5        1.0  0.13320  0.28190  0.66440  1.0000 -0.1909172927
N   N6        1.0  0.27000  0.54570  0.66390  1.0000 -0.1909172927
N   N7        1.0  0.77250  0.53260  0.49420  1.0000 -0.1909172927
N   N8        1.0  0.61740  0.27650  0.47200  1.0000 -0.1802194454
N   N9        1.0  0.87680  0.37150  0.49060  1.0000 -0.1909172927
N   N10       1.0  0.17490  0.61150  0.37740  1.0000 -0.1909172927
N   N11       1.0  0.07620  0.76780  0.35900  1.0000 -0.2006536766
N   N12       1.0  0.34080  0.85450  0.39300  1.0000 -0.1802194454
N   N13       1.0  0.88680  0.74380  0.14190  1.0000 -0.2006536766
N   N14       1.0  0.62590  0.64920  0.11180  1.0000 -0.1909172927
N   N15       1.0  0.78570  0.90100  0.12440  1.0000 -0.1909172927
N   N16       1.0  0.35350  0.22190  0.02820  1.0000 -0.1802194454
N   N17       1.0  0.19510  0.96910  0.00980  1.0000 -0.1802194454
N   N18       1.0  0.08940  0.12960  0.00620  1.0000 -0.2006536766
O   O1        1.0  0.22650  0.09220  0.85280  1.0000 -0.4665809144
O   O2        1.0  0.12740  0.94780  0.83040  1.0000 -0.2106897217
O   O3        1.0  0.77680  0.49640  0.81580  1.0000 -0.4392581204
O   O4        1.0  0.92670  0.54180  0.83360  1.0000 -0.2006536766
O   O5        1.0  0.42930  0.69280  0.89700  1.0000 -0.491222617
O   O6        1.0  0.35210  0.74180  0.83200  1.0000 -0.2407751798
O   O7        1.0  0.84280  0.16570  0.67290  1.0000 -0.5782143741
O   O8        1.0  0.69540  0.05140  0.68230  1.0000 -0.5604839146
O   O9        1.0  0.70510  0.15790  0.61180  1.0000 -0.5507995328
O   O10       1.0  0.71150  0.41620  0.64350  1.0000 -0.4665809144
O   O11       1.0  0.81150  0.55950  0.66680  1.0000 -0.2106897217
O   O12       1.0  0.16250  0.01290  0.68140  1.0000 -0.4301314622
O   O13       1.0  0.01190  0.96430  0.65820  1.0000 -0.2190810778
O   O14       1.0  0.50860  0.80870  0.59180  1.0000 -0.4301314622
O   O15       1.0  0.58630  0.76360  0.65650  1.0000 -0.2294468589
O   O16       1.0  0.23330  0.45340  0.80110  1.0000 -0.5604839146
O   O17       1.0  0.13070  0.48660  0.86580  1.0000 -0.5782143741
O   O18       1.0  0.09560  0.33690  0.82200  1.0000 -0.5507995328
O   O19       1.0  0.74210  0.80360  0.47670  1.0000 -0.4392581204
O   O20       1.0  0.89170  0.84620  0.48450  1.0000 -0.2106897217
O   O21       1.0  0.29960  0.02350  0.40840  1.0000 -0.4392581204
O   O22       1.0  0.32730  0.05220  0.52320  1.0000 -0.2190810778
O   O23       1.0  0.18900  0.39570  0.51400  1.0000 -0.4392581204
O   O24       1.0  0.09430  0.25330  0.49230  1.0000 -0.2006536766
O   O25       1.0  0.72170  0.37180  0.34700  1.0000 -0.5604839146
O   O26       1.0  0.84420  0.35430  0.30650  1.0000 -0.5392155915
O   O27       1.0  0.87120  0.49640  0.35460  1.0000 -0.5507995328
O   O28       1.0  0.19940  0.33510  0.34480  1.0000 -0.4392581204
O   O29       1.0  0.05020  0.29050  0.33690  1.0000 -0.2006536766
O   O30       1.0  0.76190  0.73880  0.30420  1.0000 -0.4813452035
O   O31       1.0  0.85710  0.87920  0.31140  1.0000 -0.2106897217
O   O32       1.0  0.65810  0.11120  0.43530  1.0000 -0.458804664
O   O33       1.0  0.61770  0.07760  0.32240  1.0000 -0.2190810778
O   O34       1.0  0.09570  0.64550  0.54520  1.0000 -0.5507995328
O   O35       1.0  0.22860  0.77330  0.52690  1.0000 -0.5507995328
O   O36       1.0  0.08950  0.77700  0.53000  1.0000 -0.5689374178
O   O37       1.0  0.20120  0.77320  0.19260  1.0000 -0.4665809144
O   O38       1.0  0.10470  0.63000  0.18510  1.0000 -0.2106897217
O   O39       1.0  0.30670  0.39640  0.06610  1.0000 -0.4392581204
O   O40       1.0  0.34320  0.43330  0.18140  1.0000 -0.2190810778
O   O41       1.0  0.75850  0.17480  0.15040  1.0000 -0.4518619895
O   O42       1.0  0.90960  0.22050  0.15840  1.0000 -0.2190810778
O   O43       1.0  0.73420  0.73140  0.97910  1.0000 -0.5507995328
O   O44       1.0  0.86130  0.86200  0.96040  1.0000 -0.5392155915
O   O45       1.0  0.87630  0.73070  0.96410  1.0000 -0.5782143741
O   O46       1.0  0.66810  0.48170  0.09440  1.0000 -0.4518619895
O   O47       1.0  0.64140  0.45220  0.97960  1.0000 -0.2106897217
O   O48       1.0  0.22620  0.70040  0.02030  1.0000 -0.4249132245
O   O49       1.0  0.07570  0.65520  0.01230  1.0000 -0.2106897217
O   O50       1.0  0.77720  0.10490  0.97540  1.0000 -0.5008895963
O   O51       1.0  0.87410  0.24980  0.00030  1.0000 -0.2006536766
O   O52       1.0  0.24110  0.14070  0.15490  1.0000 -0.5507995328
O   O53       1.0  0.11500  0.15740  0.18800  1.0000 -0.5604839146
O   O54       1.0  0.09400  0.01370  0.14460  1.0000 -0.5689374178
F   F1        1.0  0.80210  0.09180  0.52650  1.0000 -0.1909172927
F   F2        1.0  0.79680  0.00240  0.59350  1.0000 -0.1802194454
F   F3        1.0  0.67180  0.98550  0.53680  1.0000 -0.170627278
F   F4        1.0  0.25520  0.36930  0.91220  1.0000 -0.2190810778
F   F5        1.0  0.29190  0.50810  0.94690  1.0000 -0.1506930249
F   F6        1.0  0.16820  0.41040  0.96790  1.0000 -0.170627278
F   F7        1.0  0.74090  0.48380  0.24110  1.0000 -0.1802194454
F   F8        1.0  0.70360  0.35230  0.19960  1.0000 -0.170627278
F   F9        1.0  0.83860  0.45270  0.20210  1.0000 -0.1802194454
F   F10       1.0  0.22790  0.74530  0.67050  1.0000 -0.170627278
F   F11       1.0  0.10250  0.74920  0.67220  1.0000 -0.1909172927
F   F12       1.0  0.22440  0.86200  0.65660  1.0000 -0.170627278
F   F13       1.0  0.71880  0.76090  0.83590  1.0000 -0.1802194454
F   F14       1.0  0.73360  0.64930  0.84300  1.0000 -0.1575180376
F   F15       1.0  0.84500  0.76120  0.82690  1.0000 -0.1802194454
F   F16       1.0  0.21630  0.03350  0.26440  1.0000 -0.1575180376
F   F17       1.0  0.25020  0.16300  0.30100  1.0000 -0.170627278
F   F18       1.0  0.11420  0.05810  0.29530  1.0000 -0.1802194454
