# DDEC6 charges by PACMAN v1.1 (https://github.com/mtap-research/PACMAN-charge/)
data_2017[Gd][nan]3[FSR]4
_chemical_formula_sum              "Gd4 H96 C112 N8 O36"
_cell_length_a       15.894
_cell_length_b       10.491
_cell_length_c       20.909
_cell_angle_alpha    90
_cell_angle_beta     107.841
_cell_angle_gamma    90

_symmetry_space_group_name_H-M    "P 1"
_symmetry_Int_Tables_number       1

loop_
  _symmetry_equiv_pos_as_xyz
  'x, y, z'

loop_
  _atom_site_type_symbol
  _atom_site_label
  _atom_site_symmetry_multiplicity
  _atom_site_fract_x
  _atom_site_fract_y
  _atom_site_fract_z
  _atom_site_occupancy
  _atom_site_charge
Gd  Gd1       1.0  0.10063  0.92182  0.45446  1.0000 2.06555159
Gd  Gd2       1.0  0.89938  0.92182  0.04554  1.0000 2.06555159
Gd  Gd3       1.0  0.89938  0.07818  0.54554  1.0000 2.06555159
Gd  Gd4       1.0  0.10063  0.07818  0.95446  1.0000 2.06555159
H   H1        1.0  0.61850  0.48720  0.16220  1.0000 0.129281618
H   H2        1.0  0.38151  0.48720  0.33780  1.0000 0.129281618
H   H3        1.0  0.38151  0.51280  0.83780  1.0000 0.129281618
H   H4        1.0  0.61850  0.51280  0.66220  1.0000 0.129281618
H   H5        1.0  0.66860  0.38430  0.13350  1.0000 0.129281618
H   H6        1.0  0.33141  0.38430  0.36650  1.0000 0.129281618
H   H7        1.0  0.33141  0.61570  0.86650  1.0000 0.129281618
H   H8        1.0  0.66860  0.61570  0.63350  1.0000 0.129281618
H   H9        1.0  0.49200  0.43270  0.06030  1.0000 0.1225464722
H   H10       1.0  0.50801  0.43270  0.43970  1.0000 0.1225464722
H   H11       1.0  0.50801  0.56730  0.93970  1.0000 0.1225464722
H   H12       1.0  0.49199  0.56730  0.56030  1.0000 0.1225464722
H   H13       1.0  0.36319  0.31640  0.01990  1.0000 0.129281618
H   H14       1.0  0.63680  0.31640  0.48010  1.0000 0.129281618
H   H15       1.0  0.63680  0.68360  0.98010  1.0000 0.129281618
H   H16       1.0  0.36319  0.68360  0.51990  1.0000 0.129281618
H   H17       1.0  0.44889  0.07180  0.17230  1.0000 0.1225464722
H   H18       1.0  0.55110  0.07180  0.32770  1.0000 0.1225464722
H   H19       1.0  0.55110  0.92820  0.82770  1.0000 0.1225464722
H   H20       1.0  0.44889  0.92820  0.67230  1.0000 0.1225464722
H   H21       1.0  0.57800  0.18770  0.21150  1.0000 0.129281618
H   H22       1.0  0.42201  0.18770  0.28850  1.0000 0.129281618
H   H23       1.0  0.42201  0.81230  0.78850  1.0000 0.129281618
H   H24       1.0  0.57800  0.81230  0.71150  1.0000 0.129281618
H   H25       1.0  0.73450  0.21250  0.14870  1.0000 0.129281618
H   H26       1.0  0.26550  0.21250  0.35130  1.0000 0.129281618
H   H27       1.0  0.26550  0.78750  0.85130  1.0000 0.129281618
H   H28       1.0  0.73450  0.78750  0.64870  1.0000 0.129281618
H   H29       1.0  0.93200  0.02540  0.28120  1.0000 0.1497459268
H   H30       1.0  0.06800  0.02540  0.21880  1.0000 0.1497459268
H   H31       1.0  0.06800  0.97460  0.71880  1.0000 0.1497459268
H   H32       1.0  0.93200  0.97460  0.78120  1.0000 0.1497459268
H   H33       1.0  0.79410  0.29050  0.34600  1.0000 0.1398867764
H   H34       1.0  0.20591  0.29050  0.15400  1.0000 0.1398867764
H   H35       1.0  0.20591  0.70950  0.65400  1.0000 0.1398867764
H   H36       1.0  0.79410  0.70950  0.84600  1.0000 0.1398867764
H   H37       1.0  0.60080  0.45280  0.26680  1.0000 0.1225464722
H   H38       1.0  0.39920  0.45280  0.23320  1.0000 0.1225464722
H   H39       1.0  0.39920  0.54720  0.73320  1.0000 0.1225464722
H   H40       1.0  0.60080  0.54720  0.76680  1.0000 0.1225464722
H   H41       1.0  0.66180  0.35760  0.31800  1.0000 0.129281618
H   H42       1.0  0.33821  0.35760  0.18200  1.0000 0.129281618
H   H43       1.0  0.33821  0.64240  0.68200  1.0000 0.129281618
H   H44       1.0  0.66180  0.64240  0.81800  1.0000 0.129281618
H   H45       1.0  0.81170  0.52380  0.27460  1.0000 0.1225464722
H   H46       1.0  0.18831  0.52380  0.22540  1.0000 0.1225464722
H   H47       1.0  0.18830  0.47620  0.72540  1.0000 0.1225464722
H   H48       1.0  0.81170  0.47620  0.77460  1.0000 0.1225464722
H   H49       1.0  0.89929  0.68620  0.33350  1.0000 0.1398867764
H   H50       1.0  0.10071  0.68620  0.16650  1.0000 0.1398867764
H   H51       1.0  0.10071  0.31380  0.66650  1.0000 0.1398867764
H   H52       1.0  0.89929  0.31380  0.83350  1.0000 0.1398867764
H   H53       1.0  0.72610  0.74920  0.43300  1.0000 0.1398867764
H   H54       1.0  0.27391  0.74920  0.06700  1.0000 0.1398867764
H   H55       1.0  0.27391  0.25080  0.56700  1.0000 0.1398867764
H   H56       1.0  0.72610  0.25080  0.93300  1.0000 0.1398867764
H   H57       1.0  0.64089  0.57960  0.37770  1.0000 0.1225464722
H   H58       1.0  0.35911  0.57960  0.12230  1.0000 0.1225464722
H   H59       1.0  0.35911  0.42040  0.62230  1.0000 0.1225464722
H   H60       1.0  0.64089  0.42040  0.87770  1.0000 0.1225464722
H   H61       1.0  0.06959  0.46550  0.49270  1.0000 0.1075587475
H   H62       1.0  0.93041  0.46550  0.00730  1.0000 0.1075587475
H   H63       1.0  0.93041  0.53450  0.50730  1.0000 0.1075587475
H   H64       1.0  0.06959  0.53450  0.99270  1.0000 0.1075587475
H   H65       1.0  0.10100  0.59300  0.53180  1.0000 0.1497459268
H   H66       1.0  0.89901  0.59300  0.96820  1.0000 0.1497459268
H   H67       1.0  0.89901  0.40700  0.46820  1.0000 0.1497459268
H   H68       1.0  0.10100  0.40700  0.03180  1.0000 0.1497459268
H   H69       1.0  0.01039  0.58770  0.47440  1.0000 0.1497459268
H   H70       1.0  0.98960  0.58770  0.02560  1.0000 0.1497459268
H   H71       1.0  0.98960  0.41230  0.52560  1.0000 0.1497459268
H   H72       1.0  0.01040  0.41230  0.97440  1.0000 0.1497459268
H   H73       1.0  0.09510  0.46000  0.30800  1.0000 0.129281618
H   H74       1.0  0.90491  0.46000  0.19200  1.0000 0.129281618
H   H75       1.0  0.90491  0.54000  0.69200  1.0000 0.129281618
H   H76       1.0  0.09509  0.54000  0.80800  1.0000 0.129281618
H   H77       1.0  0.05299  0.59140  0.31690  1.0000 0.1497459268
H   H78       1.0  0.94701  0.59140  0.18310  1.0000 0.1497459268
H   H79       1.0  0.94701  0.40860  0.68310  1.0000 0.1497459268
H   H80       1.0  0.05299  0.40860  0.81690  1.0000 0.1497459268
H   H81       1.0  0.15599  0.57770  0.33590  1.0000 0.1398867764
H   H82       1.0  0.84401  0.57770  0.16410  1.0000 0.1398867764
H   H83       1.0  0.84401  0.42230  0.66410  1.0000 0.1398867764
H   H84       1.0  0.15599  0.42230  0.83590  1.0000 0.1398867764
H   H85       1.0  0.09549  0.32060  0.37270  1.0000 0.1398867764
H   H86       1.0  0.90451  0.32060  0.12730  1.0000 0.1398867764
H   H87       1.0  0.90451  0.67940  0.62730  1.0000 0.1398867764
H   H88       1.0  0.09549  0.67940  0.87270  1.0000 0.1398867764
H   H89       1.0  0.16420  0.33890  0.44410  1.0000 0.1398867764
H   H90       1.0  0.83581  0.33890  0.05590  1.0000 0.1398867764
H   H91       1.0  0.83580  0.66110  0.55590  1.0000 0.1398867764
H   H92       1.0  0.16420  0.66110  0.94410  1.0000 0.1398867764
H   H93       1.0  0.06270  0.34200  0.43530  1.0000 0.1497459268
H   H94       1.0  0.93731  0.34200  0.06470  1.0000 0.1497459268
H   H95       1.0  0.93731  0.65800  0.56470  1.0000 0.1497459268
H   H96       1.0  0.06270  0.65800  0.93530  1.0000 0.1497459268
C   C1        1.0  0.63390  0.39750  0.16390  1.0000 -0.1669104213
C   C2        1.0  0.36611  0.39750  0.33610  1.0000 -0.1669104213
C   C3        1.0  0.36611  0.60250  0.83610  1.0000 -0.1669104213
C   C4        1.0  0.63390  0.60250  0.66390  1.0000 -0.1669104213
C   C5        1.0  0.54959  0.31970  0.13940  1.0000 0.1075587475
C   C6        1.0  0.45040  0.31970  0.36060  1.0000 0.1075587475
C   C7        1.0  0.45040  0.68030  0.86060  1.0000 0.1075587475
C   C8        1.0  0.54959  0.68030  0.63940  1.0000 0.1075587475
C   C9        1.0  0.48420  0.35900  0.08250  1.0000 -0.1789487789
C   C10       1.0  0.51580  0.35900  0.41750  1.0000 -0.1789487789
C   C11       1.0  0.51580  0.64100  0.91750  1.0000 -0.1789487789
C   C12       1.0  0.48420  0.64100  0.58250  1.0000 -0.1789487789
C   C13       1.0  0.40679  0.28910  0.05820  1.0000 -0.0828787618
C   C14       1.0  0.59320  0.28910  0.44180  1.0000 -0.0828787618
C   C15       1.0  0.59320  0.71090  0.94180  1.0000 -0.0828787618
C   C16       1.0  0.40680  0.71090  0.55820  1.0000 -0.0828787618
C   C17       1.0  0.39410  0.17940  0.09050  1.0000 -0.0438099208
C   C18       1.0  0.60591  0.17940  0.40950  1.0000 -0.0438099208
C   C19       1.0  0.60591  0.82060  0.90950  1.0000 -0.0438099208
C   C20       1.0  0.39410  0.82060  0.59050  1.0000 -0.0438099208
C   C21       1.0  0.45770  0.14320  0.14880  1.0000 -0.0828787618
C   C22       1.0  0.54231  0.14320  0.35120  1.0000 -0.0828787618
C   C23       1.0  0.54231  0.85680  0.85120  1.0000 -0.0828787618
C   C24       1.0  0.45770  0.85680  0.64880  1.0000 -0.0828787618
C   C25       1.0  0.53509  0.21350  0.17240  1.0000 -0.1497465539
C   C26       1.0  0.46491  0.21350  0.32760  1.0000 -0.1497465539
C   C27       1.0  0.46491  0.78650  0.82760  1.0000 -0.1497465539
C   C28       1.0  0.53509  0.78650  0.67240  1.0000 -0.1497465539
C   C29       1.0  0.31239  0.10520  0.06350  1.0000 0.5914525499
C   C30       1.0  0.68761  0.10520  0.43650  1.0000 0.5914525499
C   C31       1.0  0.68761  0.89480  0.93650  1.0000 0.5914525499
C   C32       1.0  0.31239  0.89480  0.56350  1.0000 0.5914525499
C   C33       1.0  0.75179  0.27180  0.24420  1.0000 0.1798192633
C   C34       1.0  0.24821  0.27180  0.25580  1.0000 0.1798192633
C   C35       1.0  0.24821  0.72820  0.75580  1.0000 0.1798192633
C   C36       1.0  0.75179  0.72820  0.74420  1.0000 0.1798192633
C   C37       1.0  0.76850  0.19900  0.19300  1.0000 -0.2088060716
C   C38       1.0  0.23151  0.19900  0.30700  1.0000 -0.2088060716
C   C39       1.0  0.23151  0.80100  0.80700  1.0000 -0.2088060716
C   C40       1.0  0.76850  0.80100  0.69300  1.0000 -0.2088060716
C   C41       1.0  0.83400  0.10810  0.20720  1.0000 0.0212645435
C   C42       1.0  0.16601  0.10810  0.29280  1.0000 0.0212645435
C   C43       1.0  0.16600  0.89190  0.79280  1.0000 0.0212645435
C   C44       1.0  0.83400  0.89190  0.70720  1.0000 0.0212645435
C   C45       1.0  0.88700  0.08570  0.27220  1.0000 -0.1107004846
C   C46       1.0  0.11301  0.08570  0.22780  1.0000 -0.1107004846
C   C47       1.0  0.11300  0.91430  0.72780  1.0000 -0.1107004846
C   C48       1.0  0.88700  0.91430  0.77220  1.0000 -0.1107004846
C   C49       1.0  0.87120  0.15570  0.32400  1.0000 0.0051757437
C   C50       1.0  0.12880  0.15570  0.17600  1.0000 0.0051757437
C   C51       1.0  0.12880  0.84430  0.67600  1.0000 0.0051757437
C   C52       1.0  0.87120  0.84430  0.82400  1.0000 0.0051757437
C   C53       1.0  0.80439  0.24610  0.31060  1.0000 -0.1913555974
C   C54       1.0  0.19560  0.24610  0.18940  1.0000 -0.1913555974
C   C55       1.0  0.19560  0.75390  0.68940  1.0000 -0.1913555974
C   C56       1.0  0.80439  0.75390  0.81060  1.0000 -0.1913555974
C   C57       1.0  0.92500  0.13270  0.39630  1.0000 0.6404887026
C   C58       1.0  0.07501  0.13270  0.10370  1.0000 0.6404887026
C   C59       1.0  0.07501  0.86730  0.60370  1.0000 0.6404887026
C   C60       1.0  0.92500  0.86730  0.89630  1.0000 0.6404887026
C   C61       1.0  0.84689  0.03160  0.14910  1.0000 0.5549992433
C   C62       1.0  0.15310  0.03160  0.35090  1.0000 0.5549992433
C   C63       1.0  0.15310  0.96840  0.85090  1.0000 0.5549992433
C   C64       1.0  0.84689  0.96840  0.64910  1.0000 0.5549992433
C   C65       1.0  0.66119  0.42300  0.28510  1.0000 -0.1669104213
C   C66       1.0  0.33881  0.42300  0.21490  1.0000 -0.1669104213
C   C67       1.0  0.33881  0.57700  0.71490  1.0000 -0.1669104213
C   C68       1.0  0.66119  0.57700  0.78510  1.0000 -0.1669104213
C   C69       1.0  0.79480  0.56720  0.30740  1.0000 -0.1446382145
C   C70       1.0  0.20520  0.56720  0.19260  1.0000 -0.1497465539
C   C71       1.0  0.20521  0.43280  0.69260  1.0000 -0.1497465539
C   C72       1.0  0.79480  0.43280  0.80740  1.0000 -0.1497465539
C   C73       1.0  0.71800  0.53270  0.32030  1.0000 0.1075587475
C   C74       1.0  0.28201  0.53270  0.17970  1.0000 0.1075587475
C   C75       1.0  0.28201  0.46730  0.67970  1.0000 0.1075587475
C   C76       1.0  0.71800  0.46730  0.82030  1.0000 0.1075587475
C   C77       1.0  0.84720  0.66520  0.34250  1.0000 -0.0702037142
C   C78       1.0  0.15281  0.66520  0.15750  1.0000 -0.0702037142
C   C79       1.0  0.15280  0.33480  0.65750  1.0000 -0.0702037142
C   C80       1.0  0.84720  0.33480  0.84250  1.0000 -0.0702037142
C   C81       1.0  0.82270  0.73140  0.39050  1.0000 -0.0215322638
C   C82       1.0  0.17730  0.73140  0.10950  1.0000 -0.0215322638
C   C83       1.0  0.17730  0.26860  0.60950  1.0000 -0.0215322638
C   C84       1.0  0.82270  0.26860  0.89050  1.0000 -0.0215322638
C   C85       1.0  0.88210  0.83290  0.43120  1.0000 0.6404887026
C   C86       1.0  0.11791  0.83290  0.06880  1.0000 0.6404887026
C   C87       1.0  0.11791  0.16710  0.56880  1.0000 0.6404887026
C   C88       1.0  0.88210  0.16710  0.93120  1.0000 0.6404887026
C   C89       1.0  0.74450  0.70170  0.40220  1.0000 -0.0625163207
C   C90       1.0  0.25551  0.70170  0.09780  1.0000 -0.0625163207
C   C91       1.0  0.25551  0.29830  0.59780  1.0000 -0.0625163207
C   C92       1.0  0.74450  0.29830  0.90220  1.0000 -0.0625163207
C   C93       1.0  0.69260  0.60110  0.36820  1.0000 -0.1550712029
C   C94       1.0  0.30741  0.60110  0.13180  1.0000 -0.1550712029
C   C95       1.0  0.30741  0.39890  0.63180  1.0000 -0.1550712029
C   C96       1.0  0.69260  0.39890  0.86820  1.0000 -0.1550712029
C   C97       1.0  0.11690  0.59470  0.43710  1.0000 0.4824747851
C   C98       1.0  0.88311  0.59470  0.06290  1.0000 0.4824747851
C   C99       1.0  0.88311  0.40530  0.56290  1.0000 0.4824747851
C   C100      1.0  0.11690  0.40530  0.93710  1.0000 0.4824747851
C   C101      1.0  0.06999  0.55660  0.48890  1.0000 -0.5884652326
C   C102      1.0  0.93001  0.55660  0.01110  1.0000 -0.5884652326
C   C103      1.0  0.93001  0.44340  0.51110  1.0000 -0.5884652326
C   C104      1.0  0.07000  0.44340  0.98890  1.0000 -0.5884652326
C   C105      1.0  0.10220  0.53500  0.33530  1.0000 -0.3581924031
C   C106      1.0  0.89780  0.53500  0.16470  1.0000 -0.3581924031
C   C107      1.0  0.89780  0.46500  0.66470  1.0000 -0.3581924031
C   C108      1.0  0.10219  0.46500  0.83530  1.0000 -0.3581924031
C   C109      1.0  0.10719  0.36400  0.41500  1.0000 -0.3154412547
C   C110      1.0  0.89281  0.36400  0.08500  1.0000 -0.3154412547
C   C111      1.0  0.89281  0.63600  0.58500  1.0000 -0.3154412547
C   C112      1.0  0.10719  0.63600  0.91500  1.0000 -0.3154412547
N   N1        1.0  0.68810  0.36650  0.23160  1.0000 -0.0828787618
N   N2        1.0  0.31191  0.36650  0.26840  1.0000 -0.0828787618
N   N3        1.0  0.31191  0.63350  0.76840  1.0000 -0.0828787618
N   N4        1.0  0.68810  0.63350  0.73160  1.0000 -0.0828787618
N   N5        1.0  0.10619  0.49950  0.40410  1.0000 0.0024087385
N   N6        1.0  0.89380  0.49950  0.09590  1.0000 0.0024087385
N   N7        1.0  0.89380  0.50050  0.59590  1.0000 0.0024087385
N   N8        1.0  0.10619  0.50050  0.90410  1.0000 0.0024087385
O   O1        1.0  0.11829  0.70660  0.42720  1.0000 -0.5579907188
O   O2        1.0  0.88170  0.70660  0.07280  1.0000 -0.5579907188
O   O3        1.0  0.88170  0.29340  0.57280  1.0000 -0.5579907188
O   O4        1.0  0.11830  0.29340  0.92720  1.0000 -0.5579907188
O   O5        1.0  0.89490  0.93350  0.16120  1.0000 -0.6135555396
O   O6        1.0  0.10510  0.93350  0.33880  1.0000 -0.6135555396
O   O7        1.0  0.10510  0.06650  0.83880  1.0000 -0.6135555396
O   O8        1.0  0.89490  0.06650  0.66120  1.0000 -0.6135555396
O   O9        1.0  0.96070  0.83140  0.43210  1.0000 -0.6502825657
O   O10       1.0  0.03930  0.83140  0.06790  1.0000 -0.6502825657
O   O11       1.0  0.03930  0.16860  0.56790  1.0000 -0.6502825657
O   O12       1.0  0.96070  0.16860  0.93210  1.0000 -0.6502825657
O   O13       1.0  0.84900  0.91270  0.46140  1.0000 -0.5989009628
O   O14       1.0  0.15101  0.91270  0.03860  1.0000 -0.5989009628
O   O15       1.0  0.15101  0.08730  0.53860  1.0000 -0.5989009628
O   O16       1.0  0.84900  0.08730  0.96140  1.0000 -0.5989009628
O   O17       1.0  0.89279  0.16870  0.44070  1.0000 -0.623939086
O   O18       1.0  0.10720  0.16870  0.05930  1.0000 -0.623939086
O   O19       1.0  0.10721  0.83130  0.55930  1.0000 -0.623939086
O   O20       1.0  0.89279  0.83130  0.94070  1.0000 -0.623939086
O   O21       1.0  0.99910  0.07950  0.40750  1.0000 -0.67493682
O   O22       1.0  0.00090  0.07950  0.09250  1.0000 -0.67493682
O   O23       1.0  0.00091  0.92050  0.59250  1.0000 -0.67493682
O   O24       1.0  0.99910  0.92050  0.90750  1.0000 -0.67493682
O   O25       1.0  0.81159  0.07010  0.09050  1.0000 -0.5884652326
O   O26       1.0  0.18841  0.07010  0.40950  1.0000 -0.5884652326
O   O27       1.0  0.18841  0.92990  0.90950  1.0000 -0.5884652326
O   O28       1.0  0.81159  0.92990  0.59050  1.0000 -0.5884652326
O   O29       1.0  0.30360  0.00930  0.10040  1.0000 -0.5378556738
O   O30       1.0  0.69641  0.00930  0.39960  1.0000 -0.5378556738
O   O31       1.0  0.69641  0.99070  0.89960  1.0000 -0.5378556738
O   O32       1.0  0.30360  0.99070  0.60040  1.0000 -0.5378556738
O   O33       1.0  0.25670  0.13360  0.01080  1.0000 -0.5809110889
O   O34       1.0  0.74330  0.13360  0.48920  1.0000 -0.5809110889
O   O35       1.0  0.74330  0.86640  0.98920  1.0000 -0.5809110889
O   O36       1.0  0.25670  0.86640  0.51080  1.0000 -0.5809110889
