# DDEC6 charges by PACMAN v1.1 (https://github.com/mtap-research/PACMAN-charge/)
data_2017[LaCu][nan]3[FSR]1
_chemical_formula_sum              "La8 Cu16 H184 C200 I12 N36 O64"
_cell_length_a       9.3276
_cell_length_b       22.879
_cell_length_c       31.057
_cell_angle_alpha    90
_cell_angle_beta     90
_cell_angle_gamma    90

_symmetry_space_group_name_H-M    "P 1"
_symmetry_Int_Tables_number       1

loop_
  _symmetry_equiv_pos_as_xyz
  'x, y, z'

loop_
  _atom_site_type_symbol
  _atom_site_label
  _atom_site_symmetry_multiplicity
  _atom_site_fract_x
  _atom_site_fract_y
  _atom_site_fract_z
  _atom_site_occupancy
  _atom_site_charge
La  La1       1.0  0.46267  0.55875  0.51494  1.0000 1.9384182744
La  La2       1.0  0.99333  0.52865  0.52196  1.0000 1.9317114704
La  La3       1.0  0.03733  0.44125  0.01494  1.0000 1.9384182744
La  La4       1.0  0.50667  0.47135  0.02196  1.0000 1.9317114704
La  La5       1.0  0.53733  0.05875  0.98506  1.0000 1.9384182744
La  La6       1.0  0.00667  0.02865  0.97804  1.0000 1.9317114704
La  La7       1.0  0.96267  0.94125  0.48506  1.0000 1.9384182744
La  La8       1.0  0.49333  0.97135  0.47804  1.0000 1.9317114704
Cu  Cu1       1.0  0.53790  0.38325  0.27454  1.0000 0.2609045856
Cu  Cu2       1.0  0.21510  0.26608  0.31761  1.0000 0.1768157237
Cu  Cu3       1.0  0.01400  0.13903  0.24879  1.0000 0.2016837948
Cu  Cu4       1.0  0.24400  0.21553  0.23914  1.0000 0.1663835269
Cu  Cu5       1.0  0.96210  0.61675  0.77454  1.0000 0.2609045856
Cu  Cu6       1.0  0.28490  0.73392  0.81761  1.0000 0.1768157237
Cu  Cu7       1.0  0.48600  0.86097  0.74879  1.0000 0.2016837948
Cu  Cu8       1.0  0.25600  0.78447  0.73914  1.0000 0.1663835269
Cu  Cu9       1.0  0.46210  0.88325  0.22546  1.0000 0.2609045856
Cu  Cu10      1.0  0.78490  0.76608  0.18239  1.0000 0.1768157237
Cu  Cu11      1.0  0.98600  0.63903  0.25121  1.0000 0.2016837948
Cu  Cu12      1.0  0.75600  0.71553  0.26086  1.0000 0.1663835269
Cu  Cu13      1.0  0.03790  0.11675  0.72546  1.0000 0.2609045856
Cu  Cu14      1.0  0.71510  0.23392  0.68239  1.0000 0.1768157237
Cu  Cu15      1.0  0.51400  0.36097  0.75121  1.0000 0.2016837948
Cu  Cu16      1.0  0.74400  0.28447  0.76086  1.0000 0.1663835269
H   H1        1.0  0.52900  0.46870  0.20280  1.0000 0.1501191385
H   H2        1.0  0.10930  0.41940  0.65930  1.0000 0.1408613577
H   H3        1.0  0.02170  0.32030  0.38410  1.0000 0.1001307942
H   H4        1.0  0.62010  0.48010  0.13810  1.0000 0.1293795189
H   H5        1.0  0.02310  0.74170  0.67820  1.0000 0.1095795975
H   H6        1.0  0.41720  0.68840  0.60190  1.0000 0.1408613577
H   H7        1.0  0.00260  0.68390  0.62090  1.0000 0.1293795189
H   H8        1.0  0.49750  0.49410  0.32020  1.0000 0.1210984231
H   H9        1.0  0.96450  0.58200  0.40440  1.0000 0.1408613577
H   H10       1.0  0.57580  0.45160  0.68450  1.0000 0.1001307942
H   H11       1.0  0.44640  0.74110  0.66620  1.0000 0.1001307942
H   H12       1.0  0.89500  0.33480  0.65410  1.0000 0.1001307942
H   H13       1.0  0.84950  0.33630  0.15220  1.0000 0.1293795189
H   H14       1.0  0.73970  0.32170  0.21540  1.0000 0.1408613577
H   H15       1.0  0.48940  0.37070  0.57880  1.0000 0.1408613577
H   H16       1.0  0.88590  0.60600  0.33780  1.0000 0.1095795975
H   H17       1.0  0.74850  0.36910  0.34420  1.0000 0.1095795975
H   H18       1.0  0.68340  0.72120  0.55060  1.0000 0.1293795189
H   H19       1.0  0.82980  0.75480  0.54850  1.0000 0.1408613577
H   H20       1.0  0.82710  0.68820  0.56040  1.0000 0.1293795189
H   H21       1.0  0.50210  0.29890  0.62870  1.0000 0.1001307942
H   H22       1.0  0.34680  0.64500  0.37030  1.0000 0.1501191385
H   H23       1.0  0.47740  0.49720  0.62850  1.0000 0.1408613577
H   H24       1.0  0.82150  0.41010  0.40700  1.0000 0.1293795189
H   H25       1.0  0.26560  0.66220  0.30350  1.0000 0.1095795975
H   H26       1.0  0.22120  0.37180  0.71140  1.0000 0.1210984231
H   H27       1.0  0.02520  0.37790  0.44620  1.0000 0.1408613577
H   H28       1.0  0.90340  0.40590  0.59970  1.0000 0.1408613577
H   H29       1.0  0.28140  0.39240  0.19830  1.0000 0.1501191385
H   H30       1.0  0.12180  0.41390  0.19700  1.0000 0.1408613577
H   H31       1.0  0.16130  0.35600  0.22120  1.0000 0.1408613577
H   H32       1.0  0.92970  0.47360  0.24790  1.0000 0.1293795189
H   H33       1.0  0.89970  0.42760  0.28420  1.0000 0.1210984231
H   H34       1.0  0.96250  0.40730  0.23980  1.0000 0.1095795975
H   H35       1.0  0.56110  0.54600  0.37910  1.0000 0.1501191385
H   H36       1.0  0.74610  0.62880  0.42390  1.0000 0.1501191385
H   H37       1.0  0.73340  0.69630  0.41610  1.0000 0.1408613577
H   H38       1.0  0.59470  0.65810  0.42000  1.0000 0.1663835269
H   H39       1.0  0.92710  0.69660  0.44370  1.0000 0.1210984231
H   H40       1.0  0.01460  0.70960  0.48570  1.0000 0.1408613577
H   H41       1.0  0.92720  0.75970  0.46340  1.0000 0.1408613577
H   H42       1.0  0.40890  0.35160  0.35640  1.0000 0.0894899905
H   H43       1.0  0.43820  0.40690  0.41900  1.0000 0.1293795189
H   H44       1.0  0.16140  0.44780  0.33980  1.0000 0.1293795189
H   H45       1.0  0.06210  0.50000  0.32640  1.0000 0.1293795189
H   H46       1.0  0.22480  0.50050  0.31370  1.0000 0.1293795189
H   H47       1.0  0.97100  0.53130  0.70280  1.0000 0.1501191385
H   H48       1.0  0.39070  0.58060  0.15930  1.0000 0.1408613577
H   H49       1.0  0.47830  0.67970  0.88410  1.0000 0.1001307942
H   H50       1.0  0.87990  0.51990  0.63810  1.0000 0.1293795189
H   H51       1.0  0.47690  0.25830  0.17820  1.0000 0.1095795975
H   H52       1.0  0.08280  0.31160  0.10190  1.0000 0.1408613577
H   H53       1.0  0.49740  0.31610  0.12090  1.0000 0.1293795189
H   H54       1.0  0.00250  0.50590  0.82020  1.0000 0.1210984231
H   H55       1.0  0.53550  0.41800  0.90440  1.0000 0.1408613577
H   H56       1.0  0.92420  0.54840  0.18450  1.0000 0.1001307942
H   H57       1.0  0.05360  0.25890  0.16620  1.0000 0.1001307942
H   H58       1.0  0.60500  0.66520  0.15410  1.0000 0.1001307942
H   H59       1.0  0.65050  0.66370  0.65220  1.0000 0.1293795189
H   H60       1.0  0.76030  0.67830  0.71540  1.0000 0.1408613577
H   H61       1.0  0.01060  0.62930  0.07880  1.0000 0.1408613577
H   H62       1.0  0.61410  0.39400  0.83780  1.0000 0.1095795975
H   H63       1.0  0.75150  0.63090  0.84420  1.0000 0.1095795975
H   H64       1.0  0.81660  0.27880  0.05060  1.0000 0.1293795189
H   H65       1.0  0.67020  0.24520  0.04850  1.0000 0.1408613577
H   H66       1.0  0.67290  0.31180  0.06040  1.0000 0.1293795189
H   H67       1.0  0.99790  0.70110  0.12870  1.0000 0.1001307942
H   H68       1.0  0.15320  0.35500  0.87030  1.0000 0.1501191385
H   H69       1.0  0.02260  0.50280  0.12850  1.0000 0.1408613577
H   H70       1.0  0.67850  0.58990  0.90700  1.0000 0.1293795189
H   H71       1.0  0.23440  0.33780  0.80350  1.0000 0.1095795975
H   H72       1.0  0.27880  0.62820  0.21140  1.0000 0.1210984231
H   H73       1.0  0.47480  0.62210  0.94620  1.0000 0.1408613577
H   H74       1.0  0.59660  0.59410  0.09970  1.0000 0.1408613577
H   H75       1.0  0.21860  0.60760  0.69830  1.0000 0.1501191385
H   H76       1.0  0.37820  0.58610  0.69700  1.0000 0.1408613577
H   H77       1.0  0.33870  0.64400  0.72120  1.0000 0.1408613577
H   H78       1.0  0.57030  0.52640  0.74790  1.0000 0.1293795189
H   H79       1.0  0.60030  0.57240  0.78420  1.0000 0.1210984231
H   H80       1.0  0.53750  0.59270  0.73980  1.0000 0.1095795975
H   H81       1.0  0.93890  0.45400  0.87910  1.0000 0.1501191385
H   H82       1.0  0.75390  0.37120  0.92390  1.0000 0.1501191385
H   H83       1.0  0.76660  0.30370  0.91610  1.0000 0.1408613577
H   H84       1.0  0.90530  0.34190  0.92000  1.0000 0.1663835269
H   H85       1.0  0.57290  0.30340  0.94370  1.0000 0.1210984231
H   H86       1.0  0.48540  0.29040  0.98570  1.0000 0.1408613577
H   H87       1.0  0.57280  0.24030  0.96340  1.0000 0.1408613577
H   H88       1.0  0.09110  0.64840  0.85640  1.0000 0.0894899905
H   H89       1.0  0.06180  0.59310  0.91900  1.0000 0.1293795189
H   H90       1.0  0.33860  0.55220  0.83980  1.0000 0.1293795189
H   H91       1.0  0.43790  0.50000  0.82640  1.0000 0.1293795189
H   H92       1.0  0.27520  0.49950  0.81370  1.0000 0.1293795189
H   H93       1.0  0.47100  0.96870  0.29720  1.0000 0.1501191385
H   H94       1.0  0.89070  0.91940  0.84070  1.0000 0.1408613577
H   H95       1.0  0.97830  0.82030  0.11590  1.0000 0.1001307942
H   H96       1.0  0.37990  0.98010  0.36190  1.0000 0.1293795189
H   H97       1.0  0.97690  0.24170  0.82180  1.0000 0.1095795975
H   H98       1.0  0.58280  0.18840  0.89810  1.0000 0.1408613577
H   H99       1.0  0.99740  0.18390  0.87910  1.0000 0.1293795189
H   H100      1.0  0.50250  0.99410  0.17980  1.0000 0.1210984231
H   H101      1.0  0.03550  0.08200  0.09560  1.0000 0.1408613577
H   H102      1.0  0.42420  0.95160  0.81550  1.0000 0.1001307942
H   H103      1.0  0.55360  0.24110  0.83380  1.0000 0.1001307942
H   H104      1.0  0.10500  0.83480  0.84590  1.0000 0.1001307942
H   H105      1.0  0.15050  0.83630  0.34780  1.0000 0.1293795189
H   H106      1.0  0.26030  0.82170  0.28460  1.0000 0.1408613577
H   H107      1.0  0.51060  0.87070  0.92120  1.0000 0.1408613577
H   H108      1.0  0.11410  0.10600  0.16220  1.0000 0.1095795975
H   H109      1.0  0.25150  0.86910  0.15580  1.0000 0.1095795975
H   H110      1.0  0.31660  0.22120  0.94940  1.0000 0.1293795189
H   H111      1.0  0.17020  0.25480  0.95150  1.0000 0.1408613577
H   H112      1.0  0.17290  0.18820  0.93960  1.0000 0.1293795189
H   H113      1.0  0.49790  0.79890  0.87130  1.0000 0.1001307942
H   H114      1.0  0.65320  0.14500  0.12970  1.0000 0.1408613577
H   H115      1.0  0.52260  0.99720  0.87150  1.0000 0.1408613577
H   H116      1.0  0.17850  0.91010  0.09300  1.0000 0.1293795189
H   H117      1.0  0.73440  0.16220  0.19650  1.0000 0.1095795975
H   H118      1.0  0.77880  0.87180  0.78860  1.0000 0.1210984231
H   H119      1.0  0.97480  0.87790  0.05380  1.0000 0.1408613577
H   H120      1.0  0.09660  0.90590  0.90030  1.0000 0.1408613577
H   H121      1.0  0.71860  0.89240  0.30170  1.0000 0.1501191385
H   H122      1.0  0.87820  0.91390  0.30300  1.0000 0.1408613577
H   H123      1.0  0.83870  0.85600  0.27880  1.0000 0.1408613577
H   H124      1.0  0.07030  0.97360  0.25210  1.0000 0.1293795189
H   H125      1.0  0.10030  0.92760  0.21580  1.0000 0.1210984231
H   H126      1.0  0.03750  0.90730  0.26020  1.0000 0.1095795975
H   H127      1.0  0.43890  0.04600  0.12090  1.0000 0.1501191385
H   H128      1.0  0.25390  0.12880  0.07610  1.0000 0.1501191385
H   H129      1.0  0.26660  0.19630  0.08390  1.0000 0.1408613577
H   H130      1.0  0.40530  0.15810  0.08000  1.0000 0.1663835269
H   H131      1.0  0.07290  0.19660  0.05630  1.0000 0.1210984231
H   H132      1.0  0.98540  0.20960  0.01430  1.0000 0.1408613577
H   H133      1.0  0.07280  0.25970  0.03660  1.0000 0.1408613577
H   H134      1.0  0.59110  0.85160  0.14360  1.0000 0.0894899905
H   H135      1.0  0.56180  0.90690  0.08100  1.0000 0.1293795189
H   H136      1.0  0.83860  0.94780  0.16020  1.0000 0.1293795189
H   H137      1.0  0.93790  0.00000  0.17360  1.0000 0.1293795189
H   H138      1.0  0.77520  0.00050  0.18630  1.0000 0.1293795189
H   H139      1.0  0.02900  0.03130  0.79720  1.0000 0.1501191385
H   H140      1.0  0.60930  0.08060  0.34070  1.0000 0.1408613577
H   H141      1.0  0.52170  0.17970  0.61590  1.0000 0.1001307942
H   H142      1.0  0.12010  0.01990  0.86190  1.0000 0.1293795189
H   H143      1.0  0.52310  0.75830  0.32180  1.0000 0.1095795975
H   H144      1.0  0.91720  0.81160  0.39810  1.0000 0.1408613577
H   H145      1.0  0.50260  0.81610  0.37910  1.0000 0.1293795189
H   H146      1.0  0.99750  0.00590  0.67980  1.0000 0.1210984231
H   H147      1.0  0.46450  0.91800  0.59560  1.0000 0.1408613577
H   H148      1.0  0.07580  0.04840  0.31550  1.0000 0.1001307942
H   H149      1.0  0.94640  0.75890  0.33380  1.0000 0.1001307942
H   H150      1.0  0.39500  0.16520  0.34590  1.0000 0.1001307942
H   H151      1.0  0.34950  0.16370  0.84780  1.0000 0.1293795189
H   H152      1.0  0.23970  0.17830  0.78460  1.0000 0.1408613577
H   H153      1.0  0.98940  0.12930  0.42120  1.0000 0.1408613577
H   H154      1.0  0.38590  0.89400  0.66220  1.0000 0.1095795975
H   H155      1.0  0.24850  0.13090  0.65580  1.0000 0.1095795975
H   H156      1.0  0.18340  0.77880  0.44940  1.0000 0.1293795189
H   H157      1.0  0.32980  0.74520  0.45150  1.0000 0.1408613577
H   H158      1.0  0.32710  0.81180  0.43960  1.0000 0.1293795189
H   H159      1.0  0.00210  0.20110  0.37130  1.0000 0.1001307942
H   H160      1.0  0.84680  0.85500  0.62970  1.0000 0.1408613577
H   H161      1.0  0.97740  0.00280  0.37150  1.0000 0.1408613577
H   H162      1.0  0.32150  0.08990  0.59300  1.0000 0.1293795189
H   H163      1.0  0.76560  0.83780  0.69650  1.0000 0.1095795975
H   H164      1.0  0.72120  0.12820  0.28860  1.0000 0.1210984231
H   H165      1.0  0.52520  0.12210  0.55380  1.0000 0.1408613577
H   H166      1.0  0.40340  0.09410  0.40030  1.0000 0.1408613577
H   H167      1.0  0.78140  0.10760  0.80170  1.0000 0.1501191385
H   H168      1.0  0.62180  0.08610  0.80300  1.0000 0.1408613577
H   H169      1.0  0.66130  0.14400  0.77880  1.0000 0.1408613577
H   H170      1.0  0.42970  0.02640  0.75210  1.0000 0.1293795189
H   H171      1.0  0.39970  0.07240  0.71580  1.0000 0.1210984231
H   H172      1.0  0.46250  0.09270  0.76020  1.0000 0.1095795975
H   H173      1.0  0.06110  0.95400  0.62090  1.0000 0.1501191385
H   H174      1.0  0.24610  0.87120  0.57610  1.0000 0.1501191385
H   H175      1.0  0.23340  0.80370  0.58390  1.0000 0.1408613577
H   H176      1.0  0.09470  0.84190  0.58000  1.0000 0.1663835269
H   H177      1.0  0.42710  0.80340  0.55630  1.0000 0.1210984231
H   H178      1.0  0.51460  0.79040  0.51430  1.0000 0.1408613577
H   H179      1.0  0.42720  0.74030  0.53660  1.0000 0.1408613577
H   H180      1.0  0.90890  0.14840  0.64360  1.0000 0.0894899905
H   H181      1.0  0.93820  0.09310  0.58100  1.0000 0.1293795189
H   H182      1.0  0.66140  0.05220  0.66020  1.0000 0.1293795189
H   H183      1.0  0.56210  0.00000  0.67360  1.0000 0.1293795189
H   H184      1.0  0.72480  0.99950  0.68630  1.0000 0.1293795189
C   C1        1.0  0.59000  0.44020  0.19190  1.0000 -0.1192940458
C   C2        1.0  0.20700  0.42530  0.66300  1.0000 -0.1388941893
C   C3        1.0  0.10800  0.33840  0.39090  1.0000 0.0699597783
C   C4        1.0  0.62160  0.39250  0.21610  1.0000 -0.1192940458
C   C5        1.0  0.64500  0.44660  0.15330  1.0000 0.0088838061
C   C6        1.0  0.10600  0.72980  0.66390  1.0000 0.0536374092
C   C7        1.0  0.33800  0.69740  0.61860  1.0000 -0.1493218047
C   C8        1.0  0.27700  0.46190  0.63520  1.0000 0.0203511439
C   C9        1.0  0.23300  0.40440  0.43610  1.0000 -0.0279289976
C   C10       1.0  0.09400  0.69580  0.62920  1.0000 -0.1295809153
C   C11       1.0  0.56300  0.47670  0.33880  1.0000 0.0699597783
C   C12       1.0  0.02700  0.59910  0.38470  1.0000 -0.1493218047
C   C13       1.0  0.48000  0.44420  0.67880  1.0000 0.0894899905
C   C14       1.0  0.35500  0.73090  0.65670  1.0000 0.0699597783
C   C15       1.0  0.69500  0.39740  0.58280  1.0000 -0.0351460412
C   C16       1.0  0.69900  0.48220  0.40200  1.0000 -0.0122436992
C   C17       1.0  0.23200  0.59480  0.43940  1.0000 0.5975801587
C   C18       1.0  0.19300  0.64120  0.56490  1.0000 0.5975801587
C   C19       1.0  0.81400  0.34090  0.63720  1.0000 0.0763161719
C   C20       1.0  0.68900  0.67380  0.48010  1.0000 0.5315153652
C   C21       1.0  0.21800  0.42940  0.25560  1.0000 0.4999627673
C   C22       1.0  0.24300  0.44150  0.47340  1.0000 0.609746819
C   C23       1.0  0.69700  0.44150  0.55010  1.0000 0.609746819
C   C24       1.0  0.77800  0.36200  0.16080  1.0000 0.0088838061
C   C25       1.0  0.21200  0.49080  0.59620  1.0000 0.5975801587
C   C26       1.0  0.71600  0.35460  0.19950  1.0000 -0.1388941893
C   C27       1.0  0.57600  0.36370  0.59280  1.0000 -0.1493218047
C   C28       1.0  0.98200  0.61260  0.34420  1.0000 0.0629797377
C   C29       1.0  0.73600  0.51170  0.44130  1.0000 0.5975801587
C   C30       1.0  0.70600  0.40410  0.35250  1.0000 0.0536374092
C   C31       1.0  0.78300  0.71810  0.54320  1.0000 -0.3303606457
C   C32       1.0  0.58400  0.32050  0.62290  1.0000 0.0699597783
C   C33       1.0  0.25200  0.63560  0.36400  1.0000 -0.1493218047
C   C34       1.0  0.42200  0.47180  0.64510  1.0000 -0.1770430676
C   C35       1.0  0.75400  0.42890  0.39000  1.0000 -0.1493218047
C   C36       1.0  0.80240  0.41790  0.09090  1.0000 0.6681932412
C   C37       1.0  0.20400  0.64650  0.32390  1.0000 0.0419779184
C   C38       1.0  0.27200  0.39840  0.69480  1.0000 0.0267966349
C   C39       1.0  0.16900  0.61120  0.39630  1.0000 0.0203511439
C   C40       1.0  0.10500  0.37450  0.42850  1.0000 -0.1493218047
C   C41       1.0  0.81900  0.38550  0.60530  1.0000 -0.1388941893
C   C42       1.0  0.19300  0.39470  0.21420  1.0000 -0.57734702
C   C43       1.0  0.96200  0.43800  0.26090  1.0000 -0.3412271536
C   C44       1.0  0.20500  0.67820  0.60600  1.0000 0.0203511439
C   C45       1.0  0.59900  0.50910  0.37390  1.0000 -0.1493218047
C   C46       1.0  0.69100  0.66320  0.43020  1.0000 -0.5937958307
C   C47       1.0  0.92900  0.71870  0.47000  1.0000 -0.3559320665
C   C48       1.0  0.33100  0.35560  0.37490  1.0000 0.0699597783
C   C49       1.0  0.34900  0.39200  0.41180  1.0000 -0.1295809153
C   C50       1.0  0.14200  0.47620  0.31780  1.0000 -0.3412271536
C   C51       1.0  0.91000  0.55980  0.69190  1.0000 -0.1192940458
C   C52       1.0  0.29300  0.57470  0.16300  1.0000 -0.1388941893
C   C53       1.0  0.39200  0.66160  0.89090  1.0000 0.0699597783
C   C54       1.0  0.87840  0.60750  0.71610  1.0000 -0.1192940458
C   C55       1.0  0.85500  0.55340  0.65330  1.0000 0.0088838061
C   C56       1.0  0.39400  0.27020  0.16390  1.0000 0.0536374092
C   C57       1.0  0.16200  0.30260  0.11860  1.0000 -0.1493218047
C   C58       1.0  0.22300  0.53810  0.13520  1.0000 0.0203511439
C   C59       1.0  0.26700  0.59560  0.93610  1.0000 -0.0245716985
C   C60       1.0  0.40600  0.30420  0.12920  1.0000 -0.1295809153
C   C61       1.0  0.93700  0.52330  0.83880  1.0000 0.0699597783
C   C62       1.0  0.47300  0.40090  0.88470  1.0000 -0.1493218047
C   C63       1.0  0.02000  0.55580  0.17880  1.0000 0.0894899905
C   C64       1.0  0.14500  0.26910  0.15670  1.0000 0.0699597783
C   C65       1.0  0.80500  0.60260  0.08280  1.0000 -0.0351460412
C   C66       1.0  0.80100  0.51780  0.90200  1.0000 -0.0122436992
C   C67       1.0  0.26800  0.40520  0.93940  1.0000 0.5975801587
C   C68       1.0  0.30700  0.35880  0.06490  1.0000 0.5975801587
C   C69       1.0  0.68600  0.65910  0.13720  1.0000 0.0763161719
C   C70       1.0  0.81100  0.32620  0.98010  1.0000 0.5315153652
C   C71       1.0  0.28200  0.57060  0.75560  1.0000 0.4999627673
C   C72       1.0  0.25700  0.55850  0.97340  1.0000 0.609746819
C   C73       1.0  0.80300  0.55850  0.05010  1.0000 0.609746819
C   C74       1.0  0.72200  0.63800  0.66080  1.0000 0.0088838061
C   C75       1.0  0.28800  0.50920  0.09620  1.0000 0.5975801587
C   C76       1.0  0.78400  0.64540  0.69950  1.0000 -0.1388941893
C   C77       1.0  0.92400  0.63630  0.09280  1.0000 -0.1493218047
C   C78       1.0  0.51800  0.38740  0.84420  1.0000 0.0629797377
C   C79       1.0  0.76400  0.48830  0.94130  1.0000 0.5975801587
C   C80       1.0  0.79400  0.59590  0.85250  1.0000 0.0536374092
C   C81       1.0  0.71700  0.28190  0.04320  1.0000 -0.3303606457
C   C82       1.0  0.91600  0.67950  0.12290  1.0000 0.0699597783
C   C83       1.0  0.24800  0.36440  0.86400  1.0000 -0.1493218047
C   C84       1.0  0.07800  0.52820  0.14510  1.0000 -0.1770430676
C   C85       1.0  0.74600  0.57110  0.89000  1.0000 -0.1493218047
C   C86       1.0  0.69760  0.58210  0.59090  1.0000 0.6681932412
C   C87       1.0  0.29600  0.35350  0.82390  1.0000 0.0419779184
C   C88       1.0  0.22800  0.60160  0.19480  1.0000 0.0267966349
C   C89       1.0  0.33100  0.38880  0.89630  1.0000 0.0203511439
C   C90       1.0  0.39500  0.62550  0.92850  1.0000 -0.1493218047
C   C91       1.0  0.68100  0.61450  0.10530  1.0000 -0.1388941893
C   C92       1.0  0.30700  0.60530  0.71420  1.0000 -0.57734702
C   C93       1.0  0.53800  0.56200  0.76090  1.0000 -0.3412271536
C   C94       1.0  0.29500  0.32180  0.10600  1.0000 0.0203511439
C   C95       1.0  0.90100  0.49090  0.87390  1.0000 -0.1493218047
C   C96       1.0  0.80900  0.33680  0.93020  1.0000 -0.5937958307
C   C97       1.0  0.57100  0.28130  0.97000  1.0000 -0.3559320665
C   C98       1.0  0.16900  0.64440  0.87490  1.0000 0.0699597783
C   C99       1.0  0.15100  0.60800  0.91180  1.0000 -0.1295809153
C   C100      1.0  0.35800  0.52380  0.81780  1.0000 -0.3412271536
C   C101      1.0  0.41000  0.94020  0.30810  1.0000 -0.1192940458
C   C102      1.0  0.79300  0.92530  0.83700  1.0000 -0.1388941893
C   C103      1.0  0.89200  0.83840  0.10910  1.0000 0.0699597783
C   C104      1.0  0.37840  0.89250  0.28390  1.0000 -0.1192940458
C   C105      1.0  0.35500  0.94660  0.34670  1.0000 0.0088838061
C   C106      1.0  0.89400  0.22980  0.83610  1.0000 0.0536374092
C   C107      1.0  0.66200  0.19740  0.88140  1.0000 -0.1493218047
C   C108      1.0  0.72300  0.96190  0.86480  1.0000 0.0203511439
C   C109      1.0  0.76700  0.90440  0.06390  1.0000 -0.0279289976
C   C110      1.0  0.90600  0.19580  0.87080  1.0000 -0.1295809153
C   C111      1.0  0.43700  0.97670  0.16120  1.0000 0.0699597783
C   C112      1.0  0.97300  0.09910  0.11530  1.0000 -0.1493218047
C   C113      1.0  0.52000  0.94420  0.82120  1.0000 0.0894899905
C   C114      1.0  0.64500  0.23090  0.84330  1.0000 0.0699597783
C   C115      1.0  0.30500  0.89740  0.91720  1.0000 -0.0279289976
C   C116      1.0  0.30100  0.98220  0.09800  1.0000 -0.0122436992
C   C117      1.0  0.76800  0.09480  0.06060  1.0000 0.5975801587
C   C118      1.0  0.80700  0.14120  0.93510  1.0000 0.5975801587
C   C119      1.0  0.18600  0.84090  0.86280  1.0000 0.0763161719
C   C120      1.0  0.31100  0.17380  0.01990  1.0000 0.5315153652
C   C121      1.0  0.78200  0.92940  0.24440  1.0000 0.4999627673
C   C122      1.0  0.75700  0.94150  0.02660  1.0000 0.609746819
C   C123      1.0  0.30300  0.94150  0.94990  1.0000 0.609746819
C   C124      1.0  0.22200  0.86200  0.33920  1.0000 0.0088838061
C   C125      1.0  0.78800  0.99080  0.90380  1.0000 0.5975801587
C   C126      1.0  0.28400  0.85460  0.30050  1.0000 -0.1388941893
C   C127      1.0  0.42400  0.86370  0.90720  1.0000 -0.1493218047
C   C128      1.0  0.01800  0.11260  0.15580  1.0000 0.0629797377
C   C129      1.0  0.26400  0.01170  0.05870  1.0000 0.5975801587
C   C130      1.0  0.29400  0.90410  0.14750  1.0000 0.0536374092
C   C131      1.0  0.21700  0.21810  0.95680  1.0000 -0.3303606457
C   C132      1.0  0.41600  0.82050  0.87710  1.0000 0.0699597783
C   C133      1.0  0.74800  0.13560  0.13600  1.0000 -0.1493218047
C   C134      1.0  0.57800  0.97180  0.85490  1.0000 -0.1770430676
C   C135      1.0  0.24600  0.92890  0.11000  1.0000 -0.1493218047
C   C136      1.0  0.19760  0.91790  0.40910  1.0000 0.6681932412
C   C137      1.0  0.79600  0.14650  0.17610  1.0000 0.0419779184
C   C138      1.0  0.72800  0.89840  0.80520  1.0000 0.0267966349
C   C139      1.0  0.83100  0.11120  0.10370  1.0000 0.0203511439
C   C140      1.0  0.89500  0.87450  0.07150  1.0000 -0.1493218047
C   C141      1.0  0.18100  0.88550  0.89470  1.0000 -0.1388941893
C   C142      1.0  0.80700  0.89470  0.28580  1.0000 -0.57734702
C   C143      1.0  0.03800  0.93800  0.23910  1.0000 -0.3412271536
C   C144      1.0  0.79500  0.17820  0.89400  1.0000 0.0203511439
C   C145      1.0  0.40100  0.00910  0.12610  1.0000 -0.1493218047
C   C146      1.0  0.30900  0.16320  0.06980  1.0000 -0.5937958307
C   C147      1.0  0.07100  0.21870  0.03000  1.0000 -0.3559320665
C   C148      1.0  0.66900  0.85560  0.12510  1.0000 0.0629797377
C   C149      1.0  0.65100  0.89200  0.08820  1.0000 -0.1295809153
C   C150      1.0  0.85800  0.97620  0.18220  1.0000 -0.3412271536
C   C151      1.0  0.09000  0.05980  0.80810  1.0000 -0.1192940458
C   C152      1.0  0.70700  0.07470  0.33700  1.0000 -0.1388941893
C   C153      1.0  0.60800  0.16160  0.60910  1.0000 0.0699597783
C   C154      1.0  0.12160  0.10750  0.78390  1.0000 -0.1192940458
C   C155      1.0  0.14500  0.05340  0.84670  1.0000 0.0088838061
C   C156      1.0  0.60600  0.77020  0.33610  1.0000 0.0536374092
C   C157      1.0  0.83800  0.80260  0.38140  1.0000 -0.1493218047
C   C158      1.0  0.77700  0.03810  0.36480  1.0000 0.0203511439
C   C159      1.0  0.73300  0.09560  0.56390  1.0000 -0.0279289976
C   C160      1.0  0.59400  0.80420  0.37080  1.0000 -0.1295809153
C   C161      1.0  0.06300  0.02330  0.66120  1.0000 0.0699597783
C   C162      1.0  0.52700  0.90090  0.61530  1.0000 -0.1493218047
C   C163      1.0  0.98000  0.05580  0.32120  1.0000 0.0894899905
C   C164      1.0  0.85500  0.76910  0.34330  1.0000 0.0699597783
C   C165      1.0  0.19500  0.10260  0.41720  1.0000 -0.0351460412
C   C166      1.0  0.19900  0.01780  0.59800  1.0000 -0.0122436992
C   C167      1.0  0.73200  0.90520  0.56060  1.0000 0.5975801587
C   C168      1.0  0.69300  0.85880  0.43510  1.0000 0.5975801587
C   C169      1.0  0.31400  0.15910  0.36280  1.0000 0.0763161719
C   C170      1.0  0.18900  0.82620  0.51990  1.0000 0.5315153652
C   C171      1.0  0.71800  0.07060  0.74440  1.0000 0.4999627673
C   C172      1.0  0.74300  0.05850  0.52660  1.0000 0.609746819
C   C173      1.0  0.19700  0.05850  0.44990  1.0000 0.609746819
C   C174      1.0  0.27800  0.13800  0.83920  1.0000 0.0088838061
C   C175      1.0  0.71200  0.00920  0.40380  1.0000 0.5975801587
C   C176      1.0  0.21600  0.14540  0.80050  1.0000 -0.1388941893
C   C177      1.0  0.07600  0.13630  0.40720  1.0000 -0.1388941893
C   C178      1.0  0.48200  0.88740  0.65580  1.0000 0.0629797377
C   C179      1.0  0.23600  0.98830  0.55870  1.0000 0.5975801587
C   C180      1.0  0.20600  0.09590  0.64750  1.0000 0.0536374092
C   C181      1.0  0.28300  0.78190  0.45680  1.0000 -0.3303606457
C   C182      1.0  0.08400  0.17950  0.37710  1.0000 0.0699597783
C   C183      1.0  0.75200  0.86440  0.63600  1.0000 -0.1493218047
C   C184      1.0  0.92200  0.02820  0.35490  1.0000 -0.1770430676
C   C185      1.0  0.25400  0.07110  0.61000  1.0000 -0.1493218047
C   C186      1.0  0.30240  0.08210  0.90910  1.0000 0.6681932412
C   C187      1.0  0.70400  0.85350  0.67610  1.0000 0.0419779184
C   C188      1.0  0.77200  0.10160  0.30520  1.0000 0.0267966349
C   C189      1.0  0.66900  0.88880  0.60370  1.0000 0.0203511439
C   C190      1.0  0.60500  0.12550  0.57150  1.0000 -0.1493218047
C   C191      1.0  0.31900  0.11450  0.39470  1.0000 -0.1388941893
C   C192      1.0  0.69300  0.10530  0.78580  1.0000 -0.57734702
C   C193      1.0  0.46200  0.06200  0.73910  1.0000 -0.3412271536
C   C194      1.0  0.70500  0.82180  0.39400  1.0000 0.0203511439
C   C195      1.0  0.09900  0.99090  0.62610  1.0000 -0.1493218047
C   C196      1.0  0.19100  0.83680  0.56980  1.0000 -0.5937958307
C   C197      1.0  0.42900  0.78130  0.53000  1.0000 -0.3559320665
C   C198      1.0  0.83100  0.14440  0.62510  1.0000 0.0699597783
C   C199      1.0  0.84900  0.10800  0.58820  1.0000 -0.1295809153
C   C200      1.0  0.64200  0.02380  0.68220  1.0000 -0.3412271536
I   I1        1.0  0.29019  0.10481  0.24604  1.0000 -0.4329569212
I   I2        1.0  0.98605  0.25444  0.26957  1.0000 -0.3878649421
I   I3        1.0  0.47180  0.27062  0.28165  1.0000 -0.3878649421
I   I4        1.0  0.20981  0.89519  0.74604  1.0000 -0.4329569212
I   I5        1.0  0.51395  0.74556  0.76957  1.0000 -0.3878649421
I   I6        1.0  0.02820  0.72938  0.78165  1.0000 -0.3878649421
I   I7        1.0  0.70981  0.60481  0.25396  1.0000 -0.4329569212
I   I8        1.0  0.01395  0.75444  0.23043  1.0000 -0.3878649421
I   I9        1.0  0.52820  0.77062  0.21835  1.0000 -0.3878649421
I   I10       1.0  0.79019  0.39519  0.75396  1.0000 -0.4329569212
I   I11       1.0  0.48605  0.24556  0.73043  1.0000 -0.3878649421
I   I12       1.0  0.97180  0.22938  0.71835  1.0000 -0.3878649421
N   N1        1.0  0.10800  0.44620  0.27750  1.0000 -0.0122436992
N   N2        1.0  0.60700  0.42500  0.32760  1.0000 -0.162899479
N   N3        1.0  0.21200  0.32720  0.36510  1.0000 -0.162899479
N   N4        1.0  0.73700  0.40770  0.13310  1.0000 -0.0958694652
N   N5        1.0  0.70080  0.30780  0.64410  1.0000 -0.1770430676
N   N6        1.0  0.23720  0.74770  0.67920  1.0000 -0.162899479
N   N7        1.0  0.06410  0.63470  0.31260  1.0000 -0.1865830369
N   N8        1.0  0.41490  0.40840  0.70410  1.0000 -0.171523983
N   N9        1.0  0.79600  0.70300  0.49750  1.0000 0.0088838061
N   N10       1.0  0.39200  0.55380  0.77750  1.0000 -0.0122436992
N   N11       1.0  0.89300  0.57500  0.82760  1.0000 -0.162899479
N   N12       1.0  0.28800  0.67280  0.86510  1.0000 -0.162899479
N   N13       1.0  0.76300  0.59230  0.63310  1.0000 -0.0958694652
N   N14       1.0  0.79920  0.69220  0.14410  1.0000 -0.1770430676
N   N15       1.0  0.26280  0.25230  0.17920  1.0000 -0.162899479
N   N16       1.0  0.43590  0.36530  0.81260  1.0000 -0.1865830369
N   N17       1.0  0.08510  0.59160  0.20410  1.0000 -0.171523983
N   N18       1.0  0.70400  0.29700  0.99750  1.0000 0.0088838061
N   N19       1.0  0.89200  0.94620  0.22250  1.0000 -0.0122436992
N   N20       1.0  0.39300  0.92500  0.17240  1.0000 -0.162899479
N   N21       1.0  0.78800  0.82720  0.13490  1.0000 -0.162899479
N   N22       1.0  0.26300  0.90770  0.36690  1.0000 -0.0958694652
N   N23       1.0  0.29920  0.80780  0.85590  1.0000 -0.1770430676
N   N24       1.0  0.76280  0.24770  0.82080  1.0000 -0.162899479
N   N25       1.0  0.93590  0.13470  0.18740  1.0000 -0.1865830369
N   N26       1.0  0.58510  0.90840  0.79590  1.0000 -0.171523983
N   N27       1.0  0.20400  0.20300  0.00250  1.0000 0.0088838061
N   N28       1.0  0.60800  0.05380  0.72250  1.0000 -0.0122436992
N   N29       1.0  0.10700  0.07500  0.67240  1.0000 -0.162899479
N   N30       1.0  0.71200  0.17280  0.63490  1.0000 -0.162899479
N   N31       1.0  0.23700  0.09230  0.86690  1.0000 -0.0958694652
N   N32       1.0  0.20080  0.19220  0.35590  1.0000 -0.1770430676
N   N33       1.0  0.73720  0.75230  0.32080  1.0000 -0.162899479
N   N34       1.0  0.56410  0.86530  0.68740  1.0000 -0.1865830369
N   N35       1.0  0.91490  0.09160  0.29590  1.0000 -0.171523983
N   N36       1.0  0.29600  0.79700  0.50250  1.0000 0.0088838061
O   O1        1.0  0.34000  0.43790  0.26760  1.0000 -0.4912538178
O   O2        1.0  0.58550  0.65570  0.50130  1.0000 -0.57734702
O   O3        1.0  0.93130  0.40840  0.08640  1.0000 -0.6085048824
O   O4        1.0  0.87320  0.50980  0.45220  1.0000 -0.6601919479
O   O5        1.0  0.81360  0.45280  0.53420  1.0000 -0.5608826227
O   O6        1.0  0.64810  0.54000  0.46250  1.0000 -0.5937958307
O   O7        1.0  0.13420  0.44870  0.49700  1.0000 -0.6085048824
O   O8        1.0  0.35260  0.47390  0.47530  1.0000 -0.6085048824
O   O9        1.0  0.57980  0.46930  0.54290  1.0000 -0.6277929641
O   O10       1.0  0.36290  0.59900  0.44480  1.0000 -0.57734702
O   O11       1.0  0.07730  0.48200  0.59070  1.0000 -0.6277929641
O   O12       1.0  0.30130  0.63700  0.54170  1.0000 -0.598899389
O   O13       1.0  0.14140  0.57620  0.46650  1.0000 -0.6472116656
O   O14       1.0  0.07440  0.61850  0.55810  1.0000 -0.598899389
O   O15       1.0  0.28500  0.51700  0.56890  1.0000 -0.6085048824
O   O16       1.0  0.71650  0.43040  0.06130  1.0000 -0.6732477493
O   O17       1.0  0.16000  0.56210  0.76760  1.0000 -0.4912538178
O   O18       1.0  0.91450  0.34430  0.00130  1.0000 -0.57734702
O   O19       1.0  0.56870  0.59160  0.58640  1.0000 -0.6085048824
O   O20       1.0  0.62680  0.49020  0.95220  1.0000 -0.6601919479
O   O21       1.0  0.68640  0.54720  0.03420  1.0000 -0.5608826227
O   O22       1.0  0.85190  0.46000  0.96250  1.0000 -0.5937958307
O   O23       1.0  0.36580  0.55130  0.99700  1.0000 -0.6085048824
O   O24       1.0  0.14740  0.52610  0.97530  1.0000 -0.6085048824
O   O25       1.0  0.92020  0.53070  0.04290  1.0000 -0.6277929641
O   O26       1.0  0.13710  0.40100  0.94480  1.0000 -0.57734702
O   O27       1.0  0.42270  0.51800  0.09070  1.0000 -0.6277929641
O   O28       1.0  0.19870  0.36300  0.04170  1.0000 -0.598899389
O   O29       1.0  0.35860  0.42380  0.96650  1.0000 -0.6472116656
O   O30       1.0  0.42560  0.38150  0.05810  1.0000 -0.598899389
O   O31       1.0  0.21500  0.48300  0.06890  1.0000 -0.6085048824
O   O32       1.0  0.78350  0.56960  0.56130  1.0000 -0.6732477493
O   O33       1.0  0.66000  0.93790  0.23240  1.0000 -0.4912538178
O   O34       1.0  0.41450  0.15570  0.99870  1.0000 -0.57734702
O   O35       1.0  0.06870  0.90840  0.41360  1.0000 -0.6085048824
O   O36       1.0  0.12680  0.00980  0.04780  1.0000 -0.6601919479
O   O37       1.0  0.18640  0.95280  0.96580  1.0000 -0.5608826227
O   O38       1.0  0.35190  0.04000  0.03750  1.0000 -0.5937958307
O   O39       1.0  0.86580  0.94870  0.00300  1.0000 -0.6085048824
O   O40       1.0  0.64740  0.97390  0.02470  1.0000 -0.6085048824
O   O41       1.0  0.42020  0.96930  0.95710  1.0000 -0.6277929641
O   O42       1.0  0.63710  0.09900  0.05520  1.0000 -0.57734702
O   O43       1.0  0.92270  0.98200  0.90930  1.0000 -0.6277929641
O   O44       1.0  0.69870  0.13700  0.95830  1.0000 -0.598899389
O   O45       1.0  0.85860  0.07620  0.03350  1.0000 -0.6472116656
O   O46       1.0  0.92560  0.11850  0.94190  1.0000 -0.598899389
O   O47       1.0  0.71500  0.01700  0.93110  1.0000 -0.6085048824
O   O48       1.0  0.28350  0.93040  0.43870  1.0000 -0.6732477493
O   O49       1.0  0.84000  0.06210  0.73240  1.0000 -0.4912538178
O   O50       1.0  0.08550  0.84430  0.49870  1.0000 -0.57734702
O   O51       1.0  0.43130  0.09160  0.91360  1.0000 -0.6085048824
O   O52       1.0  0.37320  0.99020  0.54780  1.0000 -0.6601919479
O   O53       1.0  0.31360  0.04720  0.46580  1.0000 -0.5608826227
O   O54       1.0  0.14810  0.96000  0.53750  1.0000 -0.5937958307
O   O55       1.0  0.63420  0.05130  0.50300  1.0000 -0.6085048824
O   O56       1.0  0.85260  0.02610  0.52470  1.0000 -0.6085048824
O   O57       1.0  0.07980  0.03070  0.45710  1.0000 -0.6277929641
O   O58       1.0  0.86290  0.90100  0.55520  1.0000 -0.57734702
O   O59       1.0  0.57730  0.01800  0.40930  1.0000 -0.6277929641
O   O60       1.0  0.80130  0.86300  0.45830  1.0000 -0.598899389
O   O61       1.0  0.64140  0.92380  0.53350  1.0000 -0.6472116656
O   O62       1.0  0.57440  0.88150  0.44190  1.0000 -0.598899389
O   O63       1.0  0.78500  0.98300  0.43110  1.0000 -0.6085048824
O   O64       1.0  0.21650  0.06960  0.93870  1.0000 -0.6732477493
