# DDEC6 charges by PACMAN v1.1 (https://github.com/mtap-research/PACMAN-charge/)
data_2017[CuNd][nan]3[FSR]1
_chemical_formula_sum              "Nd8 Cu16 H184 C200 I12 N36 O64"
_cell_length_a       9.375
_cell_length_b       22.981
_cell_length_c       31.16
_cell_angle_alpha    90
_cell_angle_beta     90
_cell_angle_gamma    90

_symmetry_space_group_name_H-M    "P 1"
_symmetry_Int_Tables_number       1

loop_
  _symmetry_equiv_pos_as_xyz
  'x, y, z'

loop_
  _atom_site_type_symbol
  _atom_site_label
  _atom_site_symmetry_multiplicity
  _atom_site_fract_x
  _atom_site_fract_y
  _atom_site_fract_z
  _atom_site_occupancy
  _atom_site_charge
Nd  Nd1       1.0  0.53864  0.44129  0.98475  1.0000 2.2017577972
Nd  Nd2       1.0  0.00733  0.47050  0.97797  1.0000 2.1877755012
Nd  Nd3       1.0  0.96136  0.55871  0.48475  1.0000 2.2017577972
Nd  Nd4       1.0  0.49267  0.52950  0.47797  1.0000 2.1877755012
Nd  Nd5       1.0  0.46136  0.94129  0.51525  1.0000 2.2017577972
Nd  Nd6       1.0  0.99267  0.97050  0.52203  1.0000 2.1877755012
Nd  Nd7       1.0  0.03864  0.05871  0.01525  1.0000 2.2017577972
Nd  Nd8       1.0  0.50733  0.02950  0.02203  1.0000 2.1877755012
Cu  Cu1       1.0  0.51240  0.13997  0.75125  1.0000 0.1834370915
Cu  Cu2       1.0  0.04040  0.38337  0.72485  1.0000 0.2824641105
Cu  Cu3       1.0  0.71680  0.26593  0.68128  1.0000 0.1890923764
Cu  Cu4       1.0  0.74400  0.21625  0.76040  1.0000 0.1713624719
Cu  Cu5       1.0  0.98760  0.86003  0.25125  1.0000 0.1834370915
Cu  Cu6       1.0  0.45960  0.61663  0.22485  1.0000 0.2824641105
Cu  Cu7       1.0  0.78320  0.73407  0.18128  1.0000 0.1890923764
Cu  Cu8       1.0  0.75600  0.78375  0.26040  1.0000 0.1713624719
Cu  Cu9       1.0  0.48760  0.63997  0.74875  1.0000 0.1834370915
Cu  Cu10      1.0  0.95960  0.88337  0.77515  1.0000 0.2824641105
Cu  Cu11      1.0  0.28320  0.76593  0.81872  1.0000 0.1890923764
Cu  Cu12      1.0  0.25600  0.71625  0.73960  1.0000 0.1713624719
Cu  Cu13      1.0  0.01240  0.36003  0.24875  1.0000 0.1834370915
Cu  Cu14      1.0  0.54040  0.11663  0.27515  1.0000 0.2824641105
Cu  Cu15      1.0  0.21680  0.23407  0.31872  1.0000 0.1890923764
Cu  Cu16      1.0  0.24400  0.28375  0.23960  1.0000 0.1713624719
H   H1        1.0  0.58090  0.31150  0.89780  1.0000 0.1400050904
H   H2        1.0  0.00110  0.31960  0.87840  1.0000 0.1280235671
H   H3        1.0  0.11470  0.39090  0.16150  1.0000 0.1112264671
H   H4        1.0  0.77750  0.62790  0.78960  1.0000 0.1112264671
H   H5        1.0  0.09890  0.59130  0.89790  1.0000 0.1400050904
H   H6        1.0  0.49540  0.70310  0.87370  1.0000 0.1012131989
H   H7        1.0  0.89550  0.57650  0.84170  1.0000 0.1400050904
H   H8        1.0  0.11160  0.48030  0.86390  1.0000 0.1400050904
H   H9        1.0  0.03130  0.47050  0.79620  1.0000 0.1196535749
H   H10       1.0  0.06310  0.54680  0.62070  1.0000 0.1483317997
H   H11       1.0  0.97150  0.25860  0.82140  1.0000 0.1012131989
H   H12       1.0  0.17210  0.31240  0.94060  1.0000 0.1400050904
H   H13       1.0  0.16760  0.24600  0.95200  1.0000 0.1483317997
H   H14       1.0  0.31440  0.27830  0.94880  1.0000 0.1400050904
H   H15       1.0  0.52220  0.50110  0.87130  1.0000 0.1483317997
H   H16       1.0  0.03540  0.41500  0.09450  1.0000 0.1400050904
H   H17       1.0  0.55680  0.26000  0.83300  1.0000 0.1012131989
H   H18       1.0  0.42190  0.55090  0.81570  1.0000 0.1012131989
H   H19       1.0  0.33940  0.33370  0.85030  1.0000 0.1400050904
H   H20       1.0  0.10060  0.66650  0.84880  1.0000 0.1012131989
H   H21       1.0  0.24490  0.36690  0.65190  1.0000 0.1112264671
H   H22       1.0  0.99910  0.49400  0.68110  1.0000 0.1196535749
H   H23       1.0  0.24260  0.32330  0.78460  1.0000 0.1112264671
H   H24       1.0  0.51080  0.62800  0.92220  1.0000 0.1400050904
H   H25       1.0  0.92050  0.34900  0.64000  1.0000 0.0929220627
H   H26       1.0  0.93960  0.40960  0.58150  1.0000 0.1280235671
H   H27       1.0  0.51790  0.32010  0.61480  1.0000 0.1012131989
H   H28       1.0  0.65090  0.35560  0.12910  1.0000 0.1483317997
H   H29       1.0  0.62900  0.41730  0.80310  1.0000 0.1483317997
H   H30       1.0  0.78430  0.39200  0.80140  1.0000 0.1483317997
H   H31       1.0  0.65830  0.35790  0.78000  1.0000 0.1483317997
H   H32       1.0  0.99700  0.28980  0.00960  1.0000 0.1483317997
H   H33       1.0  0.07770  0.30190  0.05270  1.0000 0.1196535749
H   H34       1.0  0.08150  0.23960  0.03230  1.0000 0.1483317997
H   H35       1.0  0.31570  0.41180  0.59020  1.0000 0.1400050904
H   H36       1.0  0.74010  0.33370  0.19520  1.0000 0.1112264671
H   H37       1.0  0.45460  0.40980  0.75780  1.0000 0.1112264671
H   H38       1.0  0.40120  0.43210  0.71300  1.0000 0.1196535749
H   H39       1.0  0.42780  0.47640  0.75040  1.0000 0.1280235671
H   H40       1.0  0.52890  0.37790  0.55300  1.0000 0.1400050904
H   H41       1.0  0.23780  0.35980  0.07680  1.0000 0.1483317997
H   H42       1.0  0.40430  0.35370  0.07600  1.0000 0.1713624719
H   H43       1.0  0.30840  0.29850  0.08240  1.0000 0.1400050904
H   H44       1.0  0.68870  0.51030  0.68520  1.0000 0.1280235671
H   H45       1.0  0.53800  0.48840  0.67060  1.0000 0.1280235671
H   H46       1.0  0.67330  0.45010  0.66190  1.0000 0.1280235671
H   H47       1.0  0.91910  0.68850  0.39780  1.0000 0.1400050904
H   H48       1.0  0.49890  0.68040  0.37840  1.0000 0.1280235671
H   H49       1.0  0.38530  0.60910  0.66150  1.0000 0.1012131989
H   H50       1.0  0.72250  0.37210  0.28960  1.0000 0.1112264671
H   H51       1.0  0.40110  0.40870  0.39790  1.0000 0.1400050904
H   H52       1.0  0.00460  0.29690  0.37370  1.0000 0.1012131989
H   H53       1.0  0.60450  0.42350  0.34170  1.0000 0.1400050904
H   H54       1.0  0.38840  0.51970  0.36390  1.0000 0.1400050904
H   H55       1.0  0.46870  0.52950  0.29620  1.0000 0.1196535749
H   H56       1.0  0.43690  0.45320  0.12070  1.0000 0.1483317997
H   H57       1.0  0.52850  0.74140  0.32140  1.0000 0.1012131989
H   H58       1.0  0.32790  0.68760  0.44060  1.0000 0.1400050904
H   H59       1.0  0.33240  0.75400  0.45200  1.0000 0.1483317997
H   H60       1.0  0.18560  0.72170  0.44880  1.0000 0.1400050904
H   H61       1.0  0.97780  0.49890  0.37130  1.0000 0.1483317997
H   H62       1.0  0.46460  0.58500  0.59450  1.0000 0.1400050904
H   H63       1.0  0.94320  0.74000  0.33300  1.0000 0.1012131989
H   H64       1.0  0.07810  0.44910  0.31570  1.0000 0.1012131989
H   H65       1.0  0.16060  0.66630  0.35030  1.0000 0.1400050904
H   H66       1.0  0.39940  0.33350  0.34880  1.0000 0.1012131989
H   H67       1.0  0.25510  0.63310  0.15190  1.0000 0.1112264671
H   H68       1.0  0.50090  0.50600  0.18110  1.0000 0.1196535749
H   H69       1.0  0.25740  0.67670  0.28460  1.0000 0.1112264671
H   H70       1.0  0.98920  0.37200  0.42220  1.0000 0.1400050904
H   H71       1.0  0.57950  0.65100  0.14000  1.0000 0.0929220627
H   H72       1.0  0.56040  0.59040  0.08150  1.0000 0.1280235671
H   H73       1.0  0.98210  0.67990  0.11480  1.0000 0.1012131989
H   H74       1.0  0.84910  0.64440  0.62910  1.0000 0.1483317997
H   H75       1.0  0.87100  0.58270  0.30310  1.0000 0.1483317997
H   H76       1.0  0.71570  0.60800  0.30140  1.0000 0.1483317997
H   H77       1.0  0.84170  0.64210  0.28000  1.0000 0.1483317997
H   H78       1.0  0.50300  0.71020  0.50960  1.0000 0.1483317997
H   H79       1.0  0.42230  0.69810  0.55270  1.0000 0.1196535749
H   H80       1.0  0.41850  0.76040  0.53230  1.0000 0.1483317997
H   H81       1.0  0.18430  0.58820  0.09020  1.0000 0.1400050904
H   H82       1.0  0.75990  0.66630  0.69520  1.0000 0.1112264671
H   H83       1.0  0.04540  0.59020  0.25780  1.0000 0.1112264671
H   H84       1.0  0.09880  0.56790  0.21300  1.0000 0.1196535749
H   H85       1.0  0.07220  0.52360  0.25040  1.0000 0.1280235671
H   H86       1.0  0.97110  0.62210  0.05300  1.0000 0.1400050904
H   H87       1.0  0.26220  0.64020  0.57680  1.0000 0.1483317997
H   H88       1.0  0.09570  0.64630  0.57600  1.0000 0.1713624719
H   H89       1.0  0.19160  0.70150  0.58240  1.0000 0.1400050904
H   H90       1.0  0.81130  0.48970  0.18520  1.0000 0.1280235671
H   H91       1.0  0.96200  0.51160  0.17060  1.0000 0.1280235671
H   H92       1.0  0.82670  0.54990  0.16190  1.0000 0.1280235671
H   H93       1.0  0.41910  0.81150  0.60220  1.0000 0.1400050904
H   H94       1.0  0.99890  0.81960  0.62160  1.0000 0.1280235671
H   H95       1.0  0.88530  0.89090  0.33850  1.0000 0.1112264671
H   H96       1.0  0.22250  0.12790  0.71040  1.0000 0.1112264671
H   H97       1.0  0.90110  0.09130  0.60210  1.0000 0.1400050904
H   H98       1.0  0.50460  0.20310  0.62630  1.0000 0.1012131989
H   H99       1.0  0.10450  0.07650  0.65830  1.0000 0.1400050904
H   H100      1.0  0.88840  0.98030  0.63610  1.0000 0.1400050904
H   H101      1.0  0.96870  0.97050  0.70380  1.0000 0.1196535749
H   H102      1.0  0.93690  0.04680  0.87930  1.0000 0.1483317997
H   H103      1.0  0.02850  0.75860  0.67860  1.0000 0.1012131989
H   H104      1.0  0.82790  0.81240  0.55940  1.0000 0.1400050904
H   H105      1.0  0.83240  0.74600  0.54800  1.0000 0.1483317997
H   H106      1.0  0.68560  0.77830  0.55120  1.0000 0.1400050904
H   H107      1.0  0.47780  0.00110  0.62870  1.0000 0.1483317997
H   H108      1.0  0.96460  0.91500  0.40550  1.0000 0.1400050904
H   H109      1.0  0.44320  0.76000  0.66700  1.0000 0.1012131989
H   H110      1.0  0.57810  0.05090  0.68430  1.0000 0.1012131989
H   H111      1.0  0.66060  0.83370  0.64970  1.0000 0.1400050904
H   H112      1.0  0.89940  0.16650  0.65120  1.0000 0.1012131989
H   H113      1.0  0.75510  0.86690  0.84810  1.0000 0.1112264671
H   H114      1.0  0.00090  0.99400  0.81890  1.0000 0.1196535749
H   H115      1.0  0.75740  0.82330  0.71540  1.0000 0.1112264671
H   H116      1.0  0.48920  0.12800  0.57780  1.0000 0.1400050904
H   H117      1.0  0.07950  0.84900  0.86000  1.0000 0.0929220627
H   H118      1.0  0.06040  0.90960  0.91850  1.0000 0.1280235671
H   H119      1.0  0.48210  0.82010  0.88520  1.0000 0.1012131989
H   H120      1.0  0.34910  0.85560  0.37090  1.0000 0.1483317997
H   H121      1.0  0.37100  0.91730  0.69690  1.0000 0.1483317997
H   H122      1.0  0.21570  0.89200  0.69860  1.0000 0.1483317997
H   H123      1.0  0.34170  0.85790  0.72000  1.0000 0.1483317997
H   H124      1.0  0.00300  0.78980  0.49040  1.0000 0.1483317997
H   H125      1.0  0.92230  0.80190  0.44730  1.0000 0.1196535749
H   H126      1.0  0.91850  0.73960  0.46770  1.0000 0.1483317997
H   H127      1.0  0.68430  0.91180  0.90980  1.0000 0.1400050904
H   H128      1.0  0.25990  0.83370  0.30480  1.0000 0.1112264671
H   H129      1.0  0.54540  0.90980  0.74220  1.0000 0.1112264671
H   H130      1.0  0.59880  0.93210  0.78700  1.0000 0.1196535749
H   H131      1.0  0.57220  0.97640  0.74960  1.0000 0.1280235671
H   H132      1.0  0.47110  0.87790  0.94700  1.0000 0.1400050904
H   H133      1.0  0.76220  0.85980  0.42320  1.0000 0.1483317997
H   H134      1.0  0.59570  0.85370  0.42400  1.0000 0.1713624719
H   H135      1.0  0.69160  0.79850  0.41760  1.0000 0.1400050904
H   H136      1.0  0.31130  0.01030  0.81480  1.0000 0.1280235671
H   H137      1.0  0.46200  0.98840  0.82940  1.0000 0.1280235671
H   H138      1.0  0.32670  0.95010  0.83810  1.0000 0.1280235671
H   H139      1.0  0.08090  0.18850  0.10220  1.0000 0.1400050904
H   H140      1.0  0.50110  0.18040  0.12160  1.0000 0.1280235671
H   H141      1.0  0.61470  0.10910  0.83850  1.0000 0.1012131989
H   H142      1.0  0.27750  0.87210  0.21040  1.0000 0.1196535749
H   H143      1.0  0.59890  0.90870  0.10210  1.0000 0.1400050904
H   H144      1.0  0.99540  0.79690  0.12630  1.0000 0.1012131989
H   H145      1.0  0.39550  0.92350  0.15830  1.0000 0.1400050904
H   H146      1.0  0.61160  0.01970  0.13610  1.0000 0.1400050904
H   H147      1.0  0.53130  0.02950  0.20380  1.0000 0.1196535749
H   H148      1.0  0.56310  0.95320  0.37930  1.0000 0.1483317997
H   H149      1.0  0.47150  0.24140  0.17860  1.0000 0.1012131989
H   H150      1.0  0.67210  0.18760  0.05940  1.0000 0.1400050904
H   H151      1.0  0.66760  0.25400  0.04800  1.0000 0.1483317997
H   H152      1.0  0.81440  0.22170  0.05120  1.0000 0.1400050904
H   H153      1.0  0.02220  0.99890  0.12870  1.0000 0.1483317997
H   H154      1.0  0.53540  0.08500  0.90550  1.0000 0.1400050904
H   H155      1.0  0.05680  0.24000  0.16700  1.0000 0.1012131989
H   H156      1.0  0.92190  0.94910  0.18430  1.0000 0.1012131989
H   H157      1.0  0.83940  0.16630  0.14970  1.0000 0.1400050904
H   H158      1.0  0.60060  0.83350  0.15120  1.0000 0.1012131989
H   H159      1.0  0.74490  0.13310  0.34810  1.0000 0.1112264671
H   H160      1.0  0.49910  0.00600  0.31890  1.0000 0.1196535749
H   H161      1.0  0.74260  0.17670  0.21540  1.0000 0.1112264671
H   H162      1.0  0.01080  0.87200  0.07780  1.0000 0.1400050904
H   H163      1.0  0.42050  0.15100  0.36000  1.0000 0.0929220627
H   H164      1.0  0.43960  0.09040  0.41850  1.0000 0.1280235671
H   H165      1.0  0.01790  0.17990  0.38520  1.0000 0.1012131989
H   H166      1.0  0.15090  0.14440  0.87090  1.0000 0.1483317997
H   H167      1.0  0.12900  0.08270  0.19690  1.0000 0.1483317997
H   H168      1.0  0.28430  0.10800  0.19860  1.0000 0.1483317997
H   H169      1.0  0.15830  0.14210  0.22000  1.0000 0.1483317997
H   H170      1.0  0.49700  0.21020  0.99040  1.0000 0.1483317997
H   H171      1.0  0.57770  0.19810  0.94730  1.0000 0.1196535749
H   H172      1.0  0.58150  0.26040  0.96770  1.0000 0.1483317997
H   H173      1.0  0.81570  0.08820  0.40980  1.0000 0.1400050904
H   H174      1.0  0.24010  0.16630  0.80480  1.0000 0.1112264671
H   H175      1.0  0.95460  0.09020  0.24220  1.0000 0.1112264671
H   H176      1.0  0.90120  0.06790  0.28700  1.0000 0.1196535749
H   H177      1.0  0.92780  0.02360  0.24960  1.0000 0.1280235671
H   H178      1.0  0.02890  0.12210  0.44700  1.0000 0.1400050904
H   H179      1.0  0.73780  0.14020  0.92320  1.0000 0.1483317997
H   H180      1.0  0.90430  0.14630  0.92400  1.0000 0.1713624719
H   H181      1.0  0.80840  0.20150  0.91760  1.0000 0.1400050904
H   H182      1.0  0.18870  0.98970  0.31480  1.0000 0.1280235671
H   H183      1.0  0.03800  0.01160  0.32940  1.0000 0.1280235671
H   H184      1.0  0.17330  0.04990  0.33810  1.0000 0.1280235671
C   C1        1.0  0.80320  0.36020  0.93530  1.0000 0.6172187414
C   C2        1.0  0.77490  0.40550  0.05880  1.0000 0.6172187414
C   C3        1.0  0.23590  0.51520  0.55740  1.0000 0.6298683967
C   C4        1.0  0.74190  0.44640  0.52640  1.0000 0.6429445605
C   C5        1.0  0.73340  0.40540  0.56340  1.0000 0.0079556431
C   C6        1.0  0.66090  0.30340  0.88120  1.0000 -0.1406184788
C   C7        1.0  0.91050  0.30700  0.87060  1.0000 -0.1505691981
C   C8        1.0  0.01860  0.38540  0.15520  1.0000 0.059845776
C   C9        1.0  0.19830  0.48340  0.59710  1.0000 0.0079556431
C   C10       1.0  0.72700  0.60060  0.80570  1.0000 0.059845776
C   C11       1.0  0.30160  0.55520  0.95050  1.0000 0.6429445605
C   C12       1.0  0.18080  0.61360  0.89400  1.0000 -0.1505691981
C   C13       1.0  0.23830  0.40910  0.86710  1.0000 0.0079556431
C   C14       1.0  0.41520  0.68020  0.87850  1.0000 0.0695508025
C   C15       1.0  0.79760  0.57220  0.83820  1.0000 -0.1406184788
C   C16       1.0  0.29680  0.41770  0.91050  1.0000 0.609118336
C   C17       1.0  0.14170  0.44830  0.84790  1.0000 -0.1505691981
C   C18       1.0  0.09050  0.44200  0.80770  1.0000 0.059845776
C   C19       1.0  0.72200  0.42770  0.74440  1.0000 0.5221887167
C   C20       1.0  0.10100  0.51000  0.62580  1.0000 -0.1505691981
C   C21       1.0  0.89030  0.27140  0.83580  1.0000 0.0695508025
C   C22       1.0  0.21630  0.28210  0.95710  1.0000 -0.3164401863
C   C23       1.0  0.72110  0.53730  0.86550  1.0000 0.0334449268
C   C24       1.0  0.57660  0.52710  0.85520  1.0000 -0.1505691981
C   C25       1.0  0.79190  0.32340  0.89370  1.0000 0.0221491224
C   C26       1.0  0.30350  0.60240  0.91760  1.0000 0.0079556431
C   C27       1.0  0.97260  0.39900  0.11440  1.0000 -0.1505691981
C   C28       1.0  0.64700  0.27020  0.84290  1.0000 0.0695508025
C   C29       1.0  0.51850  0.55630  0.82120  1.0000 0.0795488219
C   C30       1.0  0.27490  0.36140  0.84050  1.0000 -0.1571826943
C   C31       1.0  0.18350  0.65890  0.86420  1.0000 0.0695508025
C   C32       1.0  0.20630  0.40310  0.64540  1.0000 0.0334449268
C   C33       1.0  0.06400  0.47720  0.66230  1.0000 0.0795488219
C   C34       1.0  0.21710  0.35560  0.80090  1.0000 0.059845776
C   C35       1.0  0.42480  0.63560  0.90840  1.0000 -0.1505691981
C   C36       1.0  0.84000  0.35550  0.62310  1.0000 0.0695508025
C   C37       1.0  0.78740  0.50870  0.90540  1.0000 0.609118336
C   C38       1.0  0.85200  0.39290  0.58820  1.0000 -0.1406184788
C   C39       1.0  0.60370  0.33820  0.60800  1.0000 0.059845776
C   C40       1.0  0.74580  0.36400  0.13510  1.0000 -0.1505691981
C   C41       1.0  0.83130  0.38870  0.10340  1.0000 0.0221491224
C   C42       1.0  0.31140  0.32660  0.02000  1.0000 0.5355670537
C   C43       1.0  0.69600  0.39580  0.78600  1.0000 -0.5857456093
C   C44       1.0  0.08010  0.28050  0.02620  1.0000 -0.3428890992
C   C45       1.0  0.25010  0.43020  0.60800  1.0000 -0.1406184788
C   C46       1.0  0.79920  0.35160  0.17520  1.0000 0.0504928903
C   C47       1.0  0.46000  0.44100  0.73730  1.0000 -0.3428890992
C   C48       1.0  0.60720  0.37460  0.57120  1.0000 -0.1571826943
C   C49       1.0  0.31600  0.33550  0.06820  1.0000 -0.5970168178
C   C50       1.0  0.62900  0.47670  0.68160  1.0000 -0.3295755301
C   C51       1.0  0.69680  0.63980  0.43530  1.0000 0.6172187414
C   C52       1.0  0.72510  0.59450  0.55880  1.0000 0.6172187414
C   C53       1.0  0.26410  0.48480  0.05740  1.0000 0.6298683967
C   C54       1.0  0.75810  0.55360  0.02640  1.0000 0.6429445605
C   C55       1.0  0.76660  0.59460  0.06340  1.0000 0.0079556431
C   C56       1.0  0.83910  0.69660  0.38120  1.0000 -0.1406184788
C   C57       1.0  0.58950  0.69300  0.37060  1.0000 -0.1505691981
C   C58       1.0  0.48140  0.61460  0.65520  1.0000 0.059845776
C   C59       1.0  0.30170  0.51660  0.09710  1.0000 0.0079556431
C   C60       1.0  0.77300  0.39940  0.30570  1.0000 0.059845776
C   C61       1.0  0.19840  0.44480  0.45050  1.0000 0.6429445605
C   C62       1.0  0.31920  0.38640  0.39400  1.0000 -0.1505691981
C   C63       1.0  0.26170  0.59090  0.36710  1.0000 0.0079556431
C   C64       1.0  0.08480  0.31980  0.37850  1.0000 0.0695508025
C   C65       1.0  0.70240  0.42780  0.33820  1.0000 -0.1406184788
C   C66       1.0  0.20320  0.58230  0.41050  1.0000 0.609118336
C   C67       1.0  0.35830  0.55170  0.34790  1.0000 -0.1505691981
C   C68       1.0  0.40950  0.55800  0.30770  1.0000 0.059845776
C   C69       1.0  0.77800  0.57230  0.24440  1.0000 0.5221887167
C   C70       1.0  0.39900  0.49000  0.12580  1.0000 -0.1505691981
C   C71       1.0  0.60970  0.72860  0.33580  1.0000 0.0695508025
C   C72       1.0  0.28370  0.71790  0.45710  1.0000 -0.3164401863
C   C73       1.0  0.77890  0.46270  0.36550  1.0000 0.0334449268
C   C74       1.0  0.92340  0.47290  0.35520  1.0000 -0.1505691981
C   C75       1.0  0.70810  0.67660  0.39370  1.0000 0.0221491224
C   C76       1.0  0.19650  0.39760  0.41760  1.0000 0.0079556431
C   C77       1.0  0.52740  0.60100  0.61440  1.0000 -0.1505691981
C   C78       1.0  0.85300  0.72980  0.34290  1.0000 0.0695508025
C   C79       1.0  0.98150  0.44370  0.32120  1.0000 0.0795488219
C   C80       1.0  0.22510  0.63860  0.34050  1.0000 -0.1571826943
C   C81       1.0  0.31650  0.34110  0.36420  1.0000 0.0695508025
C   C82       1.0  0.29370  0.59690  0.14540  1.0000 0.0334449268
C   C83       1.0  0.43600  0.52280  0.16230  1.0000 0.0795488219
C   C84       1.0  0.28290  0.64440  0.30090  1.0000 0.059845776
C   C85       1.0  0.07520  0.36440  0.40840  1.0000 -0.1505691981
C   C86       1.0  0.66000  0.64450  0.12310  1.0000 0.0695508025
C   C87       1.0  0.71260  0.49130  0.40540  1.0000 0.609118336
C   C88       1.0  0.64800  0.60710  0.08820  1.0000 -0.1406184788
C   C89       1.0  0.89630  0.66180  0.10800  1.0000 0.059845776
C   C90       1.0  0.75420  0.63600  0.63510  1.0000 -0.1505691981
C   C91       1.0  0.66870  0.61130  0.60340  1.0000 0.0221491224
C   C92       1.0  0.18860  0.67340  0.52000  1.0000 0.5355670537
C   C93       1.0  0.80400  0.60420  0.28600  1.0000 -0.5857456093
C   C94       1.0  0.41990  0.71950  0.52620  1.0000 -0.3428890992
C   C95       1.0  0.24990  0.56980  0.10800  1.0000 -0.1406184788
C   C96       1.0  0.70080  0.64840  0.67520  1.0000 0.0504928903
C   C97       1.0  0.04000  0.55900  0.23730  1.0000 -0.3428890992
C   C98       1.0  0.89280  0.62540  0.07120  1.0000 -0.1571826943
C   C99       1.0  0.18400  0.66450  0.56820  1.0000 -0.5970168178
C   C100      1.0  0.87100  0.52330  0.18160  1.0000 -0.3295755301
C   C101      1.0  0.19680  0.86020  0.56470  1.0000 0.6172187414
C   C102      1.0  0.22510  0.90550  0.44120  1.0000 0.6172187414
C   C103      1.0  0.76410  0.01520  0.94260  1.0000 0.6298683967
C   C104      1.0  0.25810  0.94640  0.97360  1.0000 0.6429445605
C   C105      1.0  0.26660  0.90540  0.93660  1.0000 0.0079556431
C   C106      1.0  0.33910  0.80340  0.61880  1.0000 -0.1406184788
C   C107      1.0  0.08950  0.80700  0.62940  1.0000 -0.1505691981
C   C108      1.0  0.98140  0.88540  0.34480  1.0000 0.059845776
C   C109      1.0  0.80170  0.98340  0.90290  1.0000 0.0079556431
C   C110      1.0  0.27300  0.10060  0.69430  1.0000 0.059845776
C   C111      1.0  0.69840  0.05520  0.54950  1.0000 0.6429445605
C   C112      1.0  0.81920  0.11360  0.60600  1.0000 -0.1505691981
C   C113      1.0  0.76170  0.90910  0.63290  1.0000 0.0079556431
C   C114      1.0  0.58480  0.18020  0.62150  1.0000 0.0695508025
C   C115      1.0  0.20240  0.07220  0.66180  1.0000 -0.1406184788
C   C116      1.0  0.70320  0.91770  0.58950  1.0000 0.609118336
C   C117      1.0  0.85830  0.94830  0.65210  1.0000 -0.1505691981
C   C118      1.0  0.90950  0.94200  0.69230  1.0000 0.059845776
C   C119      1.0  0.27800  0.92770  0.75560  1.0000 0.5221887167
C   C120      1.0  0.89900  0.01000  0.87420  1.0000 -0.1505691981
C   C121      1.0  0.10970  0.77140  0.66420  1.0000 0.0695508025
C   C122      1.0  0.78370  0.78210  0.54290  1.0000 -0.3164401863
C   C123      1.0  0.27890  0.03730  0.63450  1.0000 0.0334449268
C   C124      1.0  0.42340  0.02710  0.64480  1.0000 -0.1505691981
C   C125      1.0  0.20810  0.82340  0.60630  1.0000 0.0221491224
C   C126      1.0  0.69650  0.10240  0.58240  1.0000 0.0079556431
C   C127      1.0  0.02740  0.89900  0.38560  1.0000 -0.1505691981
C   C128      1.0  0.35300  0.77020  0.65710  1.0000 0.0695508025
C   C129      1.0  0.48150  0.05630  0.67880  1.0000 0.0795488219
C   C130      1.0  0.72510  0.86140  0.65950  1.0000 -0.1571826943
C   C131      1.0  0.81650  0.15890  0.63580  1.0000 0.0695508025
C   C132      1.0  0.79370  0.90310  0.85460  1.0000 0.0334449268
C   C133      1.0  0.93600  0.97720  0.83770  1.0000 0.0795488219
C   C134      1.0  0.78290  0.85560  0.69910  1.0000 0.059845776
C   C135      1.0  0.57520  0.13560  0.59160  1.0000 -0.1505691981
C   C136      1.0  0.16000  0.85550  0.87690  1.0000 0.0695508025
C   C137      1.0  0.21260  0.00870  0.59460  1.0000 0.609118336
C   C138      1.0  0.14800  0.89290  0.91180  1.0000 -0.1406184788
C   C139      1.0  0.39630  0.83820  0.89200  1.0000 0.059845776
C   C140      1.0  0.25420  0.86400  0.36490  1.0000 -0.1505691981
C   C141      1.0  0.16870  0.88870  0.39660  1.0000 0.0221491224
C   C142      1.0  0.68860  0.82660  0.48000  1.0000 0.5355670537
C   C143      1.0  0.30400  0.89580  0.71400  1.0000 -0.5857456093
C   C144      1.0  0.91990  0.78050  0.47380  1.0000 -0.3428890992
C   C145      1.0  0.74990  0.93020  0.89200  1.0000 -0.1406184788
C   C146      1.0  0.20080  0.85160  0.32480  1.0000 0.0504928903
C   C147      1.0  0.54000  0.94100  0.76270  1.0000 -0.3428890992
C   C148      1.0  0.39280  0.87460  0.92880  1.0000 -0.1571826943
C   C149      1.0  0.68400  0.83550  0.43180  1.0000 -0.5970168178
C   C150      1.0  0.37100  0.97670  0.81840  1.0000 -0.3295755301
C   C151      1.0  0.30320  0.13980  0.06470  1.0000 0.6172187414
C   C152      1.0  0.27490  0.09450  0.94120  1.0000 0.6172187414
C   C153      1.0  0.73590  0.98480  0.44260  1.0000 0.6298683967
C   C154      1.0  0.24190  0.05360  0.47360  1.0000 0.6429445605
C   C155      1.0  0.23340  0.09460  0.43660  1.0000 0.0079556431
C   C156      1.0  0.16090  0.19660  0.11880  1.0000 -0.1406184788
C   C157      1.0  0.41050  0.19300  0.12940  1.0000 -0.1505691981
C   C158      1.0  0.51860  0.11460  0.84480  1.0000 0.059845776
C   C159      1.0  0.69830  0.01660  0.40290  1.0000 0.0079556431
C   C160      1.0  0.22700  0.89940  0.19430  1.0000 0.059845776
C   C161      1.0  0.80160  0.94480  0.04950  1.0000 0.6429445605
C   C162      1.0  0.68080  0.88640  0.10600  1.0000 -0.1505691981
C   C163      1.0  0.73830  0.09090  0.13290  1.0000 0.0079556431
C   C164      1.0  0.91520  0.81980  0.12150  1.0000 0.0695508025
C   C165      1.0  0.29760  0.92780  0.16180  1.0000 -0.1406184788
C   C166      1.0  0.79680  0.08230  0.08950  1.0000 0.609118336
C   C167      1.0  0.64170  0.05170  0.15210  1.0000 -0.1505691981
C   C168      1.0  0.59050  0.05800  0.19230  1.0000 0.059845776
C   C169      1.0  0.22200  0.07230  0.25560  1.0000 0.5221887167
C   C170      1.0  0.60100  0.99000  0.37420  1.0000 -0.1505691981
C   C171      1.0  0.39030  0.22860  0.16420  1.0000 0.0695508025
C   C172      1.0  0.71630  0.21790  0.04290  1.0000 -0.3164401863
C   C173      1.0  0.22110  0.96270  0.13450  1.0000 0.0334449268
C   C174      1.0  0.07660  0.97290  0.14480  1.0000 -0.1505691981
C   C175      1.0  0.29190  0.17660  0.10630  1.0000 0.0221491224
C   C176      1.0  0.80350  0.89760  0.08240  1.0000 0.0079556431
C   C177      1.0  0.47260  0.10100  0.88560  1.0000 -0.1505691981
C   C178      1.0  0.14700  0.22980  0.15710  1.0000 0.0695508025
C   C179      1.0  0.01850  0.94370  0.17880  1.0000 0.0795488219
C   C180      1.0  0.77490  0.13860  0.15950  1.0000 -0.1571826943
C   C181      1.0  0.68350  0.84110  0.13580  1.0000 0.0695508025
C   C182      1.0  0.70630  0.09690  0.35460  1.0000 0.0334449268
C   C183      1.0  0.56400  0.02280  0.33770  1.0000 0.0795488219
C   C184      1.0  0.71710  0.14440  0.19910  1.0000 0.059845776
C   C185      1.0  0.92480  0.86440  0.09160  1.0000 -0.1505691981
C   C186      1.0  0.34000  0.14450  0.37690  1.0000 0.0695508025
C   C187      1.0  0.28740  0.99130  0.09460  1.0000 0.609118336
C   C188      1.0  0.35200  0.10710  0.41180  1.0000 -0.1406184788
C   C189      1.0  0.10370  0.16180  0.39200  1.0000 0.059845776
C   C190      1.0  0.24580  0.13600  0.86490  1.0000 -0.1505691981
C   C191      1.0  0.33130  0.11130  0.89660  1.0000 0.0221491224
C   C192      1.0  0.81140  0.17340  0.98000  1.0000 0.5355670537
C   C193      1.0  0.19600  0.10420  0.21400  1.0000 -0.5857456093
C   C194      1.0  0.58010  0.21950  0.97380  1.0000 -0.3428890992
C   C195      1.0  0.75010  0.06980  0.39200  1.0000 -0.1406184788
C   C196      1.0  0.29920  0.14840  0.82480  1.0000 0.0504928903
C   C197      1.0  0.96000  0.05900  0.26270  1.0000 -0.3428890992
C   C198      1.0  0.10720  0.12540  0.42880  1.0000 -0.1571826943
C   C199      1.0  0.81600  0.16450  0.93180  1.0000 -0.5970168178
C   C200      1.0  0.12900  0.02330  0.31840  1.0000 -0.3295755301
I   I1        1.0  0.48584  0.25502  0.72939  1.0000 -0.3841701736
I   I2        1.0  0.97431  0.27069  0.71749  1.0000 -0.3927594636
I   I3        1.0  0.79049  0.10528  0.75384  1.0000 -0.4317999546
I   I4        1.0  0.01416  0.74498  0.22939  1.0000 -0.3841701736
I   I5        1.0  0.52569  0.72931  0.21749  1.0000 -0.3927594636
I   I6        1.0  0.70951  0.89472  0.25384  1.0000 -0.4317999546
I   I7        1.0  0.51416  0.75502  0.77061  1.0000 -0.3841701736
I   I8        1.0  0.02569  0.77069  0.78251  1.0000 -0.3927594636
I   I9        1.0  0.20951  0.60528  0.74616  1.0000 -0.4317999546
I   I10       1.0  0.98584  0.24498  0.27061  1.0000 -0.3841701736
I   I11       1.0  0.47431  0.22931  0.28251  1.0000 -0.3927594636
I   I12       1.0  0.29049  0.39472  0.24616  1.0000 -0.4317999546
N   N1        1.0  0.58960  0.59140  0.79570  1.0000 -0.1697178845
N   N2        1.0  0.29740  0.69190  0.85650  1.0000 -0.1814220984
N   N3        1.0  0.93510  0.36470  0.18660  1.0000 -0.1814220984
N   N4        1.0  0.71690  0.32820  0.63360  1.0000 -0.1814220984
N   N5        1.0  0.20840  0.29640  0.00210  1.0000 0.0079556431
N   N6        1.0  0.76420  0.25340  0.82060  1.0000 -0.1814220984
N   N7        1.0  0.12460  0.39400  0.78360  1.0000 -0.1934220184
N   N8        1.0  0.11220  0.42580  0.67270  1.0000 -0.1814220984
N   N9        1.0  0.60980  0.44810  0.72310  1.0000 -0.0118757948
N   N10       1.0  0.91040  0.40860  0.29570  1.0000 -0.1697178845
N   N11       1.0  0.20260  0.30810  0.35650  1.0000 -0.1814220984
N   N12       1.0  0.56490  0.63530  0.68660  1.0000 -0.1814220984
N   N13       1.0  0.78310  0.67180  0.13360  1.0000 -0.1814220984
N   N14       1.0  0.29160  0.70360  0.50210  1.0000 0.0079556431
N   N15       1.0  0.73580  0.74660  0.32060  1.0000 -0.1814220984
N   N16       1.0  0.37540  0.60600  0.28360  1.0000 -0.1934220184
N   N17       1.0  0.38780  0.57420  0.17270  1.0000 -0.1814220984
N   N18       1.0  0.89020  0.55190  0.22310  1.0000 -0.0118757948
N   N19       1.0  0.41040  0.09140  0.70430  1.0000 -0.1697178845
N   N20       1.0  0.70260  0.19190  0.64350  1.0000 -0.1814220984
N   N21       1.0  0.06490  0.86470  0.31340  1.0000 -0.1814220984
N   N22       1.0  0.28310  0.82820  0.86640  1.0000 -0.1814220984
N   N23       1.0  0.79160  0.79640  0.49790  1.0000 0.0079556431
N   N24       1.0  0.23580  0.75340  0.67940  1.0000 -0.1814220984
N   N25       1.0  0.87540  0.89400  0.71640  1.0000 -0.1934220184
N   N26       1.0  0.88780  0.92580  0.82730  1.0000 -0.1814220984
N   N27       1.0  0.39020  0.94810  0.77690  1.0000 -0.0118757948
N   N28       1.0  0.08960  0.90860  0.20430  1.0000 -0.1697178845
N   N29       1.0  0.79740  0.80810  0.14350  1.0000 -0.1814220984
N   N30       1.0  0.43510  0.13530  0.81340  1.0000 -0.1814220984
N   N31       1.0  0.21690  0.17180  0.36640  1.0000 -0.1814220984
N   N32       1.0  0.70840  0.20360  0.99790  1.0000 0.0079556431
N   N33       1.0  0.26420  0.24660  0.17940  1.0000 -0.1814220984
N   N34       1.0  0.62460  0.10600  0.21640  1.0000 -0.1934220184
N   N35       1.0  0.61220  0.07420  0.32730  1.0000 -0.1814220984
N   N36       1.0  0.10980  0.05190  0.27690  1.0000 -0.0118757948
O   O1        1.0  0.64270  0.40170  0.05240  1.0000 -0.638019598
O   O2        1.0  0.69540  0.36480  0.95760  1.0000 -0.6231730495
O   O3        1.0  0.43000  0.41040  0.91520  1.0000 -0.638019598
O   O4        1.0  0.92560  0.38290  0.94140  1.0000 -0.6799486492
O   O5        1.0  0.18190  0.54450  0.96680  1.0000 -0.6606545363
O   O6        1.0  0.70900  0.48180  0.93170  1.0000 -0.6919964914
O   O7        1.0  0.14060  0.54090  0.53700  1.0000 -0.6506721479
O   O8        1.0  0.41800  0.52920  0.95750  1.0000 -0.6506721479
O   O9        1.0  0.91950  0.51530  0.91050  1.0000 -0.6506721479
O   O10       1.0  0.41780  0.34680  0.99850  1.0000 -0.6718239774
O   O11       1.0  0.85490  0.47590  0.52250  1.0000 -0.6506721479
O   O12       1.0  0.63090  0.45230  0.50370  1.0000 -0.6718239774
O   O13       1.0  0.20970  0.43040  0.94070  1.0000 -0.7096133296
O   O14       1.0  0.36960  0.51470  0.54660  1.0000 -0.6919964914
O   O15       1.0  0.86670  0.42190  0.03190  1.0000 -0.6984780346
O   O16       1.0  0.84360  0.43820  0.73050  1.0000 -0.530732653
O   O17       1.0  0.85730  0.59830  0.55240  1.0000 -0.638019598
O   O18       1.0  0.80460  0.63520  0.45760  1.0000 -0.6231730495
O   O19       1.0  0.07000  0.58960  0.41520  1.0000 -0.638019598
O   O20       1.0  0.57440  0.61710  0.44140  1.0000 -0.6799486492
O   O21       1.0  0.31810  0.45550  0.46680  1.0000 -0.6606545363
O   O22       1.0  0.79100  0.51820  0.43170  1.0000 -0.6919964914
O   O23       1.0  0.35940  0.45910  0.03700  1.0000 -0.6506721479
O   O24       1.0  0.08200  0.47080  0.45750  1.0000 -0.6506721479
O   O25       1.0  0.58050  0.48470  0.41050  1.0000 -0.6506721479
O   O26       1.0  0.08220  0.65320  0.49850  1.0000 -0.6718239774
O   O27       1.0  0.64510  0.52410  0.02250  1.0000 -0.6506721479
O   O28       1.0  0.86910  0.54770  0.00370  1.0000 -0.6718239774
O   O29       1.0  0.29030  0.56960  0.44070  1.0000 -0.7096133296
O   O30       1.0  0.13040  0.48530  0.04660  1.0000 -0.6919964914
O   O31       1.0  0.63330  0.57810  0.53190  1.0000 -0.6984780346
O   O32       1.0  0.65640  0.56180  0.23050  1.0000 -0.530732653
O   O33       1.0  0.35730  0.90170  0.44760  1.0000 -0.638019598
O   O34       1.0  0.30460  0.86480  0.54240  1.0000 -0.6231730495
O   O35       1.0  0.57000  0.91040  0.58480  1.0000 -0.638019598
O   O36       1.0  0.07440  0.88290  0.55860  1.0000 -0.6799486492
O   O37       1.0  0.81810  0.04450  0.53320  1.0000 -0.6606545363
O   O38       1.0  0.29100  0.98180  0.56830  1.0000 -0.6919964914
O   O39       1.0  0.85940  0.04090  0.96300  1.0000 -0.6506721479
O   O40       1.0  0.58200  0.02920  0.54250  1.0000 -0.6506721479
O   O41       1.0  0.08050  0.01530  0.58950  1.0000 -0.6506721479
O   O42       1.0  0.58220  0.84680  0.50150  1.0000 -0.6718239774
O   O43       1.0  0.14510  0.97590  0.97750  1.0000 -0.6506721479
O   O44       1.0  0.36910  0.95230  0.99630  1.0000 -0.6718239774
O   O45       1.0  0.79030  0.93040  0.55930  1.0000 -0.7096133296
O   O46       1.0  0.63040  0.01470  0.95340  1.0000 -0.6919964914
O   O47       1.0  0.13330  0.92190  0.46810  1.0000 -0.6984780346
O   O48       1.0  0.15640  0.93820  0.76950  1.0000 -0.530732653
O   O49       1.0  0.14270  0.09830  0.94760  1.0000 -0.638019598
O   O50       1.0  0.19540  0.13520  0.04240  1.0000 -0.6231730495
O   O51       1.0  0.93000  0.08960  0.08480  1.0000 -0.638019598
O   O52       1.0  0.42560  0.11710  0.05860  1.0000 -0.6799486492
O   O53       1.0  0.68190  0.95550  0.03320  1.0000 -0.6606545363
O   O54       1.0  0.20900  0.01820  0.06830  1.0000 -0.6919964914
O   O55       1.0  0.64060  0.95910  0.46300  1.0000 -0.6506721479
O   O56       1.0  0.91800  0.97080  0.04250  1.0000 -0.6506721479
O   O57       1.0  0.41950  0.98470  0.08950  1.0000 -0.6506721479
O   O58       1.0  0.91780  0.15320  0.00150  1.0000 -0.6718239774
O   O59       1.0  0.35490  0.02410  0.47750  1.0000 -0.6506721479
O   O60       1.0  0.13090  0.04770  0.49630  1.0000 -0.6718239774
O   O61       1.0  0.70970  0.06960  0.05930  1.0000 -0.7096133296
O   O62       1.0  0.86960  0.98530  0.45340  1.0000 -0.6919964914
O   O63       1.0  0.36670  0.07810  0.96810  1.0000 -0.6984780346
O   O64       1.0  0.34360  0.06180  0.26950  1.0000 -0.530732653
