# DDEC6 charges by PACMAN v1.1 (https://github.com/mtap-research/PACMAN-charge/)
data_2017[Eu][flu]3[FSR]2
_chemical_formula_sum              "Eu4 P8 H68 C20 S4 N4 O48"
_cell_length_a       8.3245
_cell_length_b       10.0478
_cell_length_c       24.972
_cell_angle_alpha    90
_cell_angle_beta     95.151
_cell_angle_gamma    90

_symmetry_space_group_name_H-M    "P 1"
_symmetry_Int_Tables_number       1

loop_
  _symmetry_equiv_pos_as_xyz
  'x, y, z'

loop_
  _atom_site_type_symbol
  _atom_site_label
  _atom_site_symmetry_multiplicity
  _atom_site_fract_x
  _atom_site_fract_y
  _atom_site_fract_z
  _atom_site_occupancy
  _atom_site_charge
Eu  Eu1       1.0  0.22673  0.26235  0.76125  1.0000 2.2433404783
Eu  Eu2       1.0  0.77327  0.76235  0.73875  1.0000 2.2433404783
Eu  Eu3       1.0  0.77327  0.73765  0.23875  1.0000 2.2454693177
Eu  Eu4       1.0  0.22673  0.23765  0.26125  1.0000 2.2454693177
P   P1        1.0  0.63873  0.11367  0.74189  1.0000 1.3862834432
P   P2        1.0  0.89923  0.44562  0.68414  1.0000 1.3686424652
P   P3        1.0  0.36127  0.61367  0.75811  1.0000 1.3862834432
P   P4        1.0  0.10077  0.94562  0.81586  1.0000 1.3686424652
P   P5        1.0  0.36127  0.88633  0.25811  1.0000 1.3862834432
P   P6        1.0  0.10077  0.55438  0.31586  1.0000 1.3686424652
P   P7        1.0  0.63873  0.38633  0.24189  1.0000 1.3862834432
P   P8        1.0  0.89923  0.05438  0.18414  1.0000 1.3686424652
H   H1        1.0  0.46910  0.26300  0.85820  1.0000 0.441917383
H   H2        1.0  0.30500  0.25000  0.88250  1.0000 0.4149939575
H   H3        1.0  0.10000  0.37700  0.86300  1.0000 0.4022003905
H   H4        1.0  0.99000  0.44600  0.81800  1.0000 0.441917383
H   H5        1.0  0.87400  0.14100  0.78330  1.0000 0.4022003905
H   H6        1.0  0.98100  0.34700  0.61880  1.0000 0.3821081826
H   H7        1.0  0.50300  0.29000  0.66420  1.0000 0.2786901453
H   H8        1.0  0.63890  0.09250  0.64860  1.0000 0.1617115894
H   H9        1.0  0.80000  0.16540  0.67270  1.0000 0.1617115894
H   H10       1.0  0.62450  0.49290  0.67260  1.0000 0.1490200171
H   H11       1.0  0.66330  0.40240  0.72460  1.0000 0.1760909268
H   H12       1.0  0.71860  0.29060  0.58490  1.0000 0.1248263576
H   H13       1.0  0.53960  0.23150  0.57910  1.0000 0.1313653373
H   H14       1.0  0.43940  0.45590  0.58740  1.0000 0.1313653373
H   H15       1.0  0.62070  0.50810  0.58510  1.0000 0.1031272066
H   H16       1.0  0.43720  0.36730  0.50050  1.0000 0.1031272066
H   H17       1.0  0.62430  0.40180  0.49830  1.0000 0.1062885904
H   H18       1.0  0.53090  0.76300  0.64180  1.0000 0.441917383
H   H19       1.0  0.69500  0.75000  0.61750  1.0000 0.4149939575
H   H20       1.0  0.90000  0.87700  0.63700  1.0000 0.4022003905
H   H21       1.0  0.01000  0.94600  0.68200  1.0000 0.441917383
H   H22       1.0  0.12600  0.64100  0.71670  1.0000 0.4022003905
H   H23       1.0  0.01900  0.84700  0.88120  1.0000 0.3821081826
H   H24       1.0  0.49700  0.79000  0.83580  1.0000 0.2786901453
H   H25       1.0  0.36110  0.59250  0.85140  1.0000 0.1617115894
H   H26       1.0  0.20000  0.66540  0.82730  1.0000 0.1617115894
H   H27       1.0  0.37550  0.99290  0.82740  1.0000 0.1490200171
H   H28       1.0  0.33670  0.90240  0.77540  1.0000 0.1760909268
H   H29       1.0  0.28140  0.79060  0.91510  1.0000 0.1248263576
H   H30       1.0  0.46040  0.73150  0.92090  1.0000 0.1313653373
H   H31       1.0  0.56060  0.95590  0.91260  1.0000 0.1313653373
H   H32       1.0  0.37930  0.00810  0.91490  1.0000 0.1031272066
H   H33       1.0  0.56280  0.86730  0.99950  1.0000 0.1031272066
H   H34       1.0  0.37570  0.90180  0.00170  1.0000 0.1062885904
H   H35       1.0  0.53090  0.73700  0.14180  1.0000 0.441917383
H   H36       1.0  0.69500  0.75000  0.11750  1.0000 0.4149939575
H   H37       1.0  0.90000  0.62300  0.13700  1.0000 0.4022003905
H   H38       1.0  0.01000  0.55400  0.18200  1.0000 0.441917383
H   H39       1.0  0.12600  0.85900  0.21670  1.0000 0.4022003905
H   H40       1.0  0.01900  0.65300  0.38120  1.0000 0.3821081826
H   H41       1.0  0.49700  0.71000  0.33580  1.0000 0.2786901453
H   H42       1.0  0.36110  0.90750  0.35140  1.0000 0.1617115894
H   H43       1.0  0.20000  0.83460  0.32730  1.0000 0.1617115894
H   H44       1.0  0.37550  0.50710  0.32740  1.0000 0.1490200171
H   H45       1.0  0.33670  0.59760  0.27540  1.0000 0.1760909268
H   H46       1.0  0.28140  0.70940  0.41510  1.0000 0.1248263576
H   H47       1.0  0.46040  0.76850  0.42090  1.0000 0.1313653373
H   H48       1.0  0.56060  0.54410  0.41260  1.0000 0.1313653373
H   H49       1.0  0.37930  0.49190  0.41490  1.0000 0.1031272066
H   H50       1.0  0.56280  0.63270  0.49950  1.0000 0.1031272066
H   H51       1.0  0.37570  0.59820  0.50170  1.0000 0.1062885904
H   H52       1.0  0.46910  0.23700  0.35820  1.0000 0.441917383
H   H53       1.0  0.30500  0.25000  0.38250  1.0000 0.4149939575
H   H54       1.0  0.10000  0.12300  0.36300  1.0000 0.4022003905
H   H55       1.0  0.99000  0.05400  0.31800  1.0000 0.441917383
H   H56       1.0  0.87400  0.35900  0.28330  1.0000 0.4022003905
H   H57       1.0  0.98100  0.15300  0.11880  1.0000 0.3821081826
H   H58       1.0  0.50300  0.21000  0.16420  1.0000 0.2786901453
H   H59       1.0  0.63890  0.40750  0.14860  1.0000 0.1617115894
H   H60       1.0  0.80000  0.33460  0.17270  1.0000 0.1617115894
H   H61       1.0  0.62450  0.00710  0.17260  1.0000 0.1490200171
H   H62       1.0  0.66330  0.09760  0.22460  1.0000 0.1760909268
H   H63       1.0  0.71860  0.20940  0.08490  1.0000 0.1248263576
H   H64       1.0  0.53960  0.26850  0.07910  1.0000 0.1313653373
H   H65       1.0  0.43940  0.04410  0.08740  1.0000 0.1313653373
H   H66       1.0  0.62070  0.99190  0.08510  1.0000 0.1031272066
H   H67       1.0  0.43720  0.13270  0.00050  1.0000 0.1031272066
H   H68       1.0  0.62430  0.09820  0.99830  1.0000 0.1062885904
C   C1        1.0  0.68160  0.16200  0.67414  1.0000 -0.4341150961
C   C2        1.0  0.68400  0.41280  0.68636  1.0000 -0.4542978546
C   C3        1.0  0.60800  0.30390  0.59551  1.0000 -0.0875072023
C   C4        1.0  0.54420  0.43620  0.57324  1.0000 -0.1835536874
C   C5        1.0  0.52260  0.43240  0.51209  1.0000 -0.1622895664
C   C6        1.0  0.31840  0.66200  0.82586  1.0000 -0.4341150961
C   C7        1.0  0.31600  0.91280  0.81364  1.0000 -0.4550039313
C   C8        1.0  0.39200  0.80390  0.90449  1.0000 -0.0875072023
C   C9        1.0  0.45580  0.93620  0.92676  1.0000 -0.1835536874
C   C10       1.0  0.47740  0.93240  0.98791  1.0000 -0.1622895664
C   C11       1.0  0.31840  0.83800  0.32586  1.0000 -0.4341150961
C   C12       1.0  0.31600  0.58720  0.31364  1.0000 -0.4542978546
C   C13       1.0  0.39200  0.69610  0.40449  1.0000 -0.0875072023
C   C14       1.0  0.45580  0.56380  0.42676  1.0000 -0.1835536874
C   C15       1.0  0.47740  0.56760  0.48791  1.0000 -0.1622895664
C   C16       1.0  0.68160  0.33800  0.17414  1.0000 -0.4341150961
C   C17       1.0  0.68400  0.08720  0.18636  1.0000 -0.4550039313
C   C18       1.0  0.60800  0.19610  0.09551  1.0000 -0.0875072023
C   C19       1.0  0.54420  0.06380  0.07324  1.0000 -0.1835536874
C   C20       1.0  0.52260  0.06760  0.01209  1.0000 -0.1622895664
S   S1        1.0  0.20368  0.16181  0.64208  1.0000 1.4046257594
S   S2        1.0  0.79632  0.66181  0.85792  1.0000 1.4046257594
S   S3        1.0  0.79632  0.83819  0.35792  1.0000 1.4046257594
S   S4        1.0  0.20368  0.33819  0.14208  1.0000 1.4046257594
N   N1        1.0  0.61160  0.29380  0.65597  1.0000 0.0843098843
N   N2        1.0  0.38840  0.79380  0.84403  1.0000 0.0843098843
N   N3        1.0  0.38840  0.70620  0.34403  1.0000 0.0843098843
N   N4        1.0  0.61160  0.20620  0.15597  1.0000 0.0843098843
O   O1        1.0  0.35960  0.23830  0.85130  1.0000 -0.832337468
O   O2        1.0  0.07800  0.38770  0.82538  1.0000 -0.8484926513
O   O3        1.0  0.28340  0.28610  0.66322  1.0000 -0.7550644419
O   O4        1.0  0.15590  0.08950  0.68993  1.0000 -0.7518842241
O   O5        1.0  0.06000  0.19710  0.60636  1.0000 -0.6375053591
O   O6        1.0  0.31600  0.08210  0.61384  1.0000 -0.6375053591
O   O7        1.0  0.48170  0.17350  0.75282  1.0000 -0.8806710533
O   O8        1.0  0.65180  0.96610  0.74369  1.0000 -0.8806710533
O   O9        1.0  0.77080  0.18010  0.78266  1.0000 -0.6539008311
O   O10       1.0  0.99120  0.34420  0.71784  1.0000 -0.8718073806
O   O11       1.0  0.92230  0.58830  0.70152  1.0000 -0.8718073806
O   O12       1.0  0.93890  0.43330  0.62438  1.0000 -0.6579598478
O   O13       1.0  0.64040  0.73830  0.64870  1.0000 -0.832337468
O   O14       1.0  0.92200  0.88770  0.67462  1.0000 -0.8484926513
O   O15       1.0  0.71660  0.78610  0.83678  1.0000 -0.7550644419
O   O16       1.0  0.84410  0.58950  0.81007  1.0000 -0.7518842241
O   O17       1.0  0.94000  0.69710  0.89364  1.0000 -0.6375053591
O   O18       1.0  0.68400  0.58210  0.88616  1.0000 -0.6375053591
O   O19       1.0  0.51830  0.67350  0.74718  1.0000 -0.8806710533
O   O20       1.0  0.34820  0.46610  0.75631  1.0000 -0.8806710533
O   O21       1.0  0.22920  0.68010  0.71734  1.0000 -0.6539008311
O   O22       1.0  0.00880  0.84420  0.78216  1.0000 -0.8718073806
O   O23       1.0  0.07770  0.08830  0.79848  1.0000 -0.8718073806
O   O24       1.0  0.06110  0.93330  0.87562  1.0000 -0.6579598478
O   O25       1.0  0.64040  0.76170  0.14870  1.0000 -0.832337468
O   O26       1.0  0.92200  0.61230  0.17462  1.0000 -0.8484926513
O   O27       1.0  0.71660  0.71390  0.33678  1.0000 -0.7518842241
O   O28       1.0  0.84410  0.91050  0.31007  1.0000 -0.7518842241
O   O29       1.0  0.94000  0.80290  0.39364  1.0000 -0.6375053591
O   O30       1.0  0.68400  0.91790  0.38616  1.0000 -0.6375053591
O   O31       1.0  0.51830  0.82650  0.24718  1.0000 -0.8806710533
O   O32       1.0  0.34820  0.03390  0.25631  1.0000 -0.8806710533
O   O33       1.0  0.22920  0.81990  0.21734  1.0000 -0.6539008311
O   O34       1.0  0.00880  0.65580  0.28216  1.0000 -0.8718073806
O   O35       1.0  0.07770  0.41170  0.29848  1.0000 -0.8718073806
O   O36       1.0  0.06110  0.56670  0.37562  1.0000 -0.6579598478
O   O37       1.0  0.35960  0.26170  0.35130  1.0000 -0.832337468
O   O38       1.0  0.07800  0.11230  0.32538  1.0000 -0.8484926513
O   O39       1.0  0.28340  0.21390  0.16322  1.0000 -0.7550644419
O   O40       1.0  0.15590  0.41050  0.18993  1.0000 -0.7518842241
O   O41       1.0  0.06000  0.30290  0.10636  1.0000 -0.6375053591
O   O42       1.0  0.31600  0.41790  0.11384  1.0000 -0.6375053591
O   O43       1.0  0.48170  0.32650  0.25282  1.0000 -0.8806710533
O   O44       1.0  0.65180  0.53390  0.24369  1.0000 -0.8806710533
O   O45       1.0  0.77080  0.31990  0.28266  1.0000 -0.6539008311
O   O46       1.0  0.99120  0.15580  0.21784  1.0000 -0.8718073806
O   O47       1.0  0.92230  0.91170  0.20152  1.0000 -0.8718073806
O   O48       1.0  0.93890  0.06670  0.12438  1.0000 -0.6579598478
