# DDEC6 charges by PACMAN v1.1 (https://github.com/mtap-research/PACMAN-charge/)
data_2017[Cd][pcu]3[FSR]3
_chemical_formula_sum              "Cd8 H120 C200 N56 O32"
_cell_length_a       15.39
_cell_length_b       20.631
_cell_length_c       18.013
_cell_angle_alpha    90
_cell_angle_beta     99.923
_cell_angle_gamma    90

_symmetry_space_group_name_H-M    "P 1"
_symmetry_Int_Tables_number       1

loop_
  _symmetry_equiv_pos_as_xyz
  'x, y, z'

loop_
  _atom_site_type_symbol
  _atom_site_label
  _atom_site_symmetry_multiplicity
  _atom_site_fract_x
  _atom_site_fract_y
  _atom_site_fract_z
  _atom_site_occupancy
  _atom_site_charge
Cd  Cd1       1.0  0.66013  0.44038  0.13270  1.0000 0.8708322681
Cd  Cd2       1.0  0.35446  0.93970  0.10923  1.0000 0.8708322681
Cd  Cd3       1.0  0.16013  0.05962  0.13270  1.0000 0.8708322681
Cd  Cd4       1.0  0.85446  0.56030  0.10923  1.0000 0.8708322681
Cd  Cd5       1.0  0.83987  0.94038  0.86730  1.0000 0.8708322681
Cd  Cd6       1.0  0.14554  0.43970  0.89077  1.0000 0.8708322681
Cd  Cd7       1.0  0.33987  0.55962  0.86730  1.0000 0.8708322681
Cd  Cd8       1.0  0.64554  0.06030  0.89077  1.0000 0.8708322681
H   H1        1.0  0.65130  0.45870  0.63090  1.0000 0.1274904816
H   H2        1.0  0.55350  0.61240  0.51060  1.0000 0.1121282651
H   H3        1.0  0.53930  0.60590  0.72370  1.0000 0.1121282651
H   H4        1.0  0.56130  0.55490  0.82830  1.0000 0.3071045317
H   H5        1.0  0.58800  0.51440  0.98030  1.0000 0.1274904816
H   H6        1.0  0.72540  0.35290  0.00810  1.0000 0.1121282651
H   H7        1.0  0.73670  0.34670  0.88270  1.0000 0.1510059212
H   H8        1.0  0.68570  0.41920  0.52420  1.0000 0.3038584577
H   H9        1.0  0.62110  0.53090  0.27040  1.0000 0.1274904816
H   H10       1.0  0.74010  0.36340  0.27550  1.0000 0.1194441834
H   H11       1.0  0.74220  0.34970  0.40290  1.0000 0.1510059212
H   H12       1.0  0.34510  0.96980  0.60840  1.0000 0.1194441834
H   H13       1.0  0.43630  0.12650  0.72940  1.0000 0.1121282651
H   H14       1.0  0.45470  0.11960  0.51710  1.0000 0.1121282651
H   H15       1.0  0.32730  0.92270  0.49620  1.0000 0.3071045317
H   H16       1.0  0.41450  0.02270  0.26240  1.0000 0.1274904816
H   H17       1.0  0.30110  0.85200  0.23690  1.0000 0.1194441834
H   H18       1.0  0.28810  0.84570  0.36250  1.0000 0.1510059212
H   H19       1.0  0.41480  0.07480  0.83040  1.0000 0.3038584577
H   H20       1.0  0.39690  0.02910  0.97460  1.0000 0.1274904816
H   H21       1.0  0.25950  0.86780  0.96100  1.0000 0.1194441834
H   H22       1.0  0.24650  0.86300  0.83210  1.0000 0.1447835601
H   H23       1.0  0.39590  0.29980  0.16190  1.0000 0.1121282651
H   H24       1.0  0.32730  0.19990  0.16060  1.0000 0.1274904816
H   H25       1.0  0.53020  0.11800  0.08220  1.0000 0.1121282651
H   H26       1.0  0.59870  0.21700  0.08470  1.0000 0.1194441834
H   H27       1.0  0.60130  0.79810  0.06090  1.0000 0.1194441834
H   H28       1.0  0.67410  0.70030  0.06180  1.0000 0.1274904816
H   H29       1.0  0.49750  0.61880  0.17320  1.0000 0.1121282651
H   H30       1.0  0.42340  0.71590  0.17180  1.0000 0.1194441834
H   H31       1.0  0.15130  0.04130  0.63090  1.0000 0.1274904816
H   H32       1.0  0.05350  0.88760  0.51060  1.0000 0.1121282651
H   H33       1.0  0.03930  0.89410  0.72370  1.0000 0.1121282651
H   H34       1.0  0.06130  0.94510  0.82830  1.0000 0.3071045317
H   H35       1.0  0.08800  0.98560  0.98030  1.0000 0.1274904816
H   H36       1.0  0.22540  0.14710  0.00810  1.0000 0.1121282651
H   H37       1.0  0.23670  0.15330  0.88270  1.0000 0.1510059212
H   H38       1.0  0.18570  0.08080  0.52420  1.0000 0.3038584577
H   H39       1.0  0.12110  0.96910  0.27040  1.0000 0.1274904816
H   H40       1.0  0.24010  0.13660  0.27550  1.0000 0.1194441834
H   H41       1.0  0.24220  0.15030  0.40290  1.0000 0.1510059212
H   H42       1.0  0.84510  0.53020  0.60840  1.0000 0.1194441834
H   H43       1.0  0.93630  0.37350  0.72940  1.0000 0.1121282651
H   H44       1.0  0.95470  0.38040  0.51710  1.0000 0.1121282651
H   H45       1.0  0.82730  0.57730  0.49620  1.0000 0.3071045317
H   H46       1.0  0.91450  0.47730  0.26240  1.0000 0.1274904816
H   H47       1.0  0.80110  0.64800  0.23690  1.0000 0.1194441834
H   H48       1.0  0.78810  0.65430  0.36250  1.0000 0.1510059212
H   H49       1.0  0.91480  0.42520  0.83040  1.0000 0.3038584577
H   H50       1.0  0.89690  0.47090  0.97460  1.0000 0.1274904816
H   H51       1.0  0.75950  0.63220  0.96100  1.0000 0.1194441834
H   H52       1.0  0.74650  0.63700  0.83210  1.0000 0.1447835601
H   H53       1.0  0.89590  0.20020  0.16190  1.0000 0.1121282651
H   H54       1.0  0.82730  0.30010  0.16060  1.0000 0.1274904816
H   H55       1.0  0.03020  0.38200  0.08220  1.0000 0.1121282651
H   H56       1.0  0.09870  0.28300  0.08470  1.0000 0.1194441834
H   H57       1.0  0.10130  0.70190  0.06090  1.0000 0.1194441834
H   H58       1.0  0.17410  0.79970  0.06180  1.0000 0.1274904816
H   H59       1.0  0.99750  0.88120  0.17320  1.0000 0.1121282651
H   H60       1.0  0.92340  0.78410  0.17180  1.0000 0.1194441834
H   H61       1.0  0.84870  0.95870  0.36910  1.0000 0.1274904816
H   H62       1.0  0.94650  0.11240  0.48940  1.0000 0.1121282651
H   H63       1.0  0.96070  0.10590  0.27630  1.0000 0.1121282651
H   H64       1.0  0.93870  0.05490  0.17170  1.0000 0.3071045317
H   H65       1.0  0.91200  0.01440  0.01970  1.0000 0.1274904816
H   H66       1.0  0.77460  0.85290  0.99190  1.0000 0.1121282651
H   H67       1.0  0.76330  0.84670  0.11730  1.0000 0.1510059212
H   H68       1.0  0.81430  0.91920  0.47580  1.0000 0.3038584577
H   H69       1.0  0.87890  0.03090  0.72960  1.0000 0.1274904816
H   H70       1.0  0.75990  0.86340  0.72450  1.0000 0.1194441834
H   H71       1.0  0.75780  0.84970  0.59710  1.0000 0.1510059212
H   H72       1.0  0.15490  0.46980  0.39160  1.0000 0.1194441834
H   H73       1.0  0.06370  0.62650  0.27060  1.0000 0.1121282651
H   H74       1.0  0.04530  0.61960  0.48290  1.0000 0.1121282651
H   H75       1.0  0.17270  0.42270  0.50380  1.0000 0.3071045317
H   H76       1.0  0.08550  0.52270  0.73760  1.0000 0.1274904816
H   H77       1.0  0.19890  0.35200  0.76310  1.0000 0.1194441834
H   H78       1.0  0.21190  0.34570  0.63750  1.0000 0.1510059212
H   H79       1.0  0.08520  0.57480  0.16960  1.0000 0.3038584577
H   H80       1.0  0.10310  0.52910  0.02540  1.0000 0.1274904816
H   H81       1.0  0.24050  0.36780  0.03900  1.0000 0.1194441834
H   H82       1.0  0.25350  0.36300  0.16790  1.0000 0.1447835601
H   H83       1.0  0.10410  0.79980  0.83810  1.0000 0.1121282651
H   H84       1.0  0.17270  0.69990  0.83940  1.0000 0.1274904816
H   H85       1.0  0.96980  0.61800  0.91780  1.0000 0.1121282651
H   H86       1.0  0.90130  0.71700  0.91530  1.0000 0.1194441834
H   H87       1.0  0.89870  0.29810  0.93910  1.0000 0.1194441834
H   H88       1.0  0.82590  0.20030  0.93820  1.0000 0.1274904816
H   H89       1.0  0.00250  0.11880  0.82680  1.0000 0.1121282651
H   H90       1.0  0.07660  0.21590  0.82820  1.0000 0.1194441834
H   H91       1.0  0.34870  0.54130  0.36910  1.0000 0.1274904816
H   H92       1.0  0.44650  0.38760  0.48940  1.0000 0.1121282651
H   H93       1.0  0.46070  0.39410  0.27630  1.0000 0.1121282651
H   H94       1.0  0.43870  0.44510  0.17170  1.0000 0.3071045317
H   H95       1.0  0.41200  0.48560  0.01970  1.0000 0.1274904816
H   H96       1.0  0.27460  0.64710  0.99190  1.0000 0.1121282651
H   H97       1.0  0.26330  0.65330  0.11730  1.0000 0.1510059212
H   H98       1.0  0.31430  0.58080  0.47580  1.0000 0.3038584577
H   H99       1.0  0.37890  0.46910  0.72960  1.0000 0.1274904816
H   H100      1.0  0.25990  0.63660  0.72450  1.0000 0.1194441834
H   H101      1.0  0.25780  0.65030  0.59710  1.0000 0.1510059212
H   H102      1.0  0.65490  0.03020  0.39160  1.0000 0.1194441834
H   H103      1.0  0.56370  0.87350  0.27060  1.0000 0.1121282651
H   H104      1.0  0.54530  0.88040  0.48290  1.0000 0.1121282651
H   H105      1.0  0.67270  0.07730  0.50380  1.0000 0.3071045317
H   H106      1.0  0.58550  0.97730  0.73760  1.0000 0.1274904816
H   H107      1.0  0.69890  0.14800  0.76310  1.0000 0.1194441834
H   H108      1.0  0.71190  0.15430  0.63750  1.0000 0.1510059212
H   H109      1.0  0.58520  0.92520  0.16960  1.0000 0.3038584577
H   H110      1.0  0.60310  0.97090  0.02540  1.0000 0.1274904816
H   H111      1.0  0.74050  0.13220  0.03900  1.0000 0.1194441834
H   H112      1.0  0.75350  0.13700  0.16790  1.0000 0.1447835601
H   H113      1.0  0.60410  0.70020  0.83810  1.0000 0.1121282651
H   H114      1.0  0.67270  0.80010  0.83940  1.0000 0.1274904816
H   H115      1.0  0.46980  0.88200  0.91780  1.0000 0.1121282651
H   H116      1.0  0.40130  0.78300  0.91530  1.0000 0.1194441834
H   H117      1.0  0.39870  0.20190  0.93910  1.0000 0.1194441834
H   H118      1.0  0.32590  0.29970  0.93820  1.0000 0.1274904816
H   H119      1.0  0.50250  0.38120  0.82680  1.0000 0.1121282651
H   H120      1.0  0.57660  0.28410  0.82820  1.0000 0.1194441834
C   C1        1.0  0.59710  0.52670  0.69010  1.0000 -0.0108641121
C   C2        1.0  0.62290  0.49860  0.62710  1.0000 -0.1254487336
C   C3        1.0  0.60570  0.53090  0.55870  1.0000 -0.0280997122
C   C4        1.0  0.56440  0.59050  0.55630  1.0000 0.0411844742
C   C5        1.0  0.55600  0.58670  0.68170  1.0000 0.0173929636
C   C6        1.0  0.61590  0.49430  0.76380  1.0000 0.3038584577
C   C7        1.0  0.66740  0.43000  0.85330  1.0000 0.1578340902
C   C8        1.0  0.62270  0.47950  0.88450  1.0000 0.0897712863
C   C9        1.0  0.61760  0.48098  0.96060  1.0000 0.011018783
C   C10       1.0  0.69920  0.38510  0.97570  1.0000 0.0411844742
C   C11       1.0  0.70680  0.38080  0.90080  1.0000 -0.2197811877
C   C12       1.0  0.62980  0.50400  0.48940  1.0000 0.2882945947
C   C13       1.0  0.67990  0.43620  0.41460  1.0000 0.1654729843
C   C14       1.0  0.64510  0.49120  0.37340  1.0000 0.0765337832
C   C15       1.0  0.64500  0.49480  0.29730  1.0000 0.0042836658
C   C16       1.0  0.71500  0.39530  0.30150  1.0000 0.0583152249
C   C17       1.0  0.71740  0.38630  0.37770  1.0000 -0.2197811877
C   C18       1.0  0.39750  0.03930  0.54980  1.0000 -0.0280997122
C   C19       1.0  0.37190  0.01030  0.61250  1.0000 -0.149000369
C   C20       1.0  0.38710  0.04290  0.68130  1.0000 -0.0108641121
C   C21       1.0  0.42700  0.10420  0.68380  1.0000 0.011018783
C   C22       1.0  0.43740  0.10030  0.55890  1.0000 0.0296333308
C   C23       1.0  0.38440  0.00690  0.47600  1.0000 0.2882945947
C   C24       1.0  0.34430  0.93410  0.38910  1.0000 0.1578340902
C   C25       1.0  0.38220  0.98690  0.35830  1.0000 0.0897712863
C   C26       1.0  0.38860  0.98750  0.28250  1.0000 0.0296333308
C   C27       1.0  0.32150  0.88630  0.26850  1.0000 0.0495730275
C   C28       1.0  0.31320  0.88180  0.34350  1.0000 -0.2197811877
C   C29       1.0  0.36420  0.01331  0.74990  1.0000 0.3071045317
C   C30       1.0  0.31500  0.94704  0.82350  1.0000 0.1654729843
C   C31       1.0  0.35800  0.99708  0.86830  1.0000 0.0897712863
C   C32       1.0  0.36630  0.99624  0.94580  1.0000 -0.0011469684
C   C33       1.0  0.28550  0.90021  0.93640  1.0000 0.0296333308
C   C34       1.0  0.27660  0.89690  0.85930  1.0000 -0.2129412666
C   C35       1.0  0.50630  0.26849  0.12650  1.0000 -0.0108641121
C   C36       1.0  0.42370  0.26310  0.14720  1.0000 -0.1169420444
C   C37       1.0  0.38220  0.20320  0.14590  1.0000 -0.1021158688
C   C38       1.0  0.42240  0.14815  0.12290  1.0000 -0.0280997122
C   C39       1.0  0.50360  0.15429  0.09920  1.0000 -0.1021158688
C   C40       1.0  0.54470  0.21352  0.10090  1.0000 -0.1021158688
C   C41       1.0  0.55510  0.33115  0.13220  1.0000 0.5518252886
C   C42       1.0  0.38140  0.08280  0.12670  1.0000 0.5616730489
C   C43       1.0  0.50250  0.76649  0.11360  1.0000 -0.0218873699
C   C44       1.0  0.57960  0.76180  0.08230  1.0000 -0.1113812905
C   C45       1.0  0.62340  0.70350  0.08310  1.0000 -0.1021158688
C   C46       1.0  0.59170  0.64931  0.11600  1.0000 -0.0218873699
C   C47       1.0  0.51740  0.65470  0.14980  1.0000 -0.1021158688
C   C48       1.0  0.47300  0.71260  0.14890  1.0000 -0.1113812905
C   C49       1.0  0.45140  0.82810  0.11060  1.0000 0.5426192917
C   C50       1.0  0.63440  0.58377  0.11300  1.0000 0.566202823
C   C51       1.0  0.09710  0.97330  0.69010  1.0000 -0.0108641121
C   C52       1.0  0.12290  0.00140  0.62710  1.0000 -0.1254487336
C   C53       1.0  0.10570  0.96910  0.55870  1.0000 -0.0280997122
C   C54       1.0  0.06440  0.90950  0.55630  1.0000 0.0411844742
C   C55       1.0  0.05600  0.91330  0.68170  1.0000 0.0173929636
C   C56       1.0  0.11590  0.00570  0.76380  1.0000 0.3038584577
C   C57       1.0  0.16740  0.07000  0.85330  1.0000 0.1578340902
C   C58       1.0  0.12270  0.02050  0.88450  1.0000 0.0897712863
C   C59       1.0  0.11760  0.01902  0.96060  1.0000 0.011018783
C   C60       1.0  0.19920  0.11490  0.97570  1.0000 0.0411844742
C   C61       1.0  0.20680  0.11920  0.90080  1.0000 -0.2197811877
C   C62       1.0  0.12980  0.99600  0.48940  1.0000 0.2882945947
C   C63       1.0  0.17990  0.06380  0.41460  1.0000 0.1654729843
C   C64       1.0  0.14510  0.00880  0.37340  1.0000 0.0765337832
C   C65       1.0  0.14500  0.00520  0.29730  1.0000 0.0042836658
C   C66       1.0  0.21500  0.10470  0.30150  1.0000 0.0583152249
C   C67       1.0  0.21740  0.11370  0.37770  1.0000 -0.2197811877
C   C68       1.0  0.89750  0.46070  0.54980  1.0000 -0.0280997122
C   C69       1.0  0.87190  0.48970  0.61250  1.0000 -0.149000369
C   C70       1.0  0.88710  0.45710  0.68130  1.0000 -0.0108641121
C   C71       1.0  0.92700  0.39580  0.68380  1.0000 0.011018783
C   C72       1.0  0.93740  0.39970  0.55890  1.0000 0.0296333308
C   C73       1.0  0.88440  0.49310  0.47600  1.0000 0.2882945947
C   C74       1.0  0.84430  0.56590  0.38910  1.0000 0.1578340902
C   C75       1.0  0.88220  0.51310  0.35830  1.0000 0.0897712863
C   C76       1.0  0.88860  0.51250  0.28250  1.0000 0.0296333308
C   C77       1.0  0.82150  0.61370  0.26850  1.0000 0.0495730275
C   C78       1.0  0.81320  0.61820  0.34350  1.0000 -0.2197811877
C   C79       1.0  0.86420  0.48669  0.74990  1.0000 0.3071045317
C   C80       1.0  0.81500  0.55296  0.82350  1.0000 0.1654729843
C   C81       1.0  0.85800  0.50292  0.86830  1.0000 0.0897712863
C   C82       1.0  0.86630  0.50376  0.94580  1.0000 -0.0011469684
C   C83       1.0  0.78550  0.59979  0.93640  1.0000 0.0296333308
C   C84       1.0  0.77660  0.60310  0.85930  1.0000 -0.2129412666
C   C85       1.0  0.00630  0.23151  0.12650  1.0000 -0.0108641121
C   C86       1.0  0.92370  0.23690  0.14720  1.0000 -0.1169420444
C   C87       1.0  0.88220  0.29680  0.14590  1.0000 -0.1021158688
C   C88       1.0  0.92240  0.35185  0.12290  1.0000 -0.0280997122
C   C89       1.0  0.00360  0.34571  0.09920  1.0000 -0.1021158688
C   C90       1.0  0.04470  0.28648  0.10090  1.0000 -0.1021158688
C   C91       1.0  0.05510  0.16885  0.13220  1.0000 0.5518252886
C   C92       1.0  0.88140  0.41720  0.12670  1.0000 0.5616730489
C   C93       1.0  0.00250  0.73351  0.11360  1.0000 -0.0218873699
C   C94       1.0  0.07960  0.73820  0.08230  1.0000 -0.1113812905
C   C95       1.0  0.12340  0.79650  0.08310  1.0000 -0.1021158688
C   C96       1.0  0.09170  0.85069  0.11600  1.0000 -0.0218873699
C   C97       1.0  0.01740  0.84530  0.14980  1.0000 -0.1021158688
C   C98       1.0  0.97300  0.78740  0.14890  1.0000 -0.1113812905
C   C99       1.0  0.95140  0.67190  0.11060  1.0000 0.5426192917
C   C100      1.0  0.13440  0.91623  0.11300  1.0000 0.566202823
C   C101      1.0  0.90290  0.02670  0.30990  1.0000 -0.0108641121
C   C102      1.0  0.87710  0.99860  0.37290  1.0000 -0.1254487336
C   C103      1.0  0.89430  0.03090  0.44130  1.0000 -0.0280997122
C   C104      1.0  0.93560  0.09050  0.44370  1.0000 0.0411844742
C   C105      1.0  0.94400  0.08670  0.31830  1.0000 0.0173929636
C   C106      1.0  0.88410  0.99430  0.23620  1.0000 0.3038584577
C   C107      1.0  0.83260  0.93000  0.14670  1.0000 0.1578340902
C   C108      1.0  0.87730  0.97950  0.11550  1.0000 0.0897712863
C   C109      1.0  0.88240  0.98098  0.03940  1.0000 0.011018783
C   C110      1.0  0.80080  0.88510  0.02430  1.0000 0.0411844742
C   C111      1.0  0.79320  0.88080  0.09920  1.0000 -0.2197811877
C   C112      1.0  0.87020  0.00400  0.51060  1.0000 0.2882945947
C   C113      1.0  0.82010  0.93620  0.58540  1.0000 0.1654729843
C   C114      1.0  0.85490  0.99120  0.62660  1.0000 0.0765337832
C   C115      1.0  0.85500  0.99480  0.70270  1.0000 0.0042836658
C   C116      1.0  0.78500  0.89530  0.69850  1.0000 0.0583152249
C   C117      1.0  0.78260  0.88630  0.62230  1.0000 -0.2197811877
C   C118      1.0  0.10250  0.53930  0.45020  1.0000 -0.0280997122
C   C119      1.0  0.12810  0.51030  0.38750  1.0000 -0.149000369
C   C120      1.0  0.11290  0.54290  0.31870  1.0000 -0.0108641121
C   C121      1.0  0.07300  0.60420  0.31620  1.0000 0.011018783
C   C122      1.0  0.06260  0.60030  0.44110  1.0000 0.0296333308
C   C123      1.0  0.11560  0.50690  0.52400  1.0000 0.2882945947
C   C124      1.0  0.15570  0.43410  0.61090  1.0000 0.1578340902
C   C125      1.0  0.11780  0.48690  0.64170  1.0000 0.0897712863
C   C126      1.0  0.11140  0.48750  0.71750  1.0000 0.0296333308
C   C127      1.0  0.17850  0.38630  0.73150  1.0000 0.0495730275
C   C128      1.0  0.18680  0.38180  0.65650  1.0000 -0.2197811877
C   C129      1.0  0.13580  0.51331  0.25010  1.0000 0.3071045317
C   C130      1.0  0.18500  0.44704  0.17650  1.0000 0.1654729843
C   C131      1.0  0.14200  0.49708  0.13170  1.0000 0.0897712863
C   C132      1.0  0.13370  0.49624  0.05420  1.0000 -0.0011469684
C   C133      1.0  0.21450  0.40021  0.06360  1.0000 0.0296333308
C   C134      1.0  0.22340  0.39690  0.14070  1.0000 -0.2129412666
C   C135      1.0  0.99370  0.76849  0.87350  1.0000 -0.0108641121
C   C136      1.0  0.07630  0.76310  0.85280  1.0000 -0.1169420444
C   C137      1.0  0.11780  0.70320  0.85410  1.0000 -0.1021158688
C   C138      1.0  0.07760  0.64815  0.87710  1.0000 -0.0280997122
C   C139      1.0  0.99640  0.65429  0.90080  1.0000 -0.1021158688
C   C140      1.0  0.95530  0.71352  0.89910  1.0000 -0.1021158688
C   C141      1.0  0.94490  0.83115  0.86780  1.0000 0.5518252886
C   C142      1.0  0.11860  0.58280  0.87330  1.0000 0.5616730489
C   C143      1.0  0.99750  0.26649  0.88640  1.0000 -0.0218873699
C   C144      1.0  0.92040  0.26180  0.91770  1.0000 -0.1113812905
C   C145      1.0  0.87660  0.20350  0.91690  1.0000 -0.1021158688
C   C146      1.0  0.90830  0.14931  0.88400  1.0000 -0.0218873699
C   C147      1.0  0.98260  0.15470  0.85020  1.0000 -0.1021158688
C   C148      1.0  0.02700  0.21260  0.85110  1.0000 -0.1113812905
C   C149      1.0  0.04860  0.32810  0.88940  1.0000 0.5426192917
C   C150      1.0  0.86560  0.08377  0.88700  1.0000 0.566202823
C   C151      1.0  0.40290  0.47330  0.30990  1.0000 -0.0108641121
C   C152      1.0  0.37710  0.50140  0.37290  1.0000 -0.1254487336
C   C153      1.0  0.39430  0.46910  0.44130  1.0000 -0.0280997122
C   C154      1.0  0.43560  0.40950  0.44370  1.0000 0.0411844742
C   C155      1.0  0.44400  0.41330  0.31830  1.0000 0.0173929636
C   C156      1.0  0.38410  0.50570  0.23620  1.0000 0.3038584577
C   C157      1.0  0.33260  0.57000  0.14670  1.0000 0.1578340902
C   C158      1.0  0.37730  0.52050  0.11550  1.0000 0.0897712863
C   C159      1.0  0.38240  0.51902  0.03940  1.0000 0.011018783
C   C160      1.0  0.30080  0.61490  0.02430  1.0000 0.0411844742
C   C161      1.0  0.29320  0.61920  0.09920  1.0000 -0.2197811877
C   C162      1.0  0.37020  0.49600  0.51060  1.0000 0.2882945947
C   C163      1.0  0.32010  0.56380  0.58540  1.0000 0.1654729843
C   C164      1.0  0.35490  0.50880  0.62660  1.0000 0.0765337832
C   C165      1.0  0.35500  0.50520  0.70270  1.0000 0.0042836658
C   C166      1.0  0.28500  0.60470  0.69850  1.0000 0.0583152249
C   C167      1.0  0.28260  0.61370  0.62230  1.0000 -0.2197811877
C   C168      1.0  0.60250  0.96070  0.45020  1.0000 -0.0280997122
C   C169      1.0  0.62810  0.98970  0.38750  1.0000 -0.149000369
C   C170      1.0  0.61290  0.95710  0.31870  1.0000 -0.0108641121
C   C171      1.0  0.57300  0.89580  0.31620  1.0000 0.011018783
C   C172      1.0  0.56260  0.89970  0.44110  1.0000 0.0296333308
C   C173      1.0  0.61560  0.99310  0.52400  1.0000 0.2882945947
C   C174      1.0  0.65570  0.06590  0.61090  1.0000 0.1578340902
C   C175      1.0  0.61780  0.01310  0.64170  1.0000 0.0897712863
C   C176      1.0  0.61140  0.01250  0.71750  1.0000 0.0296333308
C   C177      1.0  0.67850  0.11370  0.73150  1.0000 0.0495730275
C   C178      1.0  0.68680  0.11820  0.65650  1.0000 -0.2197811877
C   C179      1.0  0.63580  0.98669  0.25010  1.0000 0.3071045317
C   C180      1.0  0.68500  0.05296  0.17650  1.0000 0.1654729843
C   C181      1.0  0.64200  0.00292  0.13170  1.0000 0.0897712863
C   C182      1.0  0.63370  0.00376  0.05420  1.0000 -0.0011469684
C   C183      1.0  0.71450  0.09979  0.06360  1.0000 0.0296333308
C   C184      1.0  0.72340  0.10310  0.14070  1.0000 -0.2129412666
C   C185      1.0  0.49370  0.73151  0.87350  1.0000 -0.0108641121
C   C186      1.0  0.57630  0.73690  0.85280  1.0000 -0.1169420444
C   C187      1.0  0.61780  0.79680  0.85410  1.0000 -0.1021158688
C   C188      1.0  0.57760  0.85185  0.87710  1.0000 -0.0280997122
C   C189      1.0  0.49640  0.84571  0.90080  1.0000 -0.1021158688
C   C190      1.0  0.45530  0.78648  0.89910  1.0000 -0.1021158688
C   C191      1.0  0.44490  0.66885  0.86780  1.0000 0.5518252886
C   C192      1.0  0.61860  0.91720  0.87330  1.0000 0.5616730489
C   C193      1.0  0.49750  0.23351  0.88640  1.0000 -0.0218873699
C   C194      1.0  0.42040  0.23820  0.91770  1.0000 -0.1113812905
C   C195      1.0  0.37660  0.29650  0.91690  1.0000 -0.1021158688
C   C196      1.0  0.40830  0.35069  0.88400  1.0000 -0.0218873699
C   C197      1.0  0.48260  0.34530  0.85020  1.0000 -0.1021158688
C   C198      1.0  0.52700  0.28740  0.85110  1.0000 -0.1113812905
C   C199      1.0  0.54860  0.17190  0.88940  1.0000 0.5426192917
C   C200      1.0  0.36560  0.41623  0.88700  1.0000 0.566202823
N   N1        1.0  0.53930  0.61820  0.61590  1.0000 -0.2403303211
N   N2        1.0  0.66180  0.43986  0.77720  1.0000 -0.4111610793
N   N3        1.0  0.59110  0.51992  0.82598  1.0000 -0.2922227122
N   N4        1.0  0.65570  0.43370  0.00520  1.0000 -0.2483463412
N   N5        1.0  0.61440  0.53377  0.42330  1.0000 -0.4005886024
N   N6        1.0  0.66990  0.44529  0.48700  1.0000 -0.2982696407
N   N7        1.0  0.67880  0.44690  0.26180  1.0000 -0.2403303211
N   N8        1.0  0.45220  0.13233  0.62390  1.0000 -0.2403303211
N   N9        1.0  0.34620  0.94712  0.46360  1.0000 -0.2982696407
N   N10       1.0  0.40730  0.03238  0.41493  1.0000 -0.4005886024
N   N11       1.0  0.35770  0.93788  0.23833  1.0000 -0.2483463412
N   N12       1.0  0.32040  0.95778  0.74889  1.0000 -0.4194447957
N   N13       1.0  0.38710  0.03894  0.81918  1.0000 -0.2845748328
N   N14       1.0  0.33010  0.94792  0.97904  1.0000 -0.2483463412
N   N15       1.0  0.03930  0.88180  0.61590  1.0000 -0.2403303211
N   N16       1.0  0.16180  0.06014  0.77720  1.0000 -0.4111610793
N   N17       1.0  0.09110  0.98008  0.82598  1.0000 -0.2922227122
N   N18       1.0  0.15570  0.06630  0.00520  1.0000 -0.2483463412
N   N19       1.0  0.11440  0.96623  0.42330  1.0000 -0.4111610793
N   N20       1.0  0.16990  0.05471  0.48700  1.0000 -0.2982696407
N   N21       1.0  0.17880  0.05310  0.26180  1.0000 -0.2403303211
N   N22       1.0  0.95220  0.36767  0.62390  1.0000 -0.2403303211
N   N23       1.0  0.84620  0.55288  0.46360  1.0000 -0.2982696407
N   N24       1.0  0.90730  0.46762  0.41493  1.0000 -0.4005886024
N   N25       1.0  0.85770  0.56212  0.23833  1.0000 -0.2483463412
N   N26       1.0  0.82040  0.54222  0.74889  1.0000 -0.4194447957
N   N27       1.0  0.88710  0.46106  0.81918  1.0000 -0.2845748328
N   N28       1.0  0.83010  0.55208  0.97904  1.0000 -0.2483463412
N   N29       1.0  0.96070  0.11820  0.38410  1.0000 -0.2403303211
N   N30       1.0  0.83820  0.93986  0.22280  1.0000 -0.4111610793
N   N31       1.0  0.90890  0.01992  0.17402  1.0000 -0.2922227122
N   N32       1.0  0.84430  0.93370  0.99480  1.0000 -0.2483463412
N   N33       1.0  0.88560  0.03377  0.57670  1.0000 -0.4005886024
N   N34       1.0  0.83010  0.94529  0.51300  1.0000 -0.2982696407
N   N35       1.0  0.82120  0.94690  0.73820  1.0000 -0.2403303211
N   N36       1.0  0.04780  0.63233  0.37610  1.0000 -0.2403303211
N   N37       1.0  0.15380  0.44712  0.53640  1.0000 -0.2982696407
N   N38       1.0  0.09270  0.53238  0.58507  1.0000 -0.4005886024
N   N39       1.0  0.14230  0.43788  0.76167  1.0000 -0.2483463412
N   N40       1.0  0.17960  0.45778  0.25111  1.0000 -0.4194447957
N   N41       1.0  0.11290  0.53894  0.18082  1.0000 -0.2845748328
N   N42       1.0  0.16990  0.44792  0.02096  1.0000 -0.2483463412
N   N43       1.0  0.46070  0.38180  0.38410  1.0000 -0.2403303211
N   N44       1.0  0.33820  0.56014  0.22280  1.0000 -0.4111610793
N   N45       1.0  0.40890  0.48008  0.17402  1.0000 -0.2922227122
N   N46       1.0  0.34430  0.56630  0.99480  1.0000 -0.2483463412
N   N47       1.0  0.38560  0.46623  0.57670  1.0000 -0.4005886024
N   N48       1.0  0.33010  0.55471  0.51300  1.0000 -0.2982696407
N   N49       1.0  0.32120  0.55310  0.73820  1.0000 -0.2403303211
N   N50       1.0  0.54780  0.86767  0.37610  1.0000 -0.2403303211
N   N51       1.0  0.65380  0.05288  0.53640  1.0000 -0.2982696407
N   N52       1.0  0.59270  0.96762  0.58507  1.0000 -0.4005886024
N   N53       1.0  0.64230  0.06212  0.76167  1.0000 -0.2483463412
N   N54       1.0  0.67960  0.04222  0.25111  1.0000 -0.4194447957
N   N55       1.0  0.61290  0.96106  0.18082  1.0000 -0.2845748328
N   N56       1.0  0.66990  0.05208  0.02096  1.0000 -0.2483463412
O   O1        1.0  0.63760  0.32909  0.13350  1.0000 -0.5524050854
O   O2        1.0  0.51500  0.38409  0.13561  1.0000 -0.5770107818
O   O3        1.0  0.30666  0.07904  0.14458  1.0000 -0.5770107818
O   O4        1.0  0.42683  0.03439  0.11315  1.0000 -0.5387510024
O   O5        1.0  0.37062  0.82575  0.11092  1.0000 -0.5321331583
O   O6        1.0  0.49169  0.88186  0.10803  1.0000 -0.5770107818
O   O7        1.0  0.70726  0.58000  0.09183  1.0000 -0.572815653
O   O8        1.0  0.59134  0.53543  0.13062  1.0000 -0.5524050854
O   O9        1.0  0.13760  0.17091  0.13350  1.0000 -0.5524050854
O   O10       1.0  0.01500  0.11591  0.13561  1.0000 -0.5770107818
O   O11       1.0  0.80666  0.42096  0.14458  1.0000 -0.5770107818
O   O12       1.0  0.92683  0.46561  0.11315  1.0000 -0.5387510024
O   O13       1.0  0.87062  0.67425  0.11092  1.0000 -0.5321331583
O   O14       1.0  0.99169  0.61814  0.10803  1.0000 -0.5770107818
O   O15       1.0  0.20726  0.92000  0.09183  1.0000 -0.572815653
O   O16       1.0  0.09134  0.96457  0.13062  1.0000 -0.5524050854
O   O17       1.0  0.86240  0.82909  0.86650  1.0000 -0.5524050854
O   O18       1.0  0.98500  0.88409  0.86439  1.0000 -0.5770107818
O   O19       1.0  0.19334  0.57904  0.85542  1.0000 -0.5770107818
O   O20       1.0  0.07317  0.53439  0.88685  1.0000 -0.5387510024
O   O21       1.0  0.12938  0.32575  0.88908  1.0000 -0.5321331583
O   O22       1.0  0.00831  0.38186  0.89197  1.0000 -0.5770107818
O   O23       1.0  0.79274  0.08000  0.90817  1.0000 -0.572815653
O   O24       1.0  0.90866  0.03543  0.86938  1.0000 -0.5524050854
O   O25       1.0  0.36240  0.67091  0.86650  1.0000 -0.5524050854
O   O26       1.0  0.48500  0.61591  0.86439  1.0000 -0.5770107818
O   O27       1.0  0.69334  0.92096  0.85542  1.0000 -0.5770107818
O   O28       1.0  0.57317  0.96561  0.88685  1.0000 -0.5387510024
O   O29       1.0  0.62938  0.17425  0.88908  1.0000 -0.5321331583
O   O30       1.0  0.50831  0.11814  0.89197  1.0000 -0.5770107818
O   O31       1.0  0.29274  0.42000  0.90817  1.0000 -0.572815653
O   O32       1.0  0.40866  0.46457  0.86938  1.0000 -0.5524050854
