# DDEC6 charges by PACMAN v1.1 (https://github.com/mtap-research/PACMAN-charge/)
data_2017[Eu][mog]3[FSR]1
_chemical_formula_sum              "Eu2 H6 C18 N6 O16"
_cell_length_a       6.052
_cell_length_b       10.4994
_cell_length_c       13.4547
_cell_angle_alpha    71.63
_cell_angle_beta     89.254
_cell_angle_gamma    89.101

_symmetry_space_group_name_H-M    "P 1"
_symmetry_Int_Tables_number       1

loop_
  _symmetry_equiv_pos_as_xyz
  'x, y, z'

loop_
  _atom_site_type_symbol
  _atom_site_label
  _atom_site_symmetry_multiplicity
  _atom_site_fract_x
  _atom_site_fract_y
  _atom_site_fract_z
  _atom_site_occupancy
  _atom_site_charge
Eu  Eu1       1.0  0.25043  0.65949  0.70707  1.0000 1.8506160642
Eu  Eu2       1.0  0.74957  0.34051  0.29293  1.0000 1.8506160642
H   H1        1.0  0.81460  0.91130  0.65250  1.0000 0.1611399616
H   H2        1.0  0.70050  0.46560  0.86770  1.0000 0.1477695074
H   H3        1.0  0.35330  0.57270  0.47100  1.0000 0.1477695074
H   H4        1.0  0.18540  0.08870  0.34750  1.0000 0.1611399616
H   H5        1.0  0.29950  0.53440  0.13230  1.0000 0.1477695074
H   H6        1.0  0.64670  0.42730  0.52900  1.0000 0.1477695074
C   C1        1.0  0.18650  0.93930  0.48520  1.0000 0.0690727535
C   C2        1.0  0.89360  0.94610  0.59030  1.0000 0.0820532892
C   C3        1.0  0.31740  0.57440  0.97590  1.0000 0.0614263828
C   C4        1.0  0.61560  0.48120  0.92090  1.0000 0.0690727535
C   C5        1.0  0.88350  0.52930  0.57460  1.0000 0.0861310105
C   C6        1.0  0.20820  0.54370  0.48410  1.0000 0.0690727535
C   C7        1.0  0.39860  0.86910  0.47070  1.0000 0.5346736576
C   C8        1.0  0.11000  0.65980  0.94720  1.0000 0.5480660464
C   C9        1.0  0.75280  0.56940  0.65710  1.0000 0.5612808432
C   C10       1.0  0.81350  0.06070  0.51480  1.0000 0.0690727535
C   C11       1.0  0.10640  0.05390  0.40970  1.0000 0.0820532892
C   C12       1.0  0.68260  0.42560  0.02410  1.0000 0.0614263828
C   C13       1.0  0.38440  0.51880  0.07910  1.0000 0.0690727535
C   C14       1.0  0.11650  0.47070  0.42540  1.0000 0.0861310105
C   C15       1.0  0.79180  0.45630  0.51590  1.0000 0.0690727535
C   C16       1.0  0.60140  0.13090  0.52930  1.0000 0.5346736576
C   C17       1.0  0.89000  0.34020  0.05280  1.0000 0.5480660464
C   C18       1.0  0.24720  0.43060  0.34290  1.0000 0.5612808432
N   N1        1.0  0.08020  0.88500  0.57600  1.0000 -0.2613144352
N   N2        1.0  0.43330  0.55600  0.89660  1.0000 -0.2467545454
N   N3        1.0  0.09140  0.57300  0.55900  1.0000 -0.2668171162
N   N4        1.0  0.91980  0.11500  0.42400  1.0000 -0.2613144352
N   N5        1.0  0.56670  0.44400  0.10340  1.0000 -0.2467545454
N   N6        1.0  0.90860  0.42700  0.44100  1.0000 -0.2668171162
O   O1        1.0  0.45080  0.76870  0.54640  1.0000 -0.5837399695
O   O2        1.0  0.06530  0.70190  0.85140  1.0000 -0.538605306
O   O3        1.0  0.85170  0.64170  0.69950  1.0000 -0.538605306
O   O4        1.0  0.15570  0.42130  0.78200  1.0000 -0.2668171162
O   O5        1.0  0.44450  0.83690  0.74400  1.0000 -0.3295808767
O   O6        1.0  0.55860  0.52760  0.67630  1.0000 -0.5617221926
O   O7        1.0  0.50510  0.91430  0.38820  1.0000 -0.405708525
O   O8        1.0  0.99890  0.68200  0.01730  1.0000 -0.3912304823
O   O9        1.0  0.54920  0.23130  0.45360  1.0000 -0.5837399695
O   O10       1.0  0.93470  0.29810  0.14860  1.0000 -0.538605306
O   O11       1.0  0.14830  0.35830  0.30050  1.0000 -0.538605306
O   O12       1.0  0.84430  0.57870  0.21800  1.0000 -0.2613144352
O   O13       1.0  0.55550  0.16310  0.25600  1.0000 -0.3295808767
O   O14       1.0  0.44140  0.47240  0.32370  1.0000 -0.5617221926
O   O15       1.0  0.49490  0.08570  0.61180  1.0000 -0.405708525
O   O16       1.0  0.00110  0.31800  0.98270  1.0000 -0.3912304823
