# DDEC6 charges by PACMAN v1.1 (https://github.com/mtap-research/PACMAN-charge/)
data_2017[Eu][kgd]2[FSR]2
_chemical_formula_sum              "Eu2 H20 C22 N2 O14"
_cell_length_a       8.6189
_cell_length_b       9.0641
_cell_length_c       10.364
_cell_angle_alpha    104.59
_cell_angle_beta     101.91
_cell_angle_gamma    95.68

_symmetry_space_group_name_H-M    "P 1"
_symmetry_Int_Tables_number       1

loop_
  _symmetry_equiv_pos_as_xyz
  'x, y, z'

loop_
  _atom_site_type_symbol
  _atom_site_label
  _atom_site_symmetry_multiplicity
  _atom_site_fract_x
  _atom_site_fract_y
  _atom_site_fract_z
  _atom_site_occupancy
  _atom_site_charge
Eu  Eu1       1.0  0.42346  0.28715  0.03001  1.0000 2.0824217663
Eu  Eu2       1.0  0.57654  0.71285  0.96999  1.0000 2.0824217663
H   H1        1.0  0.75750  0.21710  0.39390  1.0000 0.1200851192
H   H2        1.0  0.67500  0.31590  0.58710  1.0000 0.1103883401
H   H3        1.0  0.75690  0.74180  0.54440  1.0000 0.1200851192
H   H4        1.0  0.85480  0.64430  0.35520  1.0000 0.1200851192
H   H5        1.0  0.93070  0.16920  0.27890  1.0000 0.1379540094
H   H6        1.0  0.97080  0.18890  0.14330  1.0000 0.1576606722
H   H7        1.0  0.97650  0.40430  0.09460  1.0000 0.1576606722
H   H8        1.0  0.00830  0.54430  0.22560  1.0000 0.1379540094
H   H9        1.0  0.55430  0.20360  0.83660  1.0000 0.3429910407
H   H10       1.0  0.48970  0.27300  0.73770  1.0000 0.3880288467
H   H11       1.0  0.24250  0.78290  0.60610  1.0000 0.1200851192
H   H12       1.0  0.32500  0.68410  0.41290  1.0000 0.1103883401
H   H13       1.0  0.24310  0.25820  0.45560  1.0000 0.1200851192
H   H14       1.0  0.14520  0.35570  0.64480  1.0000 0.1200851192
H   H15       1.0  0.06930  0.83080  0.72110  1.0000 0.1379540094
H   H16       1.0  0.02920  0.81110  0.85670  1.0000 0.1576606722
H   H17       1.0  0.02350  0.59570  0.90540  1.0000 0.1576606722
H   H18       1.0  0.99170  0.45570  0.77440  1.0000 0.1379540094
H   H19       1.0  0.44570  0.79640  0.16340  1.0000 0.3429910407
H   H20       1.0  0.51030  0.72700  0.26230  1.0000 0.3880288467
C   C1        1.0  0.81890  0.41850  0.35330  1.0000 0.1906843946
C   C2        1.0  0.76100  0.32330  0.42500  1.0000 -0.1972404032
C   C3        1.0  0.70900  0.38300  0.54010  1.0000 -0.0766689091
C   C4        1.0  0.70400  0.53720  0.58970  1.0000 -0.0737633094
C   C5        1.0  0.76000  0.63650  0.51540  1.0000 -0.0766689091
C   C6        1.0  0.81700  0.57780  0.40110  1.0000 -0.1972404032
C   C7        1.0  0.64900  0.60000  0.71390  1.0000 0.5603856907
C   C8        1.0  0.89030  0.19970  0.19660  1.0000 -0.2781282648
C   C9        1.0  0.74200  0.08900  0.11490  1.0000 0.6836268769
C   C10       1.0  0.92600  0.46200  0.16220  1.0000 -0.2656539216
C   C11       1.0  0.80080  0.53550  0.08960  1.0000 0.6444500551
C   C12       1.0  0.18110  0.58150  0.64670  1.0000 0.1906843946
C   C13       1.0  0.23900  0.67670  0.57500  1.0000 -0.1972404032
C   C14       1.0  0.29100  0.61700  0.45990  1.0000 -0.0766689091
C   C15       1.0  0.29600  0.46280  0.41030  1.0000 -0.0737633094
C   C16       1.0  0.24000  0.36350  0.48460  1.0000 -0.0766689091
C   C17       1.0  0.18300  0.42220  0.59890  1.0000 -0.1972404032
C   C18       1.0  0.35100  0.40000  0.28610  1.0000 0.5603856907
C   C19       1.0  0.10970  0.80030  0.80340  1.0000 -0.2781282648
C   C20       1.0  0.25800  0.91100  0.88510  1.0000 0.6836268769
C   C21       1.0  0.07400  0.53800  0.83780  1.0000 -0.2656539216
C   C22       1.0  0.19920  0.46450  0.91040  1.0000 0.6444500551
N   N1        1.0  0.87490  0.36130  0.23760  1.0000 -0.0535488727
N   N2        1.0  0.12510  0.63870  0.76240  1.0000 -0.0535488727
O   O1        1.0  0.61650  0.14330  0.08510  1.0000 -0.6950553789
O   O2        1.0  0.75210  0.95150  0.07680  1.0000 -0.6263267531
O   O3        1.0  0.65110  0.48330  0.06560  1.0000 -0.7569115742
O   O4        1.0  0.84340  0.65240  0.05690  1.0000 -0.5977192059
O   O5        1.0  0.59470  0.50860  0.77590  1.0000 -0.6616194382
O   O6        1.0  0.65880  0.74430  0.76590  1.0000 -0.6410048141
O   O7        1.0  0.47200  0.23800  0.80350  1.0000 -0.7569115742
O   O8        1.0  0.38350  0.85670  0.91490  1.0000 -0.6950553789
O   O9        1.0  0.24790  0.04850  0.92320  1.0000 -0.6263267531
O   O10       1.0  0.34890  0.51670  0.93440  1.0000 -0.7569115742
O   O11       1.0  0.15660  0.34760  0.94310  1.0000 -0.5977192059
O   O12       1.0  0.40530  0.49140  0.22410  1.0000 -0.6616194382
O   O13       1.0  0.34120  0.25570  0.23410  1.0000 -0.6410048141
O   O14       1.0  0.52800  0.76200  0.19650  1.0000 -0.7569115742
