# DDEC6 charges by PACMAN v1.1 (https://github.com/mtap-research/PACMAN-charge/)
data_2017[Ag][hcb]2[FSR]6
_chemical_formula_sum              "Ag4 H84 C112 S4 N12 O36 F12"
_cell_length_a       14.2877
_cell_length_b       15.8364
_cell_length_c       17.5602
_cell_angle_alpha    65.118
_cell_angle_beta     67.568
_cell_angle_gamma    74.408

_symmetry_space_group_name_H-M    "P 1"
_symmetry_Int_Tables_number       1

loop_
  _symmetry_equiv_pos_as_xyz
  'x, y, z'

loop_
  _atom_site_type_symbol
  _atom_site_label
  _atom_site_symmetry_multiplicity
  _atom_site_fract_x
  _atom_site_fract_y
  _atom_site_fract_z
  _atom_site_occupancy
  _atom_site_charge
Ag  Ag1       1.0  0.95609  0.75400  0.67301  1.0000 0.2958839469
Ag  Ag2       1.0  0.61721  0.20657  0.80666  1.0000 0.3063223445
Ag  Ag3       1.0  0.04391  0.24600  0.32699  1.0000 0.2958839469
Ag  Ag4       1.0  0.38279  0.79343  0.19334  1.0000 0.3063223445
H   H1        1.0  0.80240  0.64730  0.85240  1.0000 0.1099169486
H   H2        1.0  0.78920  0.51210  0.97640  1.0000 0.1392548295
H   H3        1.0  0.09610  0.44930  0.88930  1.0000 0.1313823459
H   H4        1.0  0.09890  0.58380  0.76690  1.0000 0.1188620919
H   H5        1.0  0.88560  0.24790  0.17190  1.0000 0.1099169486
H   H6        1.0  0.76560  0.26500  0.18540  1.0000 0.1188620919
H   H7        1.0  0.96940  0.64300  0.55490  1.0000 0.1099169486
H   H8        1.0  0.94510  0.66420  0.42580  1.0000 0.1392548295
H   H9        1.0  0.85840  0.94010  0.38590  1.0000 0.1392548295
H   H10       1.0  0.87940  0.91280  0.51780  1.0000 0.1099169486
H   H11       1.0  0.91280  0.89060  0.14200  1.0000 0.1018949792
H   H12       1.0  0.79180  0.90980  0.18630  1.0000 0.1188620919
H   H13       1.0  0.93090  0.81260  0.83430  1.0000 0.1099169486
H   H14       1.0  0.91490  0.93850  0.87380  1.0000 0.1313823459
H   H15       1.0  0.87830  0.10960  0.63610  1.0000 0.1313823459
H   H16       1.0  0.90110  0.98010  0.60280  1.0000 0.1099169486
H   H17       1.0  0.93260  0.22030  0.84630  1.0000 0.1188620919
H   H18       1.0  0.81080  0.22670  0.87410  1.0000 0.1099169486
H   H19       1.0  0.84580  0.08020  0.21520  1.0000 0.1392548295
H   H20       1.0  0.87860  0.01130  0.00780  1.0000 0.1188620919
H   H21       1.0  0.85440  0.28330  0.97660  1.0000 0.1188620919
H   H22       1.0  0.50540  0.38260  0.69590  1.0000 0.1188620919
H   H23       1.0  0.52770  0.51420  0.56750  1.0000 0.1313823459
H   H24       1.0  0.81480  0.39910  0.47880  1.0000 0.1392548295
H   H25       1.0  0.78680  0.27340  0.61040  1.0000 0.1099169486
H   H26       1.0  0.69770  0.71160  0.31610  1.0000 0.1188620919
H   H27       1.0  0.57670  0.73690  0.33280  1.0000 0.1099169486
H   H28       1.0  0.64280  0.97450  0.89240  1.0000 0.1099169486
H   H29       1.0  0.66180  0.84310  0.86100  1.0000 0.1313823459
H   H30       1.0  0.63550  0.01330  0.62060  1.0000 0.1313823459
H   H31       1.0  0.61920  0.13970  0.65860  1.0000 0.1018949792
H   H32       1.0  0.71210  0.73320  0.61440  1.0000 0.1099169486
H   H33       1.0  0.59030  0.73830  0.65720  1.0000 0.1188620919
H   H34       1.0  0.59480  0.32670  0.92390  1.0000 0.1099169486
H   H35       1.0  0.58030  0.30810  0.06490  1.0000 0.1392548295
H   H36       1.0  0.61620  0.02830  0.12820  1.0000 0.1392548295
H   H37       1.0  0.62450  0.05380  0.98680  1.0000 0.1099169486
H   H38       1.0  0.66760  0.07100  0.33550  1.0000 0.1099169486
H   H39       1.0  0.54540  0.07680  0.37210  1.0000 0.1018949792
H   H40       1.0  0.64420  0.68510  0.52060  1.0000 0.1099169486
H   H41       1.0  0.62590  0.95370  0.49890  1.0000 0.1188620919
H   H42       1.0  0.60930  0.89970  0.29890  1.0000 0.1313823459
H   H43       1.0  0.19760  0.35270  0.14760  1.0000 0.1099169486
H   H44       1.0  0.21080  0.48790  0.02360  1.0000 0.1392548295
H   H45       1.0  0.90390  0.55070  0.11070  1.0000 0.1313823459
H   H46       1.0  0.90110  0.41620  0.23310  1.0000 0.1188620919
H   H47       1.0  0.11440  0.75210  0.82810  1.0000 0.1099169486
H   H48       1.0  0.23440  0.73500  0.81460  1.0000 0.1188620919
H   H49       1.0  0.03060  0.35700  0.44510  1.0000 0.1099169486
H   H50       1.0  0.05490  0.33580  0.57420  1.0000 0.1392548295
H   H51       1.0  0.14160  0.05990  0.61410  1.0000 0.1392548295
H   H52       1.0  0.12060  0.08720  0.48220  1.0000 0.1099169486
H   H53       1.0  0.08720  0.10940  0.85800  1.0000 0.1018949792
H   H54       1.0  0.20820  0.09020  0.81370  1.0000 0.1188620919
H   H55       1.0  0.06910  0.18740  0.16570  1.0000 0.1099169486
H   H56       1.0  0.08510  0.06150  0.12620  1.0000 0.1313823459
H   H57       1.0  0.12170  0.89040  0.36390  1.0000 0.1313823459
H   H58       1.0  0.09890  0.01990  0.39720  1.0000 0.1099169486
H   H59       1.0  0.06740  0.77970  0.15370  1.0000 0.1188620919
H   H60       1.0  0.18920  0.77330  0.12590  1.0000 0.1099169486
H   H61       1.0  0.15420  0.91980  0.78480  1.0000 0.1392548295
H   H62       1.0  0.12140  0.98870  0.99220  1.0000 0.1188620919
H   H63       1.0  0.14560  0.71670  0.02340  1.0000 0.1188620919
H   H64       1.0  0.49460  0.61740  0.30410  1.0000 0.1188620919
H   H65       1.0  0.47230  0.48580  0.43250  1.0000 0.1313823459
H   H66       1.0  0.18520  0.60090  0.52120  1.0000 0.1392548295
H   H67       1.0  0.21320  0.72660  0.38960  1.0000 0.1099169486
H   H68       1.0  0.30230  0.28840  0.68390  1.0000 0.1188620919
H   H69       1.0  0.42330  0.26310  0.66720  1.0000 0.1099169486
H   H70       1.0  0.35720  0.02550  0.10760  1.0000 0.1099169486
H   H71       1.0  0.33820  0.15690  0.13900  1.0000 0.1313823459
H   H72       1.0  0.36450  0.98670  0.37940  1.0000 0.1313823459
H   H73       1.0  0.38080  0.86030  0.34140  1.0000 0.1018949792
H   H74       1.0  0.28790  0.26680  0.38560  1.0000 0.1099169486
H   H75       1.0  0.40970  0.26170  0.34280  1.0000 0.1188620919
H   H76       1.0  0.40520  0.67330  0.07610  1.0000 0.1099169486
H   H77       1.0  0.41970  0.69190  0.93510  1.0000 0.1392548295
H   H78       1.0  0.38380  0.97170  0.87180  1.0000 0.1392548295
H   H79       1.0  0.37550  0.94620  0.01320  1.0000 0.1099169486
H   H80       1.0  0.33240  0.92900  0.66450  1.0000 0.1099169486
H   H81       1.0  0.45460  0.92320  0.62790  1.0000 0.1018949792
H   H82       1.0  0.35580  0.31490  0.47940  1.0000 0.1099169486
H   H83       1.0  0.37410  0.04630  0.50110  1.0000 0.1188620919
H   H84       1.0  0.39070  0.10030  0.70110  1.0000 0.1313823459
C   C1        1.0  0.86260  0.60530  0.85960  1.0000 0.0795690703
C   C2        1.0  0.85410  0.52560  0.93420  1.0000 -0.1608574084
C   C3        1.0  0.94160  0.46550  0.94690  1.0000 0.0039685302
C   C4        1.0  0.03420  0.48860  0.88280  1.0000 -0.1514780159
C   C5        1.0  0.03510  0.56850  0.81020  1.0000 0.0795690703
C   C6        1.0  0.94080  0.37590  0.02550  1.0000 0.4890699171
C   C7        1.0  0.83410  0.26500  0.14120  1.0000 -0.0790907658
C   C8        1.0  0.94630  0.70410  0.52010  1.0000 0.050754846
C   C9        1.0  0.93200  0.71610  0.44380  1.0000 -0.1421181812
C   C10       1.0  0.89800  0.80540  0.39200  1.0000 0.0068925539
C   C11       1.0  0.88030  0.87830  0.42030  1.0000 -0.1421181812
C   C12       1.0  0.89440  0.86180  0.49820  1.0000 0.0718446904
C   C13       1.0  0.88590  0.81710  0.30720  1.0000 0.4890699171
C   C14       1.0  0.85850  0.92790  0.17480  1.0000 -0.0709655584
C   C15       1.0  0.92140  0.87420  0.79320  1.0000 0.0795690703
C   C16       1.0  0.91070  0.94850  0.81790  1.0000 -0.1608574084
C   C17       1.0  0.89350  0.03880  0.75950  1.0000 -0.0058260338
C   C18       1.0  0.88990  0.04900  0.67780  1.0000 -0.1421181812
C   C19       1.0  0.90320  0.97160  0.65900  1.0000 0.0718446904
C   C20       1.0  0.88030  0.12370  0.78000  1.0000 0.4890699171
C   C21       1.0  0.87370  0.18460  0.88380  1.0000 -0.0790907658
C   C22       1.0  0.84830  0.19340  0.10110  1.0000 0.1099169486
C   C23       1.0  0.85080  0.09830  0.15500  1.0000 -0.2095775011
C   C24       1.0  0.86050  0.03040  0.12110  1.0000 0.1188620919
C   C25       1.0  0.87010  0.05750  0.03180  1.0000 -0.2206472721
C   C26       1.0  0.86740  0.15160  0.97850  1.0000 0.1099169486
C   C27       1.0  0.85640  0.21890  0.01330  1.0000 -0.2206472721
C   C28       1.0  0.32850  0.78640  0.56560  1.0000 0.4890699171
C   C29       1.0  0.57020  0.38690  0.65190  1.0000 0.0795690703
C   C30       1.0  0.58240  0.46490  0.57500  1.0000 -0.1608574084
C   C31       1.0  0.67470  0.47020  0.50980  1.0000 0.0068925539
C   C32       1.0  0.75050  0.39810  0.52320  1.0000 -0.1514780159
C   C33       1.0  0.73300  0.32350  0.60200  1.0000 0.0795690703
C   C34       1.0  0.69470  0.55470  0.42750  1.0000 0.5033134454
C   C35       1.0  0.63080  0.71430  0.36170  1.0000 -0.0709655584
C   C36       1.0  0.64190  0.98250  0.83600  1.0000 0.0795690703
C   C37       1.0  0.65270  0.90370  0.81830  1.0000 -0.1514780159
C   C38       1.0  0.65000  0.91400  0.73700  1.0000 -0.0001051427
C   C39       1.0  0.63750  0.00370  0.67720  1.0000 -0.1608574084
C   C40       1.0  0.62790  0.07840  0.70050  1.0000 0.0795690703
C   C41       1.0  0.66040  0.82890  0.71640  1.0000 0.4890699171
C   C42       1.0  0.64670  0.77530  0.61440  1.0000 -0.0709655584
C   C43       1.0  0.59830  0.26500  0.96630  1.0000 0.050754846
C   C44       1.0  0.59090  0.25460  0.04980  1.0000 -0.1514780159
C   C45       1.0  0.59910  0.16560  0.11140  1.0000 -0.0001051427
C   C46       1.0  0.61130  0.09060  0.08700  1.0000 -0.1421181812
C   C47       1.0  0.61630  0.10650  0.00250  1.0000 0.0795690703
C   C48       1.0  0.59440  0.15500  0.20150  1.0000 0.4890699171
C   C49       1.0  0.60860  0.04550  0.34030  1.0000 -0.0709655584
C   C50       1.0  0.62700  0.78120  0.40410  1.0000 0.1099169486
C   C51       1.0  0.63660  0.75040  0.48750  1.0000 -0.2291593345
C   C52       1.0  0.63520  0.81500  0.52360  1.0000 0.1099169486
C   C53       1.0  0.62620  0.91000  0.47480  1.0000 -0.2291593345
C   C54       1.0  0.61740  0.94230  0.38970  1.0000 0.1099169486
C   C55       1.0  0.61680  0.87800  0.35590  1.0000 -0.2095775011
C   C56       1.0  0.24380  0.23140  0.92950  1.0000 0.4890699171
C   C57       1.0  0.13740  0.39470  0.14040  1.0000 0.0795690703
C   C58       1.0  0.14590  0.47440  0.06580  1.0000 -0.1608574084
C   C59       1.0  0.05840  0.53450  0.05310  1.0000 0.0039685302
C   C60       1.0  0.96580  0.51140  0.11720  1.0000 -0.1514780159
C   C61       1.0  0.96490  0.43150  0.18980  1.0000 0.0858814799
C   C62       1.0  0.05920  0.62410  0.97450  1.0000 0.4890699171
C   C63       1.0  0.16590  0.73500  0.85880  1.0000 -0.0790907658
C   C64       1.0  0.05370  0.29590  0.47990  1.0000 0.050754846
C   C65       1.0  0.06800  0.28390  0.55620  1.0000 -0.1421181812
C   C66       1.0  0.10200  0.19460  0.60800  1.0000 0.0068925539
C   C67       1.0  0.11970  0.12170  0.57970  1.0000 -0.1421181812
C   C68       1.0  0.10560  0.13820  0.50180  1.0000 0.0718446904
C   C69       1.0  0.11410  0.18290  0.69280  1.0000 0.4890699171
C   C70       1.0  0.14150  0.07210  0.82520  1.0000 -0.0709655584
C   C71       1.0  0.07860  0.12580  0.20680  1.0000 0.0795690703
C   C72       1.0  0.08930  0.05150  0.18210  1.0000 -0.1608574084
C   C73       1.0  0.10650  0.96120  0.24050  1.0000 -0.0058260338
C   C74       1.0  0.11010  0.95100  0.32220  1.0000 -0.1421181812
C   C75       1.0  0.09680  0.02840  0.34100  1.0000 0.0718446904
C   C76       1.0  0.11970  0.87630  0.22000  1.0000 0.4890699171
C   C77       1.0  0.12630  0.81540  0.11620  1.0000 -0.0790907658
C   C78       1.0  0.15170  0.80660  0.89890  1.0000 0.1099169486
C   C79       1.0  0.14920  0.90170  0.84500  1.0000 -0.2095775011
C   C80       1.0  0.13950  0.96960  0.87890  1.0000 0.1188620919
C   C81       1.0  0.12990  0.94250  0.96820  1.0000 -0.2206472721
C   C82       1.0  0.13260  0.84840  0.02150  1.0000 0.1099169486
C   C83       1.0  0.14360  0.78110  0.98670  1.0000 -0.2206472721
C   C84       1.0  0.67150  0.21360  0.43440  1.0000 0.4890699171
C   C85       1.0  0.42980  0.61310  0.34810  1.0000 0.0795690703
C   C86       1.0  0.41760  0.53510  0.42500  1.0000 -0.1608574084
C   C87       1.0  0.32530  0.52980  0.49020  1.0000 0.0068925539
C   C88       1.0  0.24950  0.60190  0.47680  1.0000 -0.1514780159
C   C89       1.0  0.26700  0.67650  0.39800  1.0000 0.0795690703
C   C90       1.0  0.30530  0.44530  0.57250  1.0000 0.5033134454
C   C91       1.0  0.36920  0.28570  0.63830  1.0000 -0.0709655584
C   C92       1.0  0.35810  0.01750  0.16400  1.0000 0.0795690703
C   C93       1.0  0.34730  0.09630  0.18170  1.0000 -0.1514780159
C   C94       1.0  0.35000  0.08600  0.26300  1.0000 -0.0001051427
C   C95       1.0  0.36250  0.99630  0.32280  1.0000 -0.1608574084
C   C96       1.0  0.37210  0.92160  0.29950  1.0000 0.0795690703
C   C97       1.0  0.33960  0.17110  0.28360  1.0000 0.4890699171
C   C98       1.0  0.35330  0.22470  0.38560  1.0000 -0.0709655584
C   C99       1.0  0.40170  0.73500  0.03370  1.0000 0.050754846
C   C100      1.0  0.40910  0.74540  0.95020  1.0000 -0.1514780159
C   C101      1.0  0.40090  0.83440  0.88860  1.0000 -0.0001051427
C   C102      1.0  0.38870  0.90940  0.91300  1.0000 -0.1421181812
C   C103      1.0  0.38370  0.89350  0.99750  1.0000 0.0795690703
C   C104      1.0  0.40560  0.84500  0.79850  1.0000 0.4890699171
C   C105      1.0  0.39140  0.95450  0.65970  1.0000 -0.0709655584
C   C106      1.0  0.37300  0.21880  0.59590  1.0000 0.1099169486
C   C107      1.0  0.36340  0.24960  0.51250  1.0000 -0.2291593345
C   C108      1.0  0.36480  0.18500  0.47640  1.0000 0.1099169486
C   C109      1.0  0.37380  0.09000  0.52520  1.0000 -0.2291593345
C   C110      1.0  0.38260  0.05770  0.61030  1.0000 0.1099169486
C   C111      1.0  0.38320  0.12200  0.64410  1.0000 -0.2095775011
C   C112      1.0  0.75620  0.76860  0.07050  1.0000 0.4890699171
S   S1        1.0  0.19347  0.83071  0.59245  1.0000 0.9758516633
S   S2        1.0  0.36853  0.17931  0.88160  1.0000 0.9758516633
S   S3        1.0  0.80653  0.16929  0.40755  1.0000 0.9758516633
S   S4        1.0  0.63147  0.82069  0.11840  1.0000 0.9758516633
N   N1        1.0  0.95070  0.62640  0.79700  1.0000 -0.180916601
N   N2        1.0  0.92850  0.77650  0.54870  1.0000 -0.1905878253
N   N3        1.0  0.91920  0.88320  0.71430  1.0000 -0.1984536714
N   N4        1.0  0.64570  0.31750  0.66650  1.0000 -0.1905878253
N   N5        1.0  0.63020  0.07040  0.77890  1.0000 -0.2095775011
N   N6        1.0  0.61020  0.19250  0.94090  1.0000 -0.180916601
N   N7        1.0  0.04930  0.37360  0.20300  1.0000 -0.180916601
N   N8        1.0  0.07150  0.22350  0.45130  1.0000 -0.1905878253
N   N9        1.0  0.08080  0.11680  0.28570  1.0000 -0.1984536714
N   N10       1.0  0.35430  0.68250  0.33350  1.0000 -0.1905878253
N   N11       1.0  0.36980  0.92960  0.22110  1.0000 -0.2095775011
N   N12       1.0  0.38980  0.80750  0.05910  1.0000 -0.180916601
O   O1        1.0  0.01520  0.32570  0.04040  1.0000 -0.4420423097
O   O2        1.0  0.84410  0.35840  0.07420  1.0000 -0.2206472721
O   O3        1.0  0.88770  0.75450  0.28580  1.0000 -0.4209542937
O   O4        1.0  0.87440  0.90890  0.25720  1.0000 -0.2095775011
O   O5        1.0  0.86520  0.20270  0.73050  1.0000 -0.4642586477
O   O6        1.0  0.88570  0.10420  0.85990  1.0000 -0.2095775011
O   O7        1.0  0.14720  0.74540  0.64330  1.0000 -0.559131921
O   O8        1.0  0.18290  0.88520  0.64410  1.0000 -0.5662095315
O   O9        1.0  0.17580  0.88340  0.50990  1.0000 -0.559131921
O   O10       1.0  0.77420  0.56310  0.36890  1.0000 -0.4420423097
O   O11       1.0  0.61600  0.62150  0.42840  1.0000 -0.2291593345
O   O12       1.0  0.67780  0.74970  0.76360  1.0000 -0.4659698075
O   O13       1.0  0.64510  0.85160  0.63930  1.0000 -0.2095775011
O   O14       1.0  0.58360  0.21900  0.22500  1.0000 -0.43323896
O   O15       1.0  0.60600  0.06360  0.25330  1.0000 -0.2095775011
O   O16       1.0  0.34750  0.13650  0.83340  1.0000 -0.559131921
O   O17       1.0  0.42450  0.25860  0.82780  1.0000 -0.559131921
O   O18       1.0  0.40140  0.11540  0.95600  1.0000 -0.559131921
O   O19       1.0  0.98480  0.67430  0.95960  1.0000 -0.4420423097
O   O20       1.0  0.15590  0.64160  0.92580  1.0000 -0.2206472721
O   O21       1.0  0.11230  0.24550  0.71420  1.0000 -0.4209542937
O   O22       1.0  0.12560  0.09110  0.74280  1.0000 -0.2095775011
O   O23       1.0  0.13480  0.79730  0.26950  1.0000 -0.4642586477
O   O24       1.0  0.11430  0.89580  0.14010  1.0000 -0.2095775011
O   O25       1.0  0.85280  0.25460  0.35670  1.0000 -0.559131921
O   O26       1.0  0.81710  0.11480  0.35590  1.0000 -0.5662095315
O   O27       1.0  0.82420  0.11660  0.49010  1.0000 -0.559131921
O   O28       1.0  0.22580  0.43690  0.63110  1.0000 -0.4420423097
O   O29       1.0  0.38400  0.37850  0.57160  1.0000 -0.2291593345
O   O30       1.0  0.32220  0.25030  0.23640  1.0000 -0.4659698075
O   O31       1.0  0.35490  0.14840  0.36070  1.0000 -0.2095775011
O   O32       1.0  0.41640  0.78100  0.77500  1.0000 -0.4420423097
O   O33       1.0  0.39400  0.93640  0.74670  1.0000 -0.2095775011
O   O34       1.0  0.65250  0.86350  0.16660  1.0000 -0.559131921
O   O35       1.0  0.57550  0.74140  0.17220  1.0000 -0.559131921
O   O36       1.0  0.59860  0.88460  0.04400  1.0000 -0.559131921
F   F1        1.0  0.35550  0.73630  0.51530  1.0000 -0.1735982961
F   F2        1.0  0.35830  0.73670  0.63610  1.0000 -0.1608574084
F   F3        1.0  0.38490  0.85870  0.51930  1.0000 -0.180916601
F   F4        1.0  0.24590  0.27300  0.98160  1.0000 -0.180916601
F   F5        1.0  0.20340  0.29760  0.86830  1.0000 -0.1608574084
F   F6        1.0  0.17800  0.17010  0.97770  1.0000 -0.1735982961
F   F7        1.0  0.64450  0.26370  0.48470  1.0000 -0.1735982961
F   F8        1.0  0.64170  0.26330  0.36390  1.0000 -0.1608574084
F   F9        1.0  0.61510  0.14130  0.48070  1.0000 -0.180916601
F   F10       1.0  0.75410  0.72700  0.01840  1.0000 -0.180916601
F   F11       1.0  0.79660  0.70240  0.13170  1.0000 -0.1608574084
F   F12       1.0  0.82200  0.82990  0.02230  1.0000 -0.1735982961
