# DDEC6 charges by PACMAN v1.1 (https://github.com/mtap-research/PACMAN-charge/)
data_2018[Cu][pcu]2[FSR]1
_chemical_formula_sum              "Cu6 H40 C40 N4 O26"
_cell_length_a       10.2056
_cell_length_b       7.9516
_cell_length_c       18.2418
_cell_angle_alpha    90
_cell_angle_beta     101.454
_cell_angle_gamma    90

_symmetry_space_group_name_H-M    "P 1"
_symmetry_Int_Tables_number       1

loop_
  _symmetry_equiv_pos_as_xyz
  'x, y, z'

loop_
  _atom_site_type_symbol
  _atom_site_label
  _atom_site_symmetry_multiplicity
  _atom_site_fract_x
  _atom_site_fract_y
  _atom_site_fract_z
  _atom_site_occupancy
  _atom_site_charge
Cu  Cu1       1.0  0.80075  0.28166  0.97059  1.0000 0.9076603818
Cu  Cu2       1.0  0.77148  0.27319  0.80034  1.0000 0.7680440712
Cu  Cu3       1.0  0.01437  0.18897  0.12245  1.0000 0.81243016
Cu  Cu4       1.0  0.19925  0.78166  0.02941  1.0000 0.9076603818
Cu  Cu5       1.0  0.22852  0.77319  0.19966  1.0000 0.7680440712
Cu  Cu6       1.0  0.98563  0.68897  0.87755  1.0000 0.81243016
H   H1        1.0  0.62940  0.79500  0.15180  1.0000 0.3330523836
H   H2        1.0  0.51200  0.28320  0.20630  1.0000 0.3188993204
H   H3        1.0  0.56700  0.10210  0.87260  1.0000 0.3969950694
H   H4        1.0  0.69110  0.97260  0.88110  1.0000 0.3969950694
H   H5        1.0  0.25950  0.31370  0.21870  1.0000 0.1103323045
H   H6        1.0  0.36800  0.31530  0.33870  1.0000 0.1304256388
H   H7        1.0  0.09820  0.05600  0.97390  1.0000 0.1103323045
H   H8        1.0  0.08570  0.31580  0.88820  1.0000 0.1193011006
H   H9        1.0  0.80990  0.20220  0.64790  1.0000 0.1193011006
H   H10       1.0  0.68950  0.15080  0.53080  1.0000 0.1412705126
H   H11       1.0  0.36080  0.17250  0.61290  1.0000 0.1412705126
H   H12       1.0  0.48710  0.22100  0.72900  1.0000 0.1103323045
H   H13       1.0  0.97350  0.04720  0.26670  1.0000 0.1304256388
H   H14       1.0  0.24770  0.11580  0.49010  1.0000 0.1103323045
H   H15       1.0  0.29860  0.29860  0.48070  1.0000 0.1193011006
H   H16       1.0  0.58430  0.95800  0.06650  1.0000 0.1193011006
H   H17       1.0  0.48240  0.20780  0.09840  1.0000 0.1193011006
H   H18       1.0  0.07230  0.03840  0.38890  1.0000 0.1304256388
H   H19       1.0  0.43570  0.00490  0.46900  1.0000 0.1193011006
H   H20       1.0  0.48440  0.17860  0.44440  1.0000 0.1193011006
H   H21       1.0  0.37060  0.29500  0.84820  1.0000 0.3330523836
H   H22       1.0  0.48800  0.78320  0.79370  1.0000 0.3188993204
H   H23       1.0  0.43300  0.60210  0.12740  1.0000 0.3969950694
H   H24       1.0  0.30890  0.47260  0.11890  1.0000 0.3969950694
H   H25       1.0  0.74050  0.81370  0.78130  1.0000 0.1103323045
H   H26       1.0  0.63200  0.81530  0.66130  1.0000 0.1304256388
H   H27       1.0  0.90180  0.55600  0.02610  1.0000 0.1103323045
H   H28       1.0  0.91430  0.81580  0.11180  1.0000 0.1193011006
H   H29       1.0  0.19010  0.70220  0.35210  1.0000 0.1193011006
H   H30       1.0  0.31050  0.65080  0.46920  1.0000 0.1412705126
H   H31       1.0  0.63920  0.67250  0.38710  1.0000 0.1412705126
H   H32       1.0  0.51290  0.72100  0.27100  1.0000 0.1103323045
H   H33       1.0  0.02650  0.54720  0.73330  1.0000 0.1304256388
H   H34       1.0  0.75230  0.61580  0.50990  1.0000 0.1103323045
H   H35       1.0  0.70140  0.79860  0.51930  1.0000 0.1193011006
H   H36       1.0  0.41570  0.45800  0.93350  1.0000 0.1193011006
H   H37       1.0  0.51760  0.70780  0.90160  1.0000 0.1193011006
H   H38       1.0  0.92770  0.53840  0.61110  1.0000 0.1304256388
H   H39       1.0  0.56430  0.50490  0.53100  1.0000 0.1193011006
H   H40       1.0  0.51560  0.67860  0.55560  1.0000 0.1193011006
C   C1        1.0  0.22130  0.25690  0.25370  1.0000 0.1017235833
C   C2        1.0  0.28650  0.25970  0.32590  1.0000 -0.2085387863
C   C3        1.0  0.17510  0.27110  0.02510  1.0000 0.5488270092
C   C4        1.0  0.06320  0.16940  0.97870  1.0000 0.0024234847
C   C5        1.0  0.01620  0.23900  0.89810  1.0000 -0.0026909126
C   C6        1.0  0.00180  0.10040  0.84020  1.0000 0.5606309193
C   C7        1.0  0.71720  0.19660  0.64110  1.0000 0.070604518
C   C8        1.0  0.64510  0.16500  0.57020  1.0000 -0.2202757639
C   C9        1.0  0.51270  0.15480  0.55770  1.0000 0.1487554777
C   C10       1.0  0.45330  0.17770  0.61900  1.0000 -0.2202757639
C   C11       1.0  0.52940  0.20800  0.68870  1.0000 0.0777866858
C   C12       1.0  0.05500  0.10180  0.28170  1.0000 0.070604518
C   C13       1.0  0.23350  0.18100  0.38020  1.0000 0.1598828676
C   C14       1.0  0.30010  0.18410  0.46260  1.0000 -0.2500177157
C   C15       1.0  0.73500  0.12190  0.10230  1.0000 0.585310744
C   C16       1.0  0.38530  0.99510  0.12870  1.0000 0.5606309193
C   C17       1.0  0.61990  0.01440  0.11410  1.0000 0.0024234847
C   C18       1.0  0.50620  0.11680  0.13490  1.0000 0.0164071134
C   C19       1.0  0.11280  0.09710  0.35530  1.0000 -0.2085387863
C   C20       1.0  0.43620  0.12480  0.47880  1.0000 -0.2500177157
C   C21       1.0  0.77870  0.75690  0.74630  1.0000 0.1017235833
C   C22       1.0  0.71350  0.75970  0.67410  1.0000 -0.2085387863
C   C23       1.0  0.82490  0.77110  0.97490  1.0000 0.5488270092
C   C24       1.0  0.93680  0.66940  0.02130  1.0000 0.0024234847
C   C25       1.0  0.98380  0.73900  0.10190  1.0000 -0.0026909126
C   C26       1.0  0.99820  0.60040  0.15980  1.0000 0.5606309193
C   C27       1.0  0.28280  0.69660  0.35890  1.0000 0.070604518
C   C28       1.0  0.35490  0.66500  0.42980  1.0000 -0.2202757639
C   C29       1.0  0.48730  0.65480  0.44230  1.0000 0.1487554777
C   C30       1.0  0.54670  0.67770  0.38100  1.0000 -0.2202757639
C   C31       1.0  0.47060  0.70800  0.31130  1.0000 0.0777866858
C   C32       1.0  0.94500  0.60180  0.71830  1.0000 0.070604518
C   C33       1.0  0.76650  0.68100  0.61980  1.0000 0.1598828676
C   C34       1.0  0.69990  0.68410  0.53740  1.0000 -0.2500177157
C   C35       1.0  0.26500  0.62190  0.89770  1.0000 0.585310744
C   C36       1.0  0.61470  0.49510  0.87130  1.0000 0.5606309193
C   C37       1.0  0.38010  0.51440  0.88590  1.0000 0.0024234847
C   C38       1.0  0.49380  0.61680  0.86510  1.0000 0.0164071134
C   C39       1.0  0.88720  0.59710  0.64470  1.0000 -0.2085387863
C   C40       1.0  0.56380  0.62480  0.52120  1.0000 -0.2500177157
N   N1        1.0  0.10670  0.17880  0.23000  1.0000 -0.2085387863
N   N2        1.0  0.66140  0.21930  0.70020  1.0000 -0.2254337055
N   N3        1.0  0.89330  0.67880  0.77000  1.0000 -0.2085387863
N   N4        1.0  0.33860  0.71930  0.29980  1.0000 -0.2202757639
O   O1        1.0  0.16620  0.29800  0.09420  1.0000 -0.5512004089
O   O2        1.0  0.95430  0.15320  0.01560  1.0000 -0.5396314693
O   O3        1.0  0.89630  0.33300  0.89090  1.0000 -0.5874262882
O   O4        1.0  0.84910  0.09440  0.14260  1.0000 -0.5004224412
O   O5        1.0  0.70590  0.22950  0.05020  1.0000 -0.5302937609
O   O6        1.0  0.33670  0.94930  0.06240  1.0000 -0.5302937609
O   O7        1.0  0.35440  0.95130  0.18830  1.0000 -0.5066118471
O   O8        1.0  0.90360  0.11270  0.78440  1.0000 -0.5512004089
O   O9        1.0  0.27090  0.32070  0.99940  1.0000 -0.5004224412
O   O10       1.0  0.08730  0.98450  0.84580  1.0000 -0.5512004089
O   O11       1.0  0.65700  0.88620  0.16930  1.0000 -0.4185633344
O   O12       1.0  0.54100  0.18690  0.20700  1.0000 -0.4185633344
O   O13       1.0  0.66310  0.08940  0.87860  1.0000 -0.8072424364
O   O14       1.0  0.83380  0.79800  0.90580  1.0000 -0.5512004089
O   O15       1.0  0.04570  0.65320  0.98440  1.0000 -0.5396314693
O   O16       1.0  0.10370  0.83300  0.10910  1.0000 -0.5874262882
O   O17       1.0  0.15090  0.59440  0.85740  1.0000 -0.5004224412
O   O18       1.0  0.29410  0.72950  0.94980  1.0000 -0.5302937609
O   O19       1.0  0.66330  0.44930  0.93760  1.0000 -0.5302937609
O   O20       1.0  0.64560  0.45130  0.81170  1.0000 -0.5066118471
O   O21       1.0  0.09640  0.61270  0.21560  1.0000 -0.5512004089
O   O22       1.0  0.72910  0.82070  0.00060  1.0000 -0.5066118471
O   O23       1.0  0.91270  0.48450  0.15420  1.0000 -0.5560536814
O   O24       1.0  0.34300  0.38620  0.83070  1.0000 -0.4185633344
O   O25       1.0  0.45900  0.68690  0.79300  1.0000 -0.4185633344
O   O26       1.0  0.33690  0.58940  0.12140  1.0000 -0.8072424364
