# DDEC6 charges by PACMAN v1.1 (https://github.com/mtap-research/PACMAN-charge/)
data_2018[Cd][nan]3[FSR]9
_chemical_formula_sum              "Cd12 H168 C240 S12 N24 O72"
_cell_length_a       12.161
_cell_length_b       23.73
_cell_length_c       25.54
_cell_angle_alpha    90
_cell_angle_beta     91.723
_cell_angle_gamma    90

_symmetry_space_group_name_H-M    "P 1"
_symmetry_Int_Tables_number       1

loop_
  _symmetry_equiv_pos_as_xyz
  'x, y, z'

loop_
  _atom_site_type_symbol
  _atom_site_label
  _atom_site_symmetry_multiplicity
  _atom_site_fract_x
  _atom_site_fract_y
  _atom_site_fract_z
  _atom_site_occupancy
  _atom_site_charge
Cd  Cd1       1.0  0.79080  0.96501  0.59272  1.0000 0.9322797416
Cd  Cd2       1.0  0.30728  0.45341  0.59334  1.0000 0.8706410287
Cd  Cd3       1.0  0.20920  0.46501  0.90728  1.0000 0.9322797416
Cd  Cd4       1.0  0.69272  0.95341  0.90666  1.0000 0.8706410287
Cd  Cd5       1.0  0.20920  0.03499  0.40728  1.0000 0.9322797416
Cd  Cd6       1.0  0.69272  0.54659  0.40666  1.0000 0.8706410287
Cd  Cd7       1.0  0.79080  0.53499  0.09272  1.0000 0.9322797416
Cd  Cd8       1.0  0.30728  0.04659  0.09334  1.0000 0.8706410287
Cd  Cd9       1.0  0.00000  0.00000  0.50000  1.0000 1.0916400908
Cd  Cd10      1.0  0.00000  0.50000  0.00000  1.0000 1.0916400908
Cd  Cd11      1.0  0.50000  0.50000  0.50000  1.0000 1.0916400908
Cd  Cd12      1.0  0.50000  0.00000  0.00000  1.0000 1.0916400908
H   H1        1.0  0.80669  0.11193  0.42579  1.0000 0.1302141075
H   H2        1.0  0.70304  0.17358  0.37212  1.0000 0.1302141075
H   H3        1.0  0.42260  0.12280  0.43885  1.0000 0.1302141075
H   H4        1.0  0.52387  0.05948  0.49245  1.0000 0.1220342029
H   H5        1.0  0.58468  0.29219  0.40706  1.0000 0.1220342029
H   H6        1.0  0.53363  0.35946  0.46766  1.0000 0.1220342029
H   H7        1.0  0.22652  0.29476  0.47050  1.0000 0.1134313396
H   H8        1.0  0.27669  0.22633  0.41004  1.0000 0.1302141075
H   H9        1.0  0.74486  0.80181  0.47257  1.0000 0.1220342029
H   H10       1.0  0.80409  0.73404  0.41586  1.0000 0.1379444776
H   H11       1.0  0.11219  0.80110  0.42344  1.0000 0.1220342029
H   H12       1.0  0.05341  0.86735  0.48413  1.0000 0.1302141075
H   H13       1.0  0.94349  0.61670  0.43072  1.0000 0.1302141075
H   H14       1.0  0.03981  0.55359  0.48602  1.0000 0.1220342029
H   H15       1.0  0.32526  0.63025  0.45530  1.0000 0.1220342029
H   H16       1.0  0.23037  0.69496  0.40035  1.0000 0.1220342029
H   H17       1.0  0.45078  0.60441  0.69856  1.0000 0.1220342029
H   H18       1.0  0.55927  0.67229  0.74011  1.0000 0.1302141075
H   H19       1.0  0.81109  0.63293  0.64708  1.0000 0.1220342029
H   H20       1.0  0.70036  0.56292  0.60758  1.0000 0.1220342029
H   H21       1.0  0.73055  0.66367  0.82902  1.0000 0.1220342029
H   H22       1.0  0.81238  0.59888  0.88655  1.0000 0.1220342029
H   H23       1.0  0.07943  0.59481  0.79434  1.0000 0.1220342029
H   H24       1.0  0.99466  0.65956  0.73761  1.0000 0.1302141075
H   H25       1.0  0.20736  0.41987  0.71390  1.0000 0.1220342029
H   H26       1.0  0.03176  0.45323  0.75042  1.0000 0.1302141075
H   H27       1.0  0.05048  0.50436  0.60316  1.0000 0.1134313396
H   H28       1.0  0.91936  0.55417  0.69799  1.0000 0.1220342029
H   H29       1.0  0.87502  0.52493  0.64510  1.0000 0.1302141075
H   H30       1.0  0.78529  0.54917  0.76288  1.0000 0.1134313396
H   H31       1.0  0.58909  0.41317  0.78131  1.0000 0.1302141075
H   H32       1.0  0.82575  0.40906  0.67262  1.0000 0.1302141075
H   H33       1.0  0.62916  0.55945  0.80629  1.0000 0.1302141075
H   H34       1.0  0.65613  0.51439  0.85140  1.0000 0.1379444776
H   H35       1.0  0.43934  0.50951  0.74294  1.0000 0.1302141075
H   H36       1.0  0.26453  0.48800  0.78077  1.0000 0.1220342029
H   H37       1.0  0.48340  0.49490  0.89823  1.0000 0.1134313396
H   H38       1.0  0.65740  0.31872  0.73822  1.0000 0.1379444776
H   H39       1.0  0.70777  0.32919  0.68183  1.0000 0.1220342029
H   H40       1.0  0.29429  0.33237  0.67186  1.0000 0.1302141075
H   H41       1.0  0.45290  0.29203  0.72498  1.0000 0.1379444776
H   H42       1.0  0.56171  0.41525  0.63442  1.0000 0.1134313396
H   H43       1.0  0.19331  0.61193  0.07421  1.0000 0.1302141075
H   H44       1.0  0.29696  0.67358  0.12788  1.0000 0.1302141075
H   H45       1.0  0.57740  0.62280  0.06115  1.0000 0.1302141075
H   H46       1.0  0.47613  0.55948  0.00755  1.0000 0.1220342029
H   H47       1.0  0.41532  0.79219  0.09294  1.0000 0.1220342029
H   H48       1.0  0.46637  0.85946  0.03234  1.0000 0.1220342029
H   H49       1.0  0.77348  0.79476  0.02950  1.0000 0.1134313396
H   H50       1.0  0.72331  0.72633  0.08996  1.0000 0.1302141075
H   H51       1.0  0.25514  0.30181  0.02743  1.0000 0.1220342029
H   H52       1.0  0.19591  0.23404  0.08414  1.0000 0.1379444776
H   H53       1.0  0.88781  0.30110  0.07656  1.0000 0.1220342029
H   H54       1.0  0.94659  0.36735  0.01587  1.0000 0.1302141075
H   H55       1.0  0.05651  0.11670  0.06928  1.0000 0.1302141075
H   H56       1.0  0.96019  0.05359  0.01398  1.0000 0.1220342029
H   H57       1.0  0.67474  0.13025  0.04470  1.0000 0.1220342029
H   H58       1.0  0.76963  0.19496  0.09965  1.0000 0.1220342029
H   H59       1.0  0.54922  0.10441  0.80144  1.0000 0.1220342029
H   H60       1.0  0.44073  0.17229  0.75989  1.0000 0.1302141075
H   H61       1.0  0.18891  0.13293  0.85292  1.0000 0.1220342029
H   H62       1.0  0.29964  0.06292  0.89242  1.0000 0.1220342029
H   H63       1.0  0.26945  0.16367  0.67098  1.0000 0.1220342029
H   H64       1.0  0.18762  0.09888  0.61345  1.0000 0.1220342029
H   H65       1.0  0.92057  0.09481  0.70566  1.0000 0.1220342029
H   H66       1.0  0.00534  0.15956  0.76239  1.0000 0.1302141075
H   H67       1.0  0.79264  0.91987  0.78610  1.0000 0.1220342029
H   H68       1.0  0.96824  0.95323  0.74958  1.0000 0.1302141075
H   H69       1.0  0.94952  0.00436  0.89684  1.0000 0.1134313396
H   H70       1.0  0.08064  0.05417  0.80201  1.0000 0.1220342029
H   H71       1.0  0.12498  0.02493  0.85490  1.0000 0.1302141075
H   H72       1.0  0.21471  0.04917  0.73712  1.0000 0.1134313396
H   H73       1.0  0.41091  0.91317  0.71869  1.0000 0.1302141075
H   H74       1.0  0.17425  0.90906  0.82738  1.0000 0.1302141075
H   H75       1.0  0.37084  0.05945  0.69371  1.0000 0.1302141075
H   H76       1.0  0.34387  0.01439  0.64860  1.0000 0.1379444776
H   H77       1.0  0.56066  0.00951  0.75706  1.0000 0.1302141075
H   H78       1.0  0.73547  0.98800  0.71923  1.0000 0.1220342029
H   H79       1.0  0.51660  0.99490  0.60177  1.0000 0.1134313396
H   H80       1.0  0.34260  0.81872  0.76178  1.0000 0.1379444776
H   H81       1.0  0.29223  0.82919  0.81817  1.0000 0.1220342029
H   H82       1.0  0.70571  0.83237  0.82814  1.0000 0.1302141075
H   H83       1.0  0.54710  0.79203  0.77502  1.0000 0.1379444776
H   H84       1.0  0.43829  0.91525  0.86558  1.0000 0.1134313396
H   H85       1.0  0.19331  0.88807  0.57421  1.0000 0.1302141075
H   H86       1.0  0.29696  0.82642  0.62788  1.0000 0.1302141075
H   H87       1.0  0.57740  0.87720  0.56115  1.0000 0.1302141075
H   H88       1.0  0.47613  0.94052  0.50755  1.0000 0.1220342029
H   H89       1.0  0.41532  0.70781  0.59294  1.0000 0.1220342029
H   H90       1.0  0.46637  0.64054  0.53234  1.0000 0.1220342029
H   H91       1.0  0.77348  0.70524  0.52950  1.0000 0.1134313396
H   H92       1.0  0.72331  0.77367  0.58996  1.0000 0.1302141075
H   H93       1.0  0.25514  0.19819  0.52743  1.0000 0.1220342029
H   H94       1.0  0.19591  0.26596  0.58414  1.0000 0.1379444776
H   H95       1.0  0.88781  0.19890  0.57656  1.0000 0.1220342029
H   H96       1.0  0.94659  0.13265  0.51587  1.0000 0.1302141075
H   H97       1.0  0.05651  0.38330  0.56928  1.0000 0.1302141075
H   H98       1.0  0.96019  0.44641  0.51398  1.0000 0.1220342029
H   H99       1.0  0.67474  0.36975  0.54470  1.0000 0.1220342029
H   H100      1.0  0.76963  0.30504  0.59965  1.0000 0.1220342029
H   H101      1.0  0.54922  0.39559  0.30144  1.0000 0.1220342029
H   H102      1.0  0.44073  0.32771  0.25989  1.0000 0.1302141075
H   H103      1.0  0.18891  0.36707  0.35292  1.0000 0.1220342029
H   H104      1.0  0.29964  0.43708  0.39242  1.0000 0.1220342029
H   H105      1.0  0.26945  0.33633  0.17098  1.0000 0.1220342029
H   H106      1.0  0.18762  0.40112  0.11345  1.0000 0.1220342029
H   H107      1.0  0.92057  0.40519  0.20566  1.0000 0.1220342029
H   H108      1.0  0.00534  0.34044  0.26239  1.0000 0.1302141075
H   H109      1.0  0.79264  0.58013  0.28610  1.0000 0.1220342029
H   H110      1.0  0.96824  0.54677  0.24958  1.0000 0.1302141075
H   H111      1.0  0.94952  0.49564  0.39684  1.0000 0.1134313396
H   H112      1.0  0.08064  0.44583  0.30201  1.0000 0.1220342029
H   H113      1.0  0.12498  0.47507  0.35490  1.0000 0.1302141075
H   H114      1.0  0.21471  0.45083  0.23712  1.0000 0.1134313396
H   H115      1.0  0.41091  0.58683  0.21869  1.0000 0.1302141075
H   H116      1.0  0.17425  0.59094  0.32738  1.0000 0.1302141075
H   H117      1.0  0.37084  0.44055  0.19371  1.0000 0.1302141075
H   H118      1.0  0.34387  0.48561  0.14860  1.0000 0.1379444776
H   H119      1.0  0.56066  0.49049  0.25706  1.0000 0.1302141075
H   H120      1.0  0.73547  0.51200  0.21923  1.0000 0.1220342029
H   H121      1.0  0.51660  0.50510  0.10177  1.0000 0.1134313396
H   H122      1.0  0.34260  0.68128  0.26178  1.0000 0.1379444776
H   H123      1.0  0.29223  0.67081  0.31817  1.0000 0.1220342029
H   H124      1.0  0.70571  0.66763  0.32814  1.0000 0.1302141075
H   H125      1.0  0.54710  0.70797  0.27502  1.0000 0.1379444776
H   H126      1.0  0.43829  0.58475  0.36558  1.0000 0.1134313396
H   H127      1.0  0.80669  0.38807  0.92579  1.0000 0.1302141075
H   H128      1.0  0.70304  0.32642  0.87212  1.0000 0.1302141075
H   H129      1.0  0.42260  0.37720  0.93885  1.0000 0.1302141075
H   H130      1.0  0.52387  0.44052  0.99245  1.0000 0.1220342029
H   H131      1.0  0.58468  0.20781  0.90706  1.0000 0.1220342029
H   H132      1.0  0.53363  0.14054  0.96766  1.0000 0.1220342029
H   H133      1.0  0.22652  0.20524  0.97050  1.0000 0.1134313396
H   H134      1.0  0.27669  0.27367  0.91004  1.0000 0.1302141075
H   H135      1.0  0.74486  0.69819  0.97257  1.0000 0.1220342029
H   H136      1.0  0.80409  0.76596  0.91586  1.0000 0.1379444776
H   H137      1.0  0.11219  0.69890  0.92344  1.0000 0.1220342029
H   H138      1.0  0.05341  0.63265  0.98413  1.0000 0.1302141075
H   H139      1.0  0.94349  0.88330  0.93072  1.0000 0.1302141075
H   H140      1.0  0.03981  0.94641  0.98602  1.0000 0.1220342029
H   H141      1.0  0.32526  0.86975  0.95530  1.0000 0.1220342029
H   H142      1.0  0.23037  0.80504  0.90035  1.0000 0.1220342029
H   H143      1.0  0.45078  0.89559  0.19856  1.0000 0.1220342029
H   H144      1.0  0.55927  0.82771  0.24011  1.0000 0.1302141075
H   H145      1.0  0.81109  0.86707  0.14708  1.0000 0.1220342029
H   H146      1.0  0.70036  0.93708  0.10758  1.0000 0.1220342029
H   H147      1.0  0.73055  0.83633  0.32902  1.0000 0.1220342029
H   H148      1.0  0.81238  0.90112  0.38655  1.0000 0.1220342029
H   H149      1.0  0.07943  0.90519  0.29434  1.0000 0.1220342029
H   H150      1.0  0.99466  0.84044  0.23761  1.0000 0.1302141075
H   H151      1.0  0.20736  0.08013  0.21390  1.0000 0.1220342029
H   H152      1.0  0.03176  0.04677  0.25042  1.0000 0.1302141075
H   H153      1.0  0.05048  0.99564  0.10316  1.0000 0.1134313396
H   H154      1.0  0.91936  0.94583  0.19799  1.0000 0.1220342029
H   H155      1.0  0.87502  0.97507  0.14510  1.0000 0.1302141075
H   H156      1.0  0.78529  0.95083  0.26288  1.0000 0.1134313396
H   H157      1.0  0.58909  0.08683  0.28131  1.0000 0.1302141075
H   H158      1.0  0.82575  0.09094  0.17262  1.0000 0.1302141075
H   H159      1.0  0.62916  0.94055  0.30629  1.0000 0.1220342029
H   H160      1.0  0.65613  0.98561  0.35140  1.0000 0.1379444776
H   H161      1.0  0.43934  0.99049  0.24294  1.0000 0.1302141075
H   H162      1.0  0.26453  0.01200  0.28077  1.0000 0.1220342029
H   H163      1.0  0.48340  0.00510  0.39823  1.0000 0.1134313396
H   H164      1.0  0.65740  0.18128  0.23822  1.0000 0.1379444776
H   H165      1.0  0.70777  0.17081  0.18183  1.0000 0.1220342029
H   H166      1.0  0.29429  0.16763  0.17186  1.0000 0.1302141075
H   H167      1.0  0.45290  0.20797  0.22498  1.0000 0.1379444776
H   H168      1.0  0.56171  0.08475  0.13442  1.0000 0.1134313396
C   C1        1.0  0.74200  0.04160  0.49950  1.0000 0.5793061612
C   C2        1.0  0.67370  0.07990  0.46400  1.0000 -0.0104592389
C   C3        1.0  0.72900  0.11380  0.42820  1.0000 -0.1088926399
C   C4        1.0  0.66740  0.15020  0.39660  1.0000 -0.101507174
C   C5        1.0  0.55570  0.15250  0.40050  1.0000 -0.0912628569
C   C6        1.0  0.50010  0.11990  0.43620  1.0000 -0.1088926399
C   C7        1.0  0.56020  0.08270  0.46810  1.0000 -0.1088926399
C   C8        1.0  0.43580  0.25260  0.40360  1.0000 -0.0729981342
C   C9        1.0  0.51220  0.29250  0.41990  1.0000 -0.101507174
C   C10       1.0  0.48080  0.33270  0.45530  1.0000 -0.0912628569
C   C11       1.0  0.37390  0.33550  0.47360  1.0000 -0.0286669618
C   C12       1.0  0.29870  0.29460  0.45730  1.0000 -0.0912628569
C   C13       1.0  0.32880  0.25370  0.42190  1.0000 -0.0912628569
C   C14       1.0  0.34030  0.37900  0.51130  1.0000 0.5677383079
C   C15       1.0  0.85450  0.88340  0.52310  1.0000 0.5677383079
C   C16       1.0  0.89300  0.84090  0.48540  1.0000 -0.0197572894
C   C17       1.0  0.82000  0.80100  0.46340  1.0000 -0.0912628569
C   C18       1.0  0.85400  0.76150  0.42940  1.0000 -0.101507174
C   C19       1.0  0.96320  0.76160  0.41460  1.0000 -0.0729981342
C   C20       1.0  0.03820  0.80110  0.43430  1.0000 -0.1088926399
C   C21       1.0  0.00300  0.84040  0.46990  1.0000 -0.0912628569
C   C22       1.0  0.07880  0.66100  0.41200  1.0000 -0.0794097351
C   C23       1.0  0.02090  0.61970  0.43590  1.0000 -0.101507174
C   C24       1.0  0.07860  0.58220  0.46820  1.0000 -0.101507174
C   C25       1.0  0.19100  0.58570  0.47470  1.0000 -0.0104592389
C   C26       1.0  0.24770  0.62750  0.45020  1.0000 -0.101507174
C   C27       1.0  0.19190  0.66610  0.41790  1.0000 -0.1263808476
C   C28       1.0  0.25380  0.54510  0.51010  1.0000 0.5793061612
C   C29       1.0  0.49870  0.53090  0.62150  1.0000 0.5677383079
C   C30       1.0  0.56640  0.57650  0.65010  1.0000 -0.0104592389
C   C31       1.0  0.52480  0.60950  0.68870  1.0000 -0.0912628569
C   C32       1.0  0.58810  0.64960  0.71310  1.0000 -0.1088926399
C   C33       1.0  0.69400  0.65640  0.69790  1.0000 -0.0794097351
C   C34       1.0  0.73840  0.62620  0.65820  1.0000 -0.1205422532
C   C35       1.0  0.67190  0.58540  0.63480  1.0000 -0.101507174
C   C36       1.0  0.85200  0.66420  0.77720  1.0000 -0.0912628569
C   C37       1.0  0.80070  0.64850  0.82180  1.0000 -0.1205422532
C   C38       1.0  0.84970  0.61070  0.85630  1.0000 -0.101507174
C   C39       1.0  0.95430  0.59020  0.84640  1.0000 -0.0104592389
C   C40       1.0  0.00800  0.60850  0.80130  1.0000 -0.101507174
C   C41       1.0  0.95760  0.64620  0.76740  1.0000 -0.1088926399
C   C42       1.0  0.00530  0.54800  0.88360  1.0000 0.5677383079
C   C43       1.0  0.15360  0.44200  0.69560  1.0000 -0.0197572894
C   C44       1.0  0.05700  0.45980  0.71610  1.0000 -0.101507174
C   C45       1.0  0.06930  0.48750  0.63600  1.0000 0.0941003954
C   C46       1.0  0.90520  0.51740  0.68080  1.0000 -0.1695198582
C   C47       1.0  0.81940  0.48600  0.71130  1.0000 0.1220342029
C   C48       1.0  0.76460  0.51220  0.75230  1.0000 -0.2324930856
C   C49       1.0  0.67810  0.48380  0.77830  1.0000 0.1302141075
C   C50       1.0  0.64890  0.43050  0.76450  1.0000 -0.2029652239
C   C51       1.0  0.70340  0.40070  0.72660  1.0000 0.1379444776
C   C52       1.0  0.78860  0.42870  0.69930  1.0000 -0.242324868
C   C53       1.0  0.62060  0.51940  0.81630  1.0000 -0.1766782941
C   C54       1.0  0.42650  0.50400  0.77910  1.0000 -0.1088926399
C   C55       1.0  0.33220  0.49230  0.79990  1.0000 -0.0427812876
C   C56       1.0  0.45010  0.49600  0.86410  1.0000 0.0989332704
C   C57       1.0  0.65870  0.34520  0.70830  1.0000 -0.1695198582
C   C58       1.0  0.36880  0.34430  0.67100  1.0000 -0.0197572894
C   C59       1.0  0.45560  0.32160  0.70000  1.0000 -0.0912628569
C   C60       1.0  0.51400  0.38910  0.65040  1.0000 0.0941003954
C   C61       1.0  0.25800  0.54160  0.00050  1.0000 0.5793061612
C   C62       1.0  0.32630  0.57990  0.03600  1.0000 -0.0104592389
C   C63       1.0  0.27100  0.61380  0.07180  1.0000 -0.1088926399
C   C64       1.0  0.33260  0.65020  0.10340  1.0000 -0.101507174
C   C65       1.0  0.44430  0.65250  0.09950  1.0000 -0.0912628569
C   C66       1.0  0.49990  0.61990  0.06380  1.0000 -0.1088926399
C   C67       1.0  0.43980  0.58270  0.03190  1.0000 -0.1088926399
C   C68       1.0  0.56420  0.75260  0.09640  1.0000 -0.0729981342
C   C69       1.0  0.48780  0.79250  0.08010  1.0000 -0.101507174
C   C70       1.0  0.51920  0.83270  0.04470  1.0000 -0.0912628569
C   C71       1.0  0.62610  0.83550  0.02640  1.0000 -0.0286669618
C   C72       1.0  0.70130  0.79460  0.04270  1.0000 -0.0912628569
C   C73       1.0  0.67120  0.75370  0.07810  1.0000 -0.0912628569
C   C74       1.0  0.65970  0.87900  0.98870  1.0000 0.5677383079
C   C75       1.0  0.14550  0.38340  0.97690  1.0000 0.5677383079
C   C76       1.0  0.10700  0.34090  0.01460  1.0000 -0.0197572894
C   C77       1.0  0.18000  0.30100  0.03660  1.0000 -0.0912628569
C   C78       1.0  0.14600  0.26150  0.07060  1.0000 -0.101507174
C   C79       1.0  0.03680  0.26160  0.08540  1.0000 -0.0729981342
C   C80       1.0  0.96180  0.30110  0.06570  1.0000 -0.1088926399
C   C81       1.0  0.99700  0.34040  0.03010  1.0000 -0.0912628569
C   C82       1.0  0.92120  0.16100  0.08800  1.0000 -0.0794097351
C   C83       1.0  0.97910  0.11970  0.06410  1.0000 -0.101507174
C   C84       1.0  0.92140  0.08220  0.03180  1.0000 -0.101507174
C   C85       1.0  0.80900  0.08570  0.02530  1.0000 -0.0104592389
C   C86       1.0  0.75230  0.12750  0.04980  1.0000 -0.101507174
C   C87       1.0  0.80810  0.16610  0.08210  1.0000 -0.1263808476
C   C88       1.0  0.74620  0.04510  0.98990  1.0000 0.5793061612
C   C89       1.0  0.50130  0.03090  0.87850  1.0000 0.5677383079
C   C90       1.0  0.43360  0.07650  0.84990  1.0000 -0.0104592389
C   C91       1.0  0.47520  0.10950  0.81130  1.0000 -0.0912628569
C   C92       1.0  0.41190  0.14960  0.78690  1.0000 -0.1088926399
C   C93       1.0  0.30600  0.15640  0.80210  1.0000 -0.0794097351
C   C94       1.0  0.26160  0.12620  0.84180  1.0000 -0.1205422532
C   C95       1.0  0.32810  0.08540  0.86520  1.0000 -0.101507174
C   C96       1.0  0.14800  0.16420  0.72280  1.0000 -0.0912628569
C   C97       1.0  0.19930  0.14850  0.67820  1.0000 -0.1205422532
C   C98       1.0  0.15030  0.11070  0.64370  1.0000 -0.101507174
C   C99       1.0  0.04570  0.09020  0.65360  1.0000 -0.0104592389
C   C100      1.0  0.99200  0.10850  0.69870  1.0000 -0.101507174
C   C101      1.0  0.04240  0.14620  0.73260  1.0000 -0.1088926399
C   C102      1.0  0.99470  0.04800  0.61640  1.0000 0.5677383079
C   C103      1.0  0.84640  0.94200  0.80440  1.0000 -0.0197572894
C   C104      1.0  0.94300  0.95980  0.78390  1.0000 -0.101507174
C   C105      1.0  0.93070  0.98750  0.86400  1.0000 0.0941003954
C   C106      1.0  0.09480  0.01740  0.81920  1.0000 -0.1695198582
C   C107      1.0  0.18060  0.98600  0.78870  1.0000 0.1220342029
C   C108      1.0  0.23540  0.01220  0.74770  1.0000 -0.2324930856
C   C109      1.0  0.32190  0.98380  0.72170  1.0000 0.1302141075
C   C110      1.0  0.35110  0.93050  0.73550  1.0000 -0.2029652239
C   C111      1.0  0.29660  0.90070  0.77340  1.0000 0.1379444776
C   C112      1.0  0.21140  0.92870  0.80070  1.0000 -0.242324868
C   C113      1.0  0.37940  0.01940  0.68370  1.0000 -0.1766782941
C   C114      1.0  0.57350  0.00400  0.72090  1.0000 -0.1088926399
C   C115      1.0  0.66780  0.99230  0.70010  1.0000 -0.0427812876
C   C116      1.0  0.54990  0.99600  0.63590  1.0000 0.0989332704
C   C117      1.0  0.34130  0.84520  0.79170  1.0000 -0.1695198582
C   C118      1.0  0.63120  0.84430  0.82900  1.0000 -0.0197572894
C   C119      1.0  0.54440  0.82160  0.80000  1.0000 -0.0912628569
C   C120      1.0  0.48600  0.88910  0.84960  1.0000 0.0941003954
C   C121      1.0  0.25800  0.95840  0.50050  1.0000 0.5793061612
C   C122      1.0  0.32630  0.92010  0.53600  1.0000 -0.0104592389
C   C123      1.0  0.27100  0.88620  0.57180  1.0000 -0.1088926399
C   C124      1.0  0.33260  0.84980  0.60340  1.0000 -0.101507174
C   C125      1.0  0.44430  0.84750  0.59950  1.0000 -0.0912628569
C   C126      1.0  0.49990  0.88010  0.56380  1.0000 -0.1088926399
C   C127      1.0  0.43980  0.91730  0.53190  1.0000 -0.1088926399
C   C128      1.0  0.56420  0.74740  0.59640  1.0000 -0.0729981342
C   C129      1.0  0.48780  0.70750  0.58010  1.0000 -0.101507174
C   C130      1.0  0.51920  0.66730  0.54470  1.0000 -0.0912628569
C   C131      1.0  0.62610  0.66450  0.52640  1.0000 -0.0286669618
C   C132      1.0  0.70130  0.70540  0.54270  1.0000 -0.0912628569
C   C133      1.0  0.67120  0.74630  0.57810  1.0000 -0.0912628569
C   C134      1.0  0.65970  0.62100  0.48870  1.0000 0.5677383079
C   C135      1.0  0.14550  0.11660  0.47690  1.0000 0.5677383079
C   C136      1.0  0.10700  0.15910  0.51460  1.0000 -0.0197572894
C   C137      1.0  0.18000  0.19900  0.53660  1.0000 -0.0912628569
C   C138      1.0  0.14600  0.23850  0.57060  1.0000 -0.101507174
C   C139      1.0  0.03680  0.23840  0.58540  1.0000 -0.0729981342
C   C140      1.0  0.96180  0.19890  0.56570  1.0000 -0.1088926399
C   C141      1.0  0.99700  0.15960  0.53010  1.0000 -0.0912628569
C   C142      1.0  0.92120  0.33900  0.58800  1.0000 -0.0794097351
C   C143      1.0  0.97910  0.38030  0.56410  1.0000 -0.101507174
C   C144      1.0  0.92140  0.41780  0.53180  1.0000 -0.101507174
C   C145      1.0  0.80900  0.41430  0.52530  1.0000 -0.0104592389
C   C146      1.0  0.75230  0.37250  0.54980  1.0000 -0.101507174
C   C147      1.0  0.80810  0.33390  0.58210  1.0000 -0.1263808476
C   C148      1.0  0.74620  0.45490  0.48990  1.0000 0.5793061612
C   C149      1.0  0.50130  0.46910  0.37850  1.0000 0.5677383079
C   C150      1.0  0.43360  0.42350  0.34990  1.0000 -0.0104592389
C   C151      1.0  0.47520  0.39050  0.31130  1.0000 -0.0912628569
C   C152      1.0  0.41190  0.35040  0.28690  1.0000 -0.1088926399
C   C153      1.0  0.30600  0.34360  0.30210  1.0000 -0.0794097351
C   C154      1.0  0.26160  0.37380  0.34180  1.0000 -0.1205422532
C   C155      1.0  0.32810  0.41460  0.36520  1.0000 -0.101507174
C   C156      1.0  0.14800  0.33580  0.22280  1.0000 -0.0912628569
C   C157      1.0  0.19930  0.35150  0.17820  1.0000 -0.1205422532
C   C158      1.0  0.15030  0.38930  0.14370  1.0000 -0.101507174
C   C159      1.0  0.04570  0.40980  0.15360  1.0000 -0.0104592389
C   C160      1.0  0.99200  0.39150  0.19870  1.0000 -0.101507174
C   C161      1.0  0.04240  0.35380  0.23260  1.0000 -0.1088926399
C   C162      1.0  0.99470  0.45200  0.11640  1.0000 0.5677383079
C   C163      1.0  0.84640  0.55800  0.30440  1.0000 -0.0197572894
C   C164      1.0  0.94300  0.54020  0.28390  1.0000 -0.101507174
C   C165      1.0  0.93070  0.51250  0.36400  1.0000 0.0941003954
C   C166      1.0  0.09480  0.48260  0.31920  1.0000 -0.1695198582
C   C167      1.0  0.18060  0.51400  0.28870  1.0000 0.1220342029
C   C168      1.0  0.23540  0.48780  0.24770  1.0000 -0.2324930856
C   C169      1.0  0.32190  0.51620  0.22170  1.0000 0.1302141075
C   C170      1.0  0.35110  0.56950  0.23550  1.0000 -0.2029652239
C   C171      1.0  0.29660  0.59930  0.27340  1.0000 0.1379444776
C   C172      1.0  0.21140  0.57130  0.30070  1.0000 -0.242324868
C   C173      1.0  0.37940  0.48060  0.18370  1.0000 -0.1766782941
C   C174      1.0  0.57350  0.49600  0.22090  1.0000 -0.1088926399
C   C175      1.0  0.66780  0.50770  0.20010  1.0000 -0.0427812876
C   C176      1.0  0.54990  0.50400  0.13590  1.0000 0.0989332704
C   C177      1.0  0.34130  0.65480  0.29170  1.0000 -0.1695198582
C   C178      1.0  0.63120  0.65570  0.32900  1.0000 -0.0197572894
C   C179      1.0  0.54440  0.67840  0.30000  1.0000 -0.0912628569
C   C180      1.0  0.48600  0.61090  0.34960  1.0000 0.0941003954
C   C181      1.0  0.74200  0.45840  0.99950  1.0000 0.5793061612
C   C182      1.0  0.67370  0.42010  0.96400  1.0000 -0.0104592389
C   C183      1.0  0.72900  0.38620  0.92820  1.0000 -0.1088926399
C   C184      1.0  0.66740  0.34980  0.89660  1.0000 -0.101507174
C   C185      1.0  0.55570  0.34750  0.90050  1.0000 -0.0912628569
C   C186      1.0  0.50010  0.38010  0.93620  1.0000 -0.1088926399
C   C187      1.0  0.56020  0.41730  0.96810  1.0000 -0.1088926399
C   C188      1.0  0.43580  0.24740  0.90360  1.0000 -0.0729981342
C   C189      1.0  0.51220  0.20750  0.91990  1.0000 -0.101507174
C   C190      1.0  0.48080  0.16730  0.95530  1.0000 -0.0912628569
C   C191      1.0  0.37390  0.16450  0.97360  1.0000 -0.0286669618
C   C192      1.0  0.29870  0.20540  0.95730  1.0000 -0.0912628569
C   C193      1.0  0.32880  0.24630  0.92190  1.0000 -0.0912628569
C   C194      1.0  0.34030  0.12100  0.01130  1.0000 0.5677383079
C   C195      1.0  0.85450  0.61660  0.02310  1.0000 0.5677383079
C   C196      1.0  0.89300  0.65910  0.98540  1.0000 -0.0197572894
C   C197      1.0  0.82000  0.69900  0.96340  1.0000 -0.0912628569
C   C198      1.0  0.85400  0.73850  0.92940  1.0000 -0.101507174
C   C199      1.0  0.96320  0.73840  0.91460  1.0000 -0.0729981342
C   C200      1.0  0.03820  0.69890  0.93430  1.0000 -0.1088926399
C   C201      1.0  0.00300  0.65960  0.96990  1.0000 -0.0912628569
C   C202      1.0  0.07880  0.83900  0.91200  1.0000 -0.0794097351
C   C203      1.0  0.02090  0.88030  0.93590  1.0000 -0.101507174
C   C204      1.0  0.07860  0.91780  0.96820  1.0000 -0.101507174
C   C205      1.0  0.19100  0.91430  0.97470  1.0000 -0.0104592389
C   C206      1.0  0.24770  0.87250  0.95020  1.0000 -0.101507174
C   C207      1.0  0.19190  0.83390  0.91790  1.0000 -0.1263808476
C   C208      1.0  0.25380  0.95490  0.01010  1.0000 0.5793061612
C   C209      1.0  0.49870  0.96910  0.12150  1.0000 0.5677383079
C   C210      1.0  0.56640  0.92350  0.15010  1.0000 -0.0104592389
C   C211      1.0  0.52480  0.89050  0.18870  1.0000 -0.101507174
C   C212      1.0  0.58810  0.85040  0.21310  1.0000 -0.1088926399
C   C213      1.0  0.69400  0.84360  0.19790  1.0000 -0.0794097351
C   C214      1.0  0.73840  0.87380  0.15820  1.0000 -0.1205422532
C   C215      1.0  0.67190  0.91460  0.13480  1.0000 -0.101507174
C   C216      1.0  0.85200  0.83580  0.27720  1.0000 -0.0912628569
C   C217      1.0  0.80070  0.85150  0.32180  1.0000 -0.1205422532
C   C218      1.0  0.84970  0.88930  0.35630  1.0000 -0.101507174
C   C219      1.0  0.95430  0.90980  0.34640  1.0000 -0.0104592389
C   C220      1.0  0.00800  0.89150  0.30130  1.0000 -0.101507174
C   C221      1.0  0.95760  0.85380  0.26740  1.0000 -0.1088926399
C   C222      1.0  0.00530  0.95200  0.38360  1.0000 0.5677383079
C   C223      1.0  0.15360  0.05800  0.19560  1.0000 -0.0197572894
C   C224      1.0  0.05700  0.04020  0.21610  1.0000 -0.101507174
C   C225      1.0  0.06930  0.01250  0.13600  1.0000 0.0941003954
C   C226      1.0  0.90520  0.98260  0.18080  1.0000 -0.1695198582
C   C227      1.0  0.81940  0.01400  0.21130  1.0000 0.1220342029
C   C228      1.0  0.76460  0.98780  0.25230  1.0000 -0.2324930856
C   C229      1.0  0.67810  0.01620  0.27830  1.0000 0.1302141075
C   C230      1.0  0.64890  0.06950  0.26450  1.0000 -0.2029652239
C   C231      1.0  0.70340  0.09930  0.22660  1.0000 0.1379444776
C   C232      1.0  0.78860  0.07130  0.19930  1.0000 -0.242324868
C   C233      1.0  0.62060  0.98060  0.31630  1.0000 -0.1766782941
C   C234      1.0  0.42650  0.99600  0.27910  1.0000 -0.1088926399
C   C235      1.0  0.33220  0.00770  0.29990  1.0000 -0.0427812876
C   C236      1.0  0.45010  0.00400  0.36410  1.0000 0.0989332704
C   C237      1.0  0.65870  0.15480  0.20830  1.0000 -0.1695198582
C   C238      1.0  0.36880  0.15570  0.17100  1.0000 -0.0197572894
C   C239      1.0  0.45560  0.17840  0.20000  1.0000 -0.0912628569
C   C240      1.0  0.51400  0.11090  0.15040  1.0000 0.0941003954
S   S1        1.0  0.47630  0.19891  0.36017  1.0000 0.9590184746
S   S2        1.0  0.00980  0.71057  0.36941  1.0000 0.9536569475
S   S3        1.0  0.78260  0.70730  0.73074  1.0000 0.9686096666
S   S4        1.0  0.52370  0.69891  0.13983  1.0000 0.9590184746
S   S5        1.0  0.99020  0.21057  0.13059  1.0000 0.9536569475
S   S6        1.0  0.21740  0.20730  0.76926  1.0000 0.9686096666
S   S7        1.0  0.52370  0.80109  0.63983  1.0000 0.9590184746
S   S8        1.0  0.99020  0.28943  0.63059  1.0000 0.9536569475
S   S9        1.0  0.21740  0.29270  0.26926  1.0000 0.9686096666
S   S10       1.0  0.47630  0.30109  0.86017  1.0000 0.9590184746
S   S11       1.0  0.00980  0.78943  0.86941  1.0000 0.9536569475
S   S12       1.0  0.78260  0.79270  0.23074  1.0000 0.9686096666
N   N1        1.0  0.16190  0.46030  0.64550  1.0000 -0.2823534337
N   N2        1.0  0.00500  0.48880  0.67690  1.0000 0.0436357476
N   N3        1.0  0.54580  0.35070  0.68500  1.0000 0.0436357476
N   N4        1.0  0.50360  0.50680  0.81970  1.0000 0.0495208225
N   N5        1.0  0.40780  0.38640  0.64120  1.0000 -0.2954423668
N   N6        1.0  0.34460  0.48710  0.85320  1.0000 -0.2923390807
N   N7        1.0  0.83810  0.96030  0.85450  1.0000 -0.2823534337
N   N8        1.0  0.99500  0.98880  0.82310  1.0000 0.0436357476
N   N9        1.0  0.45420  0.85070  0.81500  1.0000 0.0436357476
N   N10       1.0  0.49640  0.00680  0.68030  1.0000 0.0495208225
N   N11       1.0  0.59220  0.88640  0.85880  1.0000 -0.2923390807
N   N12       1.0  0.65540  0.98710  0.64680  1.0000 -0.2823534337
N   N13       1.0  0.83810  0.53970  0.35450  1.0000 -0.2823534337
N   N14       1.0  0.99500  0.51120  0.32310  1.0000 0.0436357476
N   N15       1.0  0.45420  0.64930  0.31500  1.0000 0.0436357476
N   N16       1.0  0.49640  0.49320  0.18030  1.0000 0.0495208225
N   N17       1.0  0.59220  0.61360  0.35880  1.0000 -0.2923390807
N   N18       1.0  0.65540  0.51290  0.14680  1.0000 -0.2823534337
N   N19       1.0  0.16190  0.03970  0.14550  1.0000 -0.2823534337
N   N20       1.0  0.00500  0.01120  0.17690  1.0000 0.0436357476
N   N21       1.0  0.54580  0.14930  0.18500  1.0000 0.0436357476
N   N22       1.0  0.50360  0.99320  0.31970  1.0000 0.0495208225
N   N23       1.0  0.40780  0.11360  0.14120  1.0000 -0.2923390807
N   N24       1.0  0.34460  0.01290  0.35320  1.0000 -0.2823534337
O   O1        1.0  0.84240  0.04890  0.50120  1.0000 -0.5617803575
O   O2        1.0  0.68950  0.00580  0.52570  1.0000 -0.5499399453
O   O3        1.0  0.55010  0.22330  0.32300  1.0000 -0.5282280566
O   O4        1.0  0.37980  0.16990  0.34210  1.0000 -0.5109149159
O   O5        1.0  0.40370  0.42030  0.52120  1.0000 -0.5845610143
O   O6        1.0  0.25350  0.37230  0.53510  1.0000 -0.5227149965
O   O7        1.0  0.91910  0.92290  0.53810  1.0000 -0.5868962871
O   O8        1.0  0.75990  0.87960  0.54020  1.0000 -0.5282280566
O   O9        1.0  0.08980  0.73530  0.33680  1.0000 -0.5109149159
O   O10       1.0  0.91460  0.68310  0.34590  1.0000 -0.5109149159
O   O11       1.0  0.35530  0.55350  0.51520  1.0000 -0.5739583911
O   O12       1.0  0.20310  0.50660  0.53270  1.0000 -0.5403502824
O   O13       1.0  0.54220  0.50470  0.58540  1.0000 -0.5868962871
O   O14       1.0  0.40100  0.52430  0.63710  1.0000 -0.5499399453
O   O15       1.0  0.86110  0.72700  0.69350  1.0000 -0.5109149159
O   O16       1.0  0.71550  0.74650  0.75710  1.0000 -0.4938023181
O   O17       1.0  0.10150  0.53210  0.87310  1.0000 -0.5739583911
O   O18       1.0  0.95190  0.53210  0.92100  1.0000 -0.5499399453
O   O19       1.0  0.15760  0.54890  0.99880  1.0000 -0.5617803575
O   O20       1.0  0.31050  0.50580  0.97430  1.0000 -0.5499399453
O   O21       1.0  0.44990  0.72330  0.17700  1.0000 -0.5403502824
O   O22       1.0  0.62020  0.66990  0.15790  1.0000 -0.5109149159
O   O23       1.0  0.59630  0.92030  0.97880  1.0000 -0.5845610143
O   O24       1.0  0.74650  0.87230  0.96490  1.0000 -0.5227149965
O   O25       1.0  0.08090  0.42290  0.96190  1.0000 -0.5868962871
O   O26       1.0  0.24010  0.37960  0.95980  1.0000 -0.5282280566
O   O27       1.0  0.91020  0.23530  0.16320  1.0000 -0.5109149159
O   O28       1.0  0.08540  0.18310  0.15410  1.0000 -0.5109149159
O   O29       1.0  0.64470  0.05350  0.98480  1.0000 -0.5739583911
O   O30       1.0  0.79690  0.00660  0.96730  1.0000 -0.5499399453
O   O31       1.0  0.45780  0.00470  0.91460  1.0000 -0.5868962871
O   O32       1.0  0.59900  0.02430  0.86290  1.0000 -0.5499399453
O   O33       1.0  0.13890  0.22700  0.80650  1.0000 -0.5109149159
O   O34       1.0  0.28450  0.24650  0.74290  1.0000 -0.4938023181
O   O35       1.0  0.89850  0.03210  0.62690  1.0000 -0.5739583911
O   O36       1.0  0.04810  0.03210  0.57900  1.0000 -0.5499399453
O   O37       1.0  0.15760  0.95110  0.49880  1.0000 -0.5617803575
O   O38       1.0  0.31050  0.99420  0.47430  1.0000 -0.5499399453
O   O39       1.0  0.44990  0.77670  0.67700  1.0000 -0.5403502824
O   O40       1.0  0.62020  0.83010  0.65790  1.0000 -0.5109149159
O   O41       1.0  0.59630  0.57970  0.47880  1.0000 -0.5845610143
O   O42       1.0  0.74650  0.62770  0.46490  1.0000 -0.5227149965
O   O43       1.0  0.08090  0.07710  0.46190  1.0000 -0.5868962871
O   O44       1.0  0.24010  0.12040  0.45980  1.0000 -0.5282280566
O   O45       1.0  0.91020  0.26470  0.66320  1.0000 -0.5109149159
O   O46       1.0  0.08540  0.31690  0.65410  1.0000 -0.5109149159
O   O47       1.0  0.64470  0.44650  0.48480  1.0000 -0.5739583911
O   O48       1.0  0.79690  0.49340  0.46730  1.0000 -0.5403502824
O   O49       1.0  0.45780  0.49530  0.41460  1.0000 -0.5868962871
O   O50       1.0  0.59900  0.47570  0.36290  1.0000 -0.5499399453
O   O51       1.0  0.13890  0.27300  0.30650  1.0000 -0.5109149159
O   O52       1.0  0.28450  0.25350  0.24290  1.0000 -0.4938023181
O   O53       1.0  0.89850  0.46790  0.12690  1.0000 -0.5739583911
O   O54       1.0  0.04810  0.46790  0.07900  1.0000 -0.5499399453
O   O55       1.0  0.84240  0.45110  0.00120  1.0000 -0.5617803575
O   O56       1.0  0.68950  0.49420  0.02570  1.0000 -0.5499399453
O   O57       1.0  0.55010  0.27670  0.82300  1.0000 -0.5403502824
O   O58       1.0  0.37980  0.33010  0.84210  1.0000 -0.5109149159
O   O59       1.0  0.40370  0.07970  0.02120  1.0000 -0.5845610143
O   O60       1.0  0.25350  0.12770  0.03510  1.0000 -0.5227149965
O   O61       1.0  0.91910  0.57710  0.03810  1.0000 -0.5868962871
O   O62       1.0  0.75990  0.62040  0.04020  1.0000 -0.5282280566
O   O63       1.0  0.08980  0.76470  0.83680  1.0000 -0.5109149159
O   O64       1.0  0.91460  0.81690  0.84590  1.0000 -0.5109149159
O   O65       1.0  0.35530  0.94650  0.01520  1.0000 -0.5739583911
O   O66       1.0  0.20310  0.99340  0.03270  1.0000 -0.5403502824
O   O67       1.0  0.54220  0.99530  0.08540  1.0000 -0.5868962871
O   O68       1.0  0.40100  0.97570  0.13710  1.0000 -0.5499399453
O   O69       1.0  0.86110  0.77300  0.19350  1.0000 -0.5109149159
O   O70       1.0  0.71550  0.75350  0.25710  1.0000 -0.4938023181
O   O71       1.0  0.10150  0.96790  0.37310  1.0000 -0.5739583911
O   O72       1.0  0.95190  0.96790  0.42100  1.0000 -0.5499399453
