# DDEC6 charges by PACMAN v1.1 (https://github.com/mtap-research/PACMAN-charge/)
data_2018[Cd][sql]2[FSR]4
_chemical_formula_sum              "Cd2 H64 C104 N16 Cl4 O32"
_cell_length_a       13.8485
_cell_length_b       15.0536
_cell_length_c       16.6819
_cell_angle_alpha    90
_cell_angle_beta     109.395
_cell_angle_gamma    90

_symmetry_space_group_name_H-M    "P 1"
_symmetry_Int_Tables_number       1

loop_
  _symmetry_equiv_pos_as_xyz
  'x, y, z'

loop_
  _atom_site_type_symbol
  _atom_site_label
  _atom_site_symmetry_multiplicity
  _atom_site_fract_x
  _atom_site_fract_y
  _atom_site_fract_z
  _atom_site_occupancy
  _atom_site_charge
Cd  Cd1       1.0  0.49666  0.66819  0.74592  1.0000 0.7822446287
Cd  Cd2       1.0  0.50334  0.16819  0.25408  1.0000 0.7822446287
H   H1        1.0  0.55710  0.46730  0.80380  1.0000 0.109349647
H   H2        1.0  0.49910  0.33850  0.84650  1.0000 0.1482653082
H   H3        1.0  0.22630  0.45500  0.80710  1.0000 0.1383359687
H   H4        1.0  0.29030  0.58340  0.76620  1.0000 0.109349647
H   H5        1.0  0.37650  0.27110  0.90850  1.0000 0.1214528412
H   H6        1.0  0.30020  0.25470  0.81400  1.0000 0.1310814425
H   H7        1.0  0.94020  0.23830  0.76960  1.0000 0.1383359687
H   H8        1.0  0.80180  0.27180  0.81530  1.0000 0.1310814425
H   H9        1.0  0.11180  0.44010  0.16380  1.0000 0.1214528412
H   H10       1.0  0.24750  0.41940  0.11300  1.0000 0.1214528412
H   H11       1.0  0.74890  0.48530  0.08620  1.0000 0.1310814425
H   H12       1.0  0.67370  0.44820  0.99760  1.0000 0.109349647
H   H13       1.0  0.54200  0.35860  0.00820  1.0000 0.1383359687
H   H14       1.0  0.46970  0.26550  0.08510  1.0000 0.109349647
H   H15       1.0  0.72780  0.26140  0.27650  1.0000 0.1000424965
H   H16       1.0  0.80690  0.35070  0.20440  1.0000 0.1383359687
H   H17       1.0  0.44370  0.53960  0.59320  1.0000 0.109349647
H   H18       1.0  0.50320  0.44100  0.51550  1.0000 0.1383359687
H   H19       1.0  0.79060  0.49850  0.66570  1.0000 0.1383359687
H   H20       1.0  0.72270  0.59900  0.73800  1.0000 0.1000424965
H   H21       1.0  0.63820  0.37300  0.48240  1.0000 0.109349647
H   H22       1.0  0.70880  0.33320  0.57150  1.0000 0.1310814425
H   H23       1.0  0.78650  0.55360  0.31370  1.0000 0.1310814425
H   H24       1.0  0.93290  0.58650  0.27520  1.0000 0.1310814425
H   H25       1.0  0.21570  0.36350  0.59950  1.0000 0.1214528412
H   H26       1.0  0.07160  0.33660  0.64180  1.0000 0.1310814425
H   H27       1.0  0.29120  0.57230  0.33050  1.0000 0.1310814425
H   H28       1.0  0.36300  0.54620  0.42450  1.0000 0.1214528412
H   H29       1.0  0.22170  0.36310  0.31570  1.0000 0.1383359687
H   H30       1.0  0.29140  0.24620  0.26400  1.0000 0.1000424965
H   H31       1.0  0.54840  0.37310  0.30170  1.0000 0.109349647
H   H32       1.0  0.48580  0.49770  0.34860  1.0000 0.1482653082
H   H33       1.0  0.44290  0.96730  0.19620  1.0000 0.109349647
H   H34       1.0  0.50090  0.83850  0.15350  1.0000 0.1482653082
H   H35       1.0  0.77370  0.95500  0.19290  1.0000 0.1383359687
H   H36       1.0  0.70970  0.08340  0.23380  1.0000 0.109349647
H   H37       1.0  0.62350  0.77110  0.09150  1.0000 0.1214528412
H   H38       1.0  0.69980  0.75470  0.18600  1.0000 0.1310814425
H   H39       1.0  0.05980  0.73830  0.23040  1.0000 0.1383359687
H   H40       1.0  0.19820  0.77180  0.18470  1.0000 0.1310814425
H   H41       1.0  0.88820  0.94010  0.83620  1.0000 0.1214528412
H   H42       1.0  0.75250  0.91940  0.88700  1.0000 0.1214528412
H   H43       1.0  0.25110  0.98530  0.91380  1.0000 0.1310814425
H   H44       1.0  0.32630  0.94820  0.00240  1.0000 0.109349647
H   H45       1.0  0.45800  0.85860  0.99180  1.0000 0.1310814425
H   H46       1.0  0.53030  0.76550  0.91490  1.0000 0.109349647
H   H47       1.0  0.27220  0.76140  0.72350  1.0000 0.1000424965
H   H48       1.0  0.19310  0.85070  0.79560  1.0000 0.1383359687
H   H49       1.0  0.55630  0.03960  0.40680  1.0000 0.109349647
H   H50       1.0  0.49680  0.94100  0.48450  1.0000 0.1383359687
H   H51       1.0  0.20940  0.99850  0.33430  1.0000 0.1383359687
H   H52       1.0  0.27730  0.09900  0.26200  1.0000 0.1000424965
H   H53       1.0  0.36180  0.87300  0.51760  1.0000 0.109349647
H   H54       1.0  0.29120  0.83320  0.42850  1.0000 0.1310814425
H   H55       1.0  0.21350  0.05360  0.68630  1.0000 0.1310814425
H   H56       1.0  0.06710  0.08650  0.72480  1.0000 0.1310814425
H   H57       1.0  0.78430  0.86350  0.40050  1.0000 0.1214528412
H   H58       1.0  0.92840  0.83660  0.35820  1.0000 0.1310814425
H   H59       1.0  0.70880  0.07230  0.66950  1.0000 0.1310814425
H   H60       1.0  0.63700  0.04620  0.57550  1.0000 0.1214528412
H   H61       1.0  0.77830  0.86310  0.68430  1.0000 0.1383359687
H   H62       1.0  0.70860  0.74620  0.73600  1.0000 0.1000424965
H   H63       1.0  0.45160  0.87310  0.69830  1.0000 0.109349647
H   H64       1.0  0.51420  0.99770  0.65140  1.0000 0.1482653082
C   C1        1.0  0.48880  0.46520  0.80440  1.0000 0.1000424965
C   C2        1.0  0.45460  0.38820  0.83030  1.0000 -0.1957597911
C   C3        1.0  0.35670  0.38230  0.83300  1.0000 0.1482653082
C   C4        1.0  0.29500  0.45640  0.80740  1.0000 -0.1894136846
C   C5        1.0  0.33333  0.53270  0.78230  1.0000 0.1000424965
C   C6        1.0  0.31950  0.29750  0.86180  1.0000 -0.1495746501
C   C7        1.0  0.25260  0.35090  0.97000  1.0000 0.4233049959
C   C8        1.0  0.16550  0.36230  0.00210  1.0000 -0.0604176405
C   C9        1.0  0.06760  0.33290  0.95110  1.0000 0.0373518565
C   C10       1.0  0.04940  0.29170  0.87170  1.0000 -0.0520443961
C   C11       1.0  0.13640  0.27750  0.83960  1.0000 0.4326616019
C   C12       1.0  0.95160  0.26780  0.82220  1.0000 -0.0520443961
C   C13       1.0  0.86910  0.28730  0.85020  1.0000 -0.0691356431
C   C14       1.0  0.88300  0.32880  0.92770  1.0000 -0.0691356431
C   C15       1.0  0.98300  0.35030  0.97990  1.0000 0.0318501689
C   C16       1.0  0.00080  0.39040  0.05940  1.0000 -0.0520443961
C   C17       1.0  0.09990  0.41460  0.10930  1.0000 -0.0794628531
C   C18       1.0  0.18060  0.40130  0.07940  1.0000 -0.0794628531
C   C19       1.0  0.79360  0.35040  0.95350  1.0000 0.435585028
C   C20       1.0  0.91260  0.41230  0.08860  1.0000 0.4326616019
C   C21       1.0  0.72740  0.43100  0.05140  1.0000 -0.1414867654
C   C22       1.0  0.68230  0.36580  0.09860  1.0000 0.1482653082
C   C23       1.0  0.58200  0.33900  0.06330  1.0000 -0.1814325168
C   C24       1.0  0.53940  0.28260  0.10950  1.0000 0.109349647
C   C25       1.0  0.68990  0.28010  0.22050  1.0000 0.0713770673
C   C26       1.0  0.73710  0.33470  0.17850  1.0000 -0.1814325168
C   C27       1.0  0.51560  0.53150  0.60810  1.0000 0.0910538367
C   C28       1.0  0.55030  0.47210  0.56160  1.0000 -0.1814325168
C   C29       1.0  0.65460  0.45790  0.58240  1.0000 0.1566790179
C   C30       1.0  0.71850  0.50610  0.64930  1.0000 -0.1814325168
C   C31       1.0  0.67740  0.56580  0.69250  1.0000 0.0910538367
C   C32       1.0  0.69300  0.38770  0.53630  1.0000 -0.1414867654
C   C33       1.0  0.76950  0.46190  0.44190  1.0000 0.4326616019
C   C34       1.0  0.88130  0.38510  0.57230  1.0000 0.4326616019
C   C35       1.0  0.97010  0.40160  0.54310  1.0000 -0.0520443961
C   C36       1.0  0.95880  0.45080  0.47060  1.0000 0.0318501689
C   C37       1.0  0.86140  0.48400  0.41900  1.0000 -0.0604176405
C   C38       1.0  0.85190  0.53250  0.34780  1.0000 -0.0794628531
C   C39       1.0  0.93950  0.55170  0.32430  1.0000 -0.0391622722
C   C40       1.0  0.03320  0.52000  0.37250  1.0000 -0.0604176405
C   C41       1.0  0.04530  0.46970  0.44600  1.0000 0.0373518565
C   C42       1.0  0.14050  0.43600  0.49570  1.0000 -0.0520443961
C   C43       1.0  0.15060  0.38650  0.56680  1.0000 -0.0794628531
C   C44       1.0  0.06450  0.36970  0.59170  1.0000 -0.0794628531
C   C45       1.0  0.12200  0.53900  0.34490  1.0000 0.4326616019
C   C46       1.0  0.23140  0.45270  0.47040  1.0000 0.4233049959
C   C47       1.0  0.30800  0.52430  0.37350  1.0000 -0.1495746501
C   C48       1.0  0.28890  0.36730  0.31290  1.0000 -0.1894136846
C   C49       1.0  0.33220  0.29760  0.28350  1.0000 0.0817590416
C   C50       1.0  0.48100  0.37130  0.30440  1.0000 0.0910538367
C   C51       1.0  0.44470  0.44590  0.33290  1.0000 -0.1957597911
C   C52       1.0  0.34660  0.44370  0.33820  1.0000 0.1566790179
C   C53       1.0  0.51120  0.96520  0.19560  1.0000 0.0910538367
C   C54       1.0  0.54540  0.88820  0.16970  1.0000 -0.1957597911
C   C55       1.0  0.64330  0.88230  0.16700  1.0000 0.1482653082
C   C56       1.0  0.70500  0.95640  0.19260  1.0000 -0.1894136846
C   C57       1.0  0.66667  0.03270  0.21770  1.0000 0.1000424965
C   C58       1.0  0.68050  0.79750  0.13820  1.0000 -0.1495746501
C   C59       1.0  0.74740  0.85090  0.03000  1.0000 0.4233049959
C   C60       1.0  0.83450  0.86230  0.99790  1.0000 -0.0604176405
C   C61       1.0  0.93240  0.83290  0.04890  1.0000 0.0373518565
C   C62       1.0  0.95060  0.79170  0.12830  1.0000 -0.0520443961
C   C63       1.0  0.86360  0.77750  0.16040  1.0000 0.4326616019
C   C64       1.0  0.04840  0.76780  0.17780  1.0000 -0.0520443961
C   C65       1.0  0.13090  0.78730  0.14980  1.0000 -0.0691356431
C   C66       1.0  0.11700  0.82880  0.07230  1.0000 -0.0691356431
C   C67       1.0  0.01700  0.85030  0.02010  1.0000 0.0318501689
C   C68       1.0  0.99920  0.89040  0.94060  1.0000 -0.0520443961
C   C69       1.0  0.90010  0.91460  0.89070  1.0000 -0.0794628531
C   C70       1.0  0.81940  0.90130  0.92060  1.0000 -0.0794628531
C   C71       1.0  0.20640  0.85040  0.04650  1.0000 0.435585028
C   C72       1.0  0.08740  0.91230  0.91140  1.0000 0.4326616019
C   C73       1.0  0.27260  0.93100  0.94860  1.0000 -0.1414867654
C   C74       1.0  0.31770  0.86580  0.90140  1.0000 0.1482653082
C   C75       1.0  0.41800  0.83900  0.93670  1.0000 -0.1814325168
C   C76       1.0  0.46060  0.78260  0.89050  1.0000 0.109349647
C   C77       1.0  0.31010  0.78010  0.77950  1.0000 0.0713770673
C   C78       1.0  0.26290  0.83470  0.82150  1.0000 -0.1814325168
C   C79       1.0  0.48440  0.03150  0.39190  1.0000 0.0910538367
C   C80       1.0  0.44970  0.97210  0.43840  1.0000 -0.1814325168
C   C81       1.0  0.34540  0.95790  0.41760  1.0000 0.1566790179
C   C82       1.0  0.28150  0.00610  0.35070  1.0000 -0.1814325168
C   C83       1.0  0.32260  0.06580  0.30750  1.0000 0.0910538367
C   C84       1.0  0.30700  0.88770  0.46370  1.0000 -0.1414867654
C   C85       1.0  0.23050  0.96190  0.55810  1.0000 0.4326616019
C   C86       1.0  0.11870  0.88510  0.42770  1.0000 0.4326616019
C   C87       1.0  0.02990  0.90160  0.45690  1.0000 -0.0520443961
C   C88       1.0  0.04120  0.95080  0.52940  1.0000 0.0318501689
C   C89       1.0  0.13860  0.98400  0.58100  1.0000 -0.0604176405
C   C90       1.0  0.14810  0.03250  0.65220  1.0000 -0.0794628531
C   C91       1.0  0.06050  0.05170  0.67570  1.0000 -0.0391622722
C   C92       1.0  0.96680  0.02000  0.62750  1.0000 -0.0604176405
C   C93       1.0  0.95470  0.96970  0.55400  1.0000 0.0373518565
C   C94       1.0  0.85950  0.93600  0.50430  1.0000 -0.0520443961
C   C95       1.0  0.84940  0.88650  0.43320  1.0000 -0.0794628531
C   C96       1.0  0.93550  0.86970  0.40830  1.0000 -0.0794628531
C   C97       1.0  0.87800  0.03900  0.65510  1.0000 0.4326616019
C   C98       1.0  0.76860  0.95270  0.52960  1.0000 0.4233049959
C   C99       1.0  0.69200  0.02430  0.62650  1.0000 -0.1495746501
C   C100      1.0  0.71110  0.86730  0.68710  1.0000 -0.1894136846
C   C101      1.0  0.66780  0.79760  0.71650  1.0000 0.0817590416
C   C102      1.0  0.51900  0.87130  0.69560  1.0000 0.0910538367
C   C103      1.0  0.55530  0.94590  0.66710  1.0000 -0.1957597911
C   C104      1.0  0.65340  0.94370  0.66180  1.0000 0.1566790179
N   N1        1.0  0.42950  0.53740  0.78000  1.0000 -0.2408936659
N   N2        1.0  0.23250  0.31020  0.89080  1.0000 -0.1814325168
N   N3        1.0  0.81560  0.39510  0.03170  1.0000 -0.1730833813
N   N4        1.0  0.59250  0.25220  0.18580  1.0000 -0.2485877514
N   N5        1.0  0.57630  0.57850  0.67280  1.0000 -0.2408936659
N   N6        1.0  0.78570  0.41530  0.51710  1.0000 -0.1814325168
N   N7        1.0  0.21660  0.50320  0.39660  1.0000 -0.1957597911
N   N8        1.0  0.42720  0.29700  0.28050  1.0000 -0.2408936659
N   N9        1.0  0.57050  0.03740  0.22000  1.0000 -0.2408936659
N   N10       1.0  0.76750  0.81020  0.10920  1.0000 -0.1814325168
N   N11       1.0  0.18440  0.89510  0.96830  1.0000 -0.1730833813
N   N12       1.0  0.40750  0.75220  0.81420  1.0000 -0.2485877514
N   N13       1.0  0.42370  0.07850  0.32720  1.0000 -0.2408936659
N   N14       1.0  0.21430  0.91530  0.48290  1.0000 -0.1814325168
N   N15       1.0  0.78340  0.00320  0.60340  1.0000 -0.1894136846
N   N16       1.0  0.57280  0.79700  0.71950  1.0000 -0.2408936659
Cl  Cl1       1.0  0.26477  0.68304  0.56328  1.0000 1.2830218137
Cl  Cl2       1.0  0.74045  0.62990  0.91666  1.0000 1.2830218137
Cl  Cl3       1.0  0.73523  0.18304  0.43672  1.0000 1.2830218137
Cl  Cl4       1.0  0.25955  0.12990  0.08334  1.0000 1.2830218137
O   O1        1.0  0.12720  0.24200  0.77290  1.0000 -0.4253454745
O   O2        1.0  0.33900  0.37700  0.00910  1.0000 -0.4522758484
O   O3        1.0  0.70590  0.33370  0.91000  1.0000 -0.4522758484
O   O4        1.0  0.92450  0.44440  0.15770  1.0000 -0.4365268588
O   O5        1.0  0.68330  0.48280  0.39790  1.0000 -0.4552915036
O   O6        1.0  0.88710  0.35070  0.63840  1.0000 -0.4078714638
O   O7        1.0  0.11710  0.58040  0.28160  1.0000 -0.4185817182
O   O8        1.0  0.31720  0.42450  0.50930  1.0000 -0.4522758484
O   O9        1.0  0.36710  0.71440  0.61400  1.0000 -0.5484084129
O   O10       1.0  0.25140  0.59640  0.59340  1.0000 -0.4970793068
O   O11       1.0  0.19040  0.74330  0.57260  1.0000 -0.4712759569
O   O12       1.0  0.25990  0.67980  0.47620  1.0000 -0.4779009834
O   O13       1.0  0.63310  0.65170  0.87820  1.0000 -0.5310288011
O   O14       1.0  0.79720  0.68540  0.87780  1.0000 -0.4850185454
O   O15       1.0  0.75430  0.53890  0.89880  1.0000 -0.4779009834
O   O16       1.0  0.76960  0.64640  0.00510  1.0000 -0.4712759569
O   O17       1.0  0.87280  0.74200  0.22710  1.0000 -0.4253454745
O   O18       1.0  0.66100  0.87700  0.99090  1.0000 -0.4522758484
O   O19       1.0  0.29410  0.83370  0.09000  1.0000 -0.4552915036
O   O20       1.0  0.07550  0.94440  0.84230  1.0000 -0.4365268588
O   O21       1.0  0.31670  0.98280  0.60210  1.0000 -0.4552915036
O   O22       1.0  0.11290  0.85070  0.36160  1.0000 -0.4078714638
O   O23       1.0  0.88290  0.08040  0.71840  1.0000 -0.4185817182
O   O24       1.0  0.68280  0.92450  0.49070  1.0000 -0.4522758484
O   O25       1.0  0.63290  0.21440  0.38600  1.0000 -0.5484084129
O   O26       1.0  0.74860  0.09640  0.40660  1.0000 -0.4970793068
O   O27       1.0  0.80960  0.24330  0.42740  1.0000 -0.4712759569
O   O28       1.0  0.74010  0.17980  0.52380  1.0000 -0.4779009834
O   O29       1.0  0.36690  0.15170  0.12180  1.0000 -0.5310288011
O   O30       1.0  0.20280  0.18540  0.12220  1.0000 -0.4850185454
O   O31       1.0  0.24570  0.03890  0.10120  1.0000 -0.4779009834
O   O32       1.0  0.23040  0.14640  0.99490  1.0000 -0.4712759569
