# DDEC6 charges by PACMAN v1.1 (https://github.com/mtap-research/PACMAN-charge/)
data_2018[Zn][nan]3[FSR]15
_chemical_formula_sum              "Zn6 H80 C132 N4 O30"
_cell_length_a       18.0674
_cell_length_b       18.0674
_cell_length_c       27.293
_cell_angle_alpha    58.055
_cell_angle_beta     121.945
_cell_angle_gamma    150.276

_symmetry_space_group_name_H-M    "P 1"
_symmetry_Int_Tables_number       1

loop_
  _symmetry_equiv_pos_as_xyz
  'x, y, z'

loop_
  _atom_site_type_symbol
  _atom_site_label
  _atom_site_symmetry_multiplicity
  _atom_site_fract_x
  _atom_site_fract_y
  _atom_site_fract_z
  _atom_site_occupancy
  _atom_site_charge
Zn  Zn1       1.0  0.82170  0.16576  0.50991  1.0000 0.8256804748
Zn  Zn2       1.0  0.16576  0.82170  0.99009  1.0000 0.8256804748
Zn  Zn3       1.0  0.17830  0.83424  0.49009  1.0000 0.8256804748
Zn  Zn4       1.0  0.83424  0.17830  0.00991  1.0000 0.8256804748
Zn  Zn5       1.0  0.50000  0.00000  0.50000  1.0000 1.0382951154
Zn  Zn6       1.0  0.00000  0.50000  0.00000  1.0000 1.0382951154
H   H1        1.0  0.69490  0.27770  0.54130  1.0000 0.1289900562
H   H2        1.0  0.72780  0.37940  0.58990  1.0000 0.1289900562
H   H3        1.0  0.12100  0.57820  0.67860  1.0000 0.1395006258
H   H4        1.0  0.08420  0.47220  0.63090  1.0000 0.1199835091
H   H5        1.0  0.85900  0.27100  0.83780  1.0000 0.1199835091
H   H6        1.0  0.86090  0.32770  0.73980  1.0000 0.1289900562
H   H7        1.0  0.03720  0.69440  0.72470  1.0000 0.1395006258
H   H8        1.0  0.03220  0.63420  0.82240  1.0000 0.1289900562
H   H9        1.0  0.33580  0.62380  0.61990  1.0000 0.1289900562
H   H10       1.0  0.26000  0.43040  0.69470  1.0000 0.1395006258
H   H11       1.0  0.61180  0.60060  0.69590  1.0000 0.1395006258
H   H12       1.0  0.69270  0.79870  0.62340  1.0000 0.1199835091
H   H13       1.0  0.11700  0.32600  0.58260  1.0000 0.110986356
H   H14       1.0  0.32040  0.42240  0.58530  1.0000 0.1395006258
H   H15       1.0  0.13720  0.32060  0.42590  1.0000 0.1395006258
H   H16       1.0  0.93750  0.22190  0.42910  1.0000 0.1016607946
H   H17       1.0  0.14310  0.14610  0.52670  1.0000 0.110986356
H   H18       1.0  0.47170  0.67130  0.48980  1.0000 0.110986356
H   H19       1.0  0.69360  0.92260  0.46870  1.0000 0.1199835091
H   H20       1.0  0.88590  0.01530  0.45730  1.0000 0.1016607946
H   H21       1.0  0.27770  0.69490  0.95870  1.0000 0.1289900562
H   H22       1.0  0.37940  0.72780  0.91010  1.0000 0.1289900562
H   H23       1.0  0.57820  0.12100  0.82140  1.0000 0.1395006258
H   H24       1.0  0.47220  0.08420  0.86910  1.0000 0.1199835091
H   H25       1.0  0.27100  0.85900  0.66220  1.0000 0.1199835091
H   H26       1.0  0.32770  0.86090  0.76020  1.0000 0.1289900562
H   H27       1.0  0.69440  0.03720  0.77530  1.0000 0.1395006258
H   H28       1.0  0.63420  0.03220  0.67760  1.0000 0.1289900562
H   H29       1.0  0.62380  0.33580  0.88010  1.0000 0.1289900562
H   H30       1.0  0.43040  0.26000  0.80530  1.0000 0.1395006258
H   H31       1.0  0.60060  0.61180  0.80410  1.0000 0.1395006258
H   H32       1.0  0.79870  0.69270  0.87660  1.0000 0.1199835091
H   H33       1.0  0.32600  0.11700  0.91740  1.0000 0.110986356
H   H34       1.0  0.42240  0.32040  0.91470  1.0000 0.1395006258
H   H35       1.0  0.32060  0.13720  0.07410  1.0000 0.1395006258
H   H36       1.0  0.22190  0.93750  0.07090  1.0000 0.1016607946
H   H37       1.0  0.14610  0.14310  0.97330  1.0000 0.110986356
H   H38       1.0  0.67130  0.47170  0.01020  1.0000 0.110986356
H   H39       1.0  0.92260  0.69360  0.03130  1.0000 0.1199835091
H   H40       1.0  0.01530  0.88590  0.04270  1.0000 0.1016607946
H   H41       1.0  0.30510  0.72230  0.45870  1.0000 0.1289900562
H   H42       1.0  0.27220  0.62060  0.41010  1.0000 0.1289900562
H   H43       1.0  0.87900  0.42180  0.32140  1.0000 0.1395006258
H   H44       1.0  0.91580  0.52780  0.36910  1.0000 0.1199835091
H   H45       1.0  0.14100  0.72900  0.16220  1.0000 0.1199835091
H   H46       1.0  0.13910  0.67230  0.26020  1.0000 0.1289900562
H   H47       1.0  0.96280  0.30560  0.27530  1.0000 0.1395006258
H   H48       1.0  0.96780  0.36580  0.17760  1.0000 0.1289900562
H   H49       1.0  0.66420  0.37620  0.38010  1.0000 0.1289900562
H   H50       1.0  0.74000  0.56960  0.30530  1.0000 0.1395006258
H   H51       1.0  0.38820  0.39940  0.30410  1.0000 0.1395006258
H   H52       1.0  0.30730  0.20130  0.37660  1.0000 0.1199835091
H   H53       1.0  0.88300  0.67400  0.41740  1.0000 0.110986356
H   H54       1.0  0.67960  0.57760  0.41470  1.0000 0.1395006258
H   H55       1.0  0.86280  0.67940  0.57410  1.0000 0.1395006258
H   H56       1.0  0.06250  0.77810  0.57090  1.0000 0.1016607946
H   H57       1.0  0.85690  0.85390  0.47330  1.0000 0.110986356
H   H58       1.0  0.52830  0.32870  0.51020  1.0000 0.110986356
H   H59       1.0  0.30640  0.07740  0.53130  1.0000 0.1199835091
H   H60       1.0  0.11410  0.98470  0.54270  1.0000 0.1016607946
H   H61       1.0  0.72230  0.30510  0.04130  1.0000 0.1289900562
H   H62       1.0  0.62060  0.27220  0.08990  1.0000 0.1289900562
H   H63       1.0  0.42180  0.87900  0.17860  1.0000 0.1395006258
H   H64       1.0  0.52780  0.91580  0.13090  1.0000 0.1199835091
H   H65       1.0  0.72900  0.14100  0.33780  1.0000 0.1199835091
H   H66       1.0  0.67230  0.13910  0.23980  1.0000 0.1289900562
H   H67       1.0  0.30560  0.96280  0.22470  1.0000 0.1395006258
H   H68       1.0  0.36580  0.96780  0.32240  1.0000 0.1289900562
H   H69       1.0  0.37620  0.66420  0.11990  1.0000 0.1289900562
H   H70       1.0  0.56960  0.74000  0.19470  1.0000 0.1395006258
H   H71       1.0  0.39940  0.38820  0.19590  1.0000 0.1395006258
H   H72       1.0  0.20130  0.30730  0.12340  1.0000 0.1199835091
H   H73       1.0  0.67400  0.88300  0.08260  1.0000 0.110986356
H   H74       1.0  0.57760  0.67960  0.08530  1.0000 0.1395006258
H   H75       1.0  0.67940  0.86280  0.92590  1.0000 0.1395006258
H   H76       1.0  0.77810  0.06250  0.92910  1.0000 0.1016607946
H   H77       1.0  0.85390  0.85690  0.02670  1.0000 0.110986356
H   H78       1.0  0.32870  0.52830  0.98980  1.0000 0.110986356
H   H79       1.0  0.07740  0.30640  0.96870  1.0000 0.1199835091
H   H80       1.0  0.98470  0.11410  0.95730  1.0000 0.1016607946
C   C1        1.0  0.86269  0.29271  0.55339  1.0000 0.5696152551
C   C2        1.0  0.88548  0.36312  0.58207  1.0000 -0.0412698891
C   C3        1.0  0.78029  0.33711  0.56941  1.0000 -0.0808527994
C   C4        1.0  0.79988  0.39832  0.59806  1.0000 -0.2090264543
C   C5        1.0  0.92844  0.48816  0.63901  1.0000 0.2283330774
C   C6        1.0  0.03419  0.51661  0.65120  1.0000 -0.198921645
C   C7        1.0  0.01191  0.45329  0.62250  1.0000 -0.0808527994
C   C8        1.0  0.93320  0.40160  0.90294  1.0000 0.5877056374
C   C9        1.0  0.94219  0.44461  0.83995  1.0000 -0.0511865075
C   C10       1.0  0.89381  0.35579  0.81480  1.0000 -0.0914759799
C   C11       1.0  0.89570  0.38950  0.75642  1.0000 -0.2214483218
C   C12       1.0  0.95042  0.51698  0.72360  1.0000 0.2502168893
C   C13       1.0  0.00095  0.60865  0.74760  1.0000 -0.2090264543
C   C14       1.0  0.99717  0.57203  0.80584  1.0000 -0.0914759799
C   C15       1.0  0.58325  0.86835  0.57140  1.0000 0.5877056374
C   C16       1.0  0.52434  0.73446  0.61548  1.0000 -0.0511865075
C   C17       1.0  0.39453  0.62227  0.63620  1.0000 -0.0914759799
C   C18       1.0  0.34847  0.50613  0.68080  1.0000 -0.198921645
C   C19       1.0  0.43520  0.50460  0.70410  1.0000 0.2283330774
C   C20       1.0  0.55887  0.60833  0.68180  1.0000 -0.2090264543
C   C21       1.0  0.60604  0.72556  0.63790  1.0000 -0.0914759799
C   C22       1.0  0.12024  0.32296  0.55090  1.0000 0.1016607946
C   C23       1.0  0.24384  0.38236  0.55280  1.0000 -0.198921645
C   C24       1.0  0.25135  0.38105  0.50550  1.0000 0.1199835091
C   C25       1.0  0.13504  0.32136  0.45892  1.0000 -0.198921645
C   C26       1.0  0.01558  0.26282  0.46104  1.0000 0.0808391227
C   C27       1.0  0.38076  0.44304  0.50410  1.0000 -0.0412698891
C   C28       1.0  0.36043  0.34377  0.51160  1.0000 0.039912385
C   C29       1.0  0.22291  0.18529  0.52420  1.0000 -0.1502577261
C   C30       1.0  0.51964  0.59856  0.49400  1.0000 0.039912385
C   C31       1.0  0.54760  0.70640  0.48610  1.0000 -0.1502577261
C   C32       1.0  0.67910  0.85590  0.47340  1.0000 -0.0808527994
C   C33       1.0  0.79580  0.91180  0.46720  1.0000 -0.1093466924
C   C34       1.0  0.29271  0.86269  0.94661  1.0000 0.5696152551
C   C35       1.0  0.36312  0.88548  0.91793  1.0000 -0.0412698891
C   C36       1.0  0.33711  0.78029  0.93059  1.0000 -0.0808527994
C   C37       1.0  0.39832  0.79988  0.90194  1.0000 -0.2090264543
C   C38       1.0  0.48816  0.92844  0.86099  1.0000 0.2283330774
C   C39       1.0  0.51661  0.03419  0.84880  1.0000 -0.198921645
C   C40       1.0  0.45329  0.01191  0.87750  1.0000 -0.0808527994
C   C41       1.0  0.40160  0.93320  0.59706  1.0000 0.5877056374
C   C42       1.0  0.44461  0.94219  0.66005  1.0000 -0.0511865075
C   C43       1.0  0.35579  0.89381  0.68520  1.0000 -0.0914759799
C   C44       1.0  0.38950  0.89570  0.74358  1.0000 -0.2214483218
C   C45       1.0  0.51698  0.95042  0.77640  1.0000 0.2502168893
C   C46       1.0  0.60865  0.00095  0.75240  1.0000 -0.2090264543
C   C47       1.0  0.57203  0.99717  0.69416  1.0000 -0.0914759799
C   C48       1.0  0.86835  0.58325  0.92860  1.0000 0.5877056374
C   C49       1.0  0.73446  0.52434  0.88452  1.0000 -0.0511865075
C   C50       1.0  0.62227  0.39453  0.86380  1.0000 -0.0914759799
C   C51       1.0  0.50613  0.34847  0.81920  1.0000 -0.198921645
C   C52       1.0  0.50460  0.43520  0.79590  1.0000 0.2283330774
C   C53       1.0  0.60833  0.55887  0.81820  1.0000 -0.2090264543
C   C54       1.0  0.72556  0.60604  0.86210  1.0000 -0.0914759799
C   C55       1.0  0.32296  0.12024  0.94910  1.0000 0.1016607946
C   C56       1.0  0.38236  0.24384  0.94720  1.0000 -0.198921645
C   C57       1.0  0.38105  0.25135  0.99450  1.0000 0.1199835091
C   C58       1.0  0.32136  0.13504  0.04108  1.0000 -0.198921645
C   C59       1.0  0.26282  0.01558  0.03896  1.0000 0.0808391227
C   C60       1.0  0.44304  0.38076  0.99590  1.0000 -0.0412698891
C   C61       1.0  0.34377  0.36043  0.98840  1.0000 0.039912385
C   C62       1.0  0.18529  0.22291  0.97580  1.0000 -0.1502577261
C   C63       1.0  0.59856  0.51964  0.00600  1.0000 0.039912385
C   C64       1.0  0.70640  0.54760  0.01390  1.0000 -0.1502577261
C   C65       1.0  0.85590  0.67910  0.02660  1.0000 -0.0808527994
C   C66       1.0  0.91180  0.79580  0.03280  1.0000 -0.1093466924
C   C67       1.0  0.13731  0.70729  0.44661  1.0000 0.5696152551
C   C68       1.0  0.11452  0.63688  0.41793  1.0000 -0.0412698891
C   C69       1.0  0.21971  0.66289  0.43059  1.0000 -0.0808527994
C   C70       1.0  0.20012  0.60168  0.40194  1.0000 -0.2090264543
C   C71       1.0  0.07156  0.51184  0.36099  1.0000 0.2283330774
C   C72       1.0  0.96581  0.48339  0.34880  1.0000 -0.198921645
C   C73       1.0  0.98809  0.54671  0.37750  1.0000 -0.0808527994
C   C74       1.0  0.06680  0.59840  0.09706  1.0000 0.5877056374
C   C75       1.0  0.05781  0.55539  0.16005  1.0000 -0.0511865075
C   C76       1.0  0.10619  0.64421  0.18520  1.0000 -0.0914759799
C   C77       1.0  0.10430  0.61050  0.24358  1.0000 -0.2214483218
C   C78       1.0  0.04958  0.48302  0.27640  1.0000 0.2502168893
C   C79       1.0  0.99905  0.39135  0.25240  1.0000 -0.2090264543
C   C80       1.0  0.00283  0.42797  0.19416  1.0000 -0.0914759799
C   C81       1.0  0.41675  0.13165  0.42860  1.0000 0.5877056374
C   C82       1.0  0.47566  0.26554  0.38452  1.0000 -0.0511865075
C   C83       1.0  0.60547  0.37773  0.36380  1.0000 -0.0914759799
C   C84       1.0  0.65153  0.49387  0.31920  1.0000 -0.198921645
C   C85       1.0  0.56480  0.49540  0.29590  1.0000 0.2283330774
C   C86       1.0  0.44113  0.39167  0.31820  1.0000 -0.2090264543
C   C87       1.0  0.39396  0.27444  0.36210  1.0000 -0.0914759799
C   C88       1.0  0.87976  0.67704  0.44910  1.0000 0.1016607946
C   C89       1.0  0.75616  0.61764  0.44720  1.0000 -0.198921645
C   C90       1.0  0.74865  0.61895  0.49450  1.0000 0.1199835091
C   C91       1.0  0.86496  0.67864  0.54108  1.0000 -0.198921645
C   C92       1.0  0.98442  0.73718  0.53896  1.0000 0.0808391227
C   C93       1.0  0.61924  0.55696  0.49590  1.0000 -0.0412698891
C   C94       1.0  0.63957  0.65623  0.48840  1.0000 0.039912385
C   C95       1.0  0.77709  0.81471  0.47580  1.0000 -0.1502577261
C   C96       1.0  0.48036  0.40144  0.50600  1.0000 0.039912385
C   C97       1.0  0.45240  0.29360  0.51390  1.0000 -0.1502577261
C   C98       1.0  0.32090  0.14410  0.52660  1.0000 -0.0808527994
C   C99       1.0  0.20420  0.08820  0.53280  1.0000 -0.1093466924
C   C100      1.0  0.70729  0.13731  0.05339  1.0000 0.5696152551
C   C101      1.0  0.63688  0.11452  0.08207  1.0000 -0.0412698891
C   C102      1.0  0.66289  0.21971  0.06941  1.0000 -0.0808527994
C   C103      1.0  0.60168  0.20012  0.09806  1.0000 -0.2090264543
C   C104      1.0  0.51184  0.07156  0.13901  1.0000 0.2283330774
C   C105      1.0  0.48339  0.96581  0.15120  1.0000 -0.198921645
C   C106      1.0  0.54671  0.98809  0.12250  1.0000 -0.0808527994
C   C107      1.0  0.59840  0.06680  0.40294  1.0000 0.5877056374
C   C108      1.0  0.55539  0.05781  0.33995  1.0000 -0.0511865075
C   C109      1.0  0.64421  0.10619  0.31480  1.0000 -0.0914759799
C   C110      1.0  0.61050  0.10430  0.25642  1.0000 -0.2214483218
C   C111      1.0  0.48302  0.04958  0.22360  1.0000 0.2502168893
C   C112      1.0  0.39135  0.99905  0.24760  1.0000 -0.2090264543
C   C113      1.0  0.42797  0.00283  0.30584  1.0000 -0.0914759799
C   C114      1.0  0.13165  0.41675  0.07140  1.0000 0.5877056374
C   C115      1.0  0.26554  0.47566  0.11548  1.0000 -0.0511865075
C   C116      1.0  0.37773  0.60547  0.13620  1.0000 -0.0914759799
C   C117      1.0  0.49387  0.65153  0.18080  1.0000 -0.198921645
C   C118      1.0  0.49540  0.56480  0.20410  1.0000 0.2283330774
C   C119      1.0  0.39167  0.44113  0.18180  1.0000 -0.2090264543
C   C120      1.0  0.27444  0.39396  0.13790  1.0000 -0.0914759799
C   C121      1.0  0.67704  0.87976  0.05090  1.0000 0.1016607946
C   C122      1.0  0.61764  0.75616  0.05280  1.0000 -0.198921645
C   C123      1.0  0.61895  0.74865  0.00550  1.0000 0.1199835091
C   C124      1.0  0.67864  0.86496  0.95892  1.0000 -0.198921645
C   C125      1.0  0.73718  0.98442  0.96104  1.0000 0.0808391227
C   C126      1.0  0.55696  0.61924  0.00410  1.0000 -0.0412698891
C   C127      1.0  0.65623  0.63957  0.01160  1.0000 0.039912385
C   C128      1.0  0.81471  0.77709  0.02420  1.0000 -0.1502577261
C   C129      1.0  0.40144  0.48036  0.99400  1.0000 0.039912385
C   C130      1.0  0.29360  0.45240  0.98610  1.0000 -0.1502577261
C   C131      1.0  0.14410  0.32090  0.97340  1.0000 -0.0808527994
C   C132      1.0  0.08820  0.20420  0.96720  1.0000 -0.1093466924
N   N1        1.0  0.00629  0.26191  0.50655  1.0000 -0.2303675787
N   N2        1.0  0.26191  0.00629  0.99345  1.0000 -0.2303675787
N   N3        1.0  0.99371  0.73809  0.49345  1.0000 -0.2303675787
N   N4        1.0  0.73809  0.99371  0.00655  1.0000 -0.2303675787
O   O1        1.0  0.74287  0.20253  0.51786  1.0000 -0.5474906386
O   O2        1.0  0.96164  0.32156  0.56428  1.0000 -0.517123674
O   O3        1.0  0.95065  0.55735  0.66411  1.0000 -0.2303675787
O   O4        1.0  0.87970  0.28150  0.93052  1.0000 -0.5606417702
O   O5        1.0  0.97663  0.48497  0.92285  1.0000 -0.5405486719
O   O6        1.0  0.49842  0.86318  0.54544  1.0000 -0.5474906386
O   O7        1.0  0.71690  0.97730  0.56384  1.0000 -0.5405486719
O   O8        1.0  0.20253  0.74287  0.98214  1.0000 -0.5474906386
O   O9        1.0  0.32156  0.96164  0.93572  1.0000 -0.517123674
O   O10       1.0  0.55735  0.95065  0.83589  1.0000 -0.2303675787
O   O11       1.0  0.28150  0.87970  0.56948  1.0000 -0.5606417702
O   O12       1.0  0.48497  0.97663  0.57715  1.0000 -0.5405486719
O   O13       1.0  0.86318  0.49842  0.95456  1.0000 -0.5474906386
O   O14       1.0  0.97730  0.71690  0.93616  1.0000 -0.5405486719
O   O15       1.0  0.25713  0.79747  0.48214  1.0000 -0.5474906386
O   O16       1.0  0.03836  0.67844  0.43572  1.0000 -0.517123674
O   O17       1.0  0.04935  0.44265  0.33589  1.0000 -0.2303675787
O   O18       1.0  0.12030  0.71850  0.06948  1.0000 -0.5606417702
O   O19       1.0  0.02337  0.51503  0.07715  1.0000 -0.5405486719
O   O20       1.0  0.50158  0.13682  0.45456  1.0000 -0.5474906386
O   O21       1.0  0.28310  0.02270  0.43616  1.0000 -0.5405486719
O   O22       1.0  0.79747  0.25713  0.01786  1.0000 -0.5474906386
O   O23       1.0  0.67844  0.03836  0.06428  1.0000 -0.517123674
O   O24       1.0  0.44265  0.04935  0.16411  1.0000 -0.2303675787
O   O25       1.0  0.71850  0.12030  0.43052  1.0000 -0.5606417702
O   O26       1.0  0.51503  0.02337  0.42285  1.0000 -0.5405486719
O   O27       1.0  0.13682  0.50158  0.04544  1.0000 -0.5474906386
O   O28       1.0  0.02270  0.28310  0.06384  1.0000 -0.5405486719
O   O29       1.0  0.38830  0.38830  0.75000  1.0000 -0.2303675787
O   O30       1.0  0.61170  0.61170  0.25000  1.0000 -0.2303675787
