# DDEC6 charges by PACMAN v1.1 (https://github.com/mtap-research/PACMAN-charge/)
data_2018[Cu][sql]2[FSR]3
_chemical_formula_sum              "Cu2 H28 C32 N4 O8"
_cell_length_a       10.1574
_cell_length_b       10.7464
_cell_length_c       11.0692
_cell_angle_alpha    85.104
_cell_angle_beta     80.598
_cell_angle_gamma    62.077

_symmetry_space_group_name_H-M    "P 1"
_symmetry_Int_Tables_number       1

loop_
  _symmetry_equiv_pos_as_xyz
  'x, y, z'

loop_
  _atom_site_type_symbol
  _atom_site_label
  _atom_site_symmetry_multiplicity
  _atom_site_fract_x
  _atom_site_fract_y
  _atom_site_fract_z
  _atom_site_occupancy
  _atom_site_charge
Cu  Cu1       1.0  0.44640  0.41950  0.12252  1.0000 0.7728094018
Cu  Cu2       1.0  0.55360  0.58050  0.87748  1.0000 0.7728094018
H   H1        1.0  0.72070  0.39040  0.20150  1.0000 0.1075549281
H   H2        1.0  0.79720  0.48090  0.34110  1.0000 0.1368395413
H   H3        1.0  0.61980  0.65460  0.47250  1.0000 0.1176367527
H   H4        1.0  0.36620  0.73750  0.45890  1.0000 0.1324475414
H   H5        1.0  0.29830  0.64360  0.31490  1.0000 0.1176367527
H   H6        1.0  0.57000  0.19910  0.93530  1.0000 0.1075549281
H   H7        1.0  0.49100  0.08910  0.81440  1.0000 0.1324475414
H   H8        1.0  0.23520  0.15500  0.83290  1.0000 0.1176367527
H   H9        1.0  0.07020  0.32660  0.97030  1.0000 0.1368395413
H   H10       1.0  0.15860  0.42990  0.08730  1.0000 0.1176367527
H   H11       1.0  0.64440  0.03280  0.34450  1.0000 0.1368395413
H   H12       1.0  0.36360  0.12040  0.47990  1.0000 0.1176367527
H   H13       1.0  0.21640  0.82960  0.92760  1.0000 0.1368395413
H   H14       1.0  0.96690  0.92520  0.10330  1.0000 0.1176367527
H   H15       1.0  0.27930  0.60960  0.79850  1.0000 0.1075549281
H   H16       1.0  0.20280  0.51910  0.65890  1.0000 0.1368395413
H   H17       1.0  0.38020  0.34540  0.52750  1.0000 0.1176367527
H   H18       1.0  0.63380  0.26250  0.54110  1.0000 0.1324475414
H   H19       1.0  0.70170  0.35640  0.68510  1.0000 0.1176367527
H   H20       1.0  0.43000  0.80090  0.06470  1.0000 0.1075549281
H   H21       1.0  0.50900  0.91090  0.18560  1.0000 0.1324475414
H   H22       1.0  0.76480  0.84500  0.16710  1.0000 0.1176367527
H   H23       1.0  0.92980  0.67340  0.02970  1.0000 0.1368395413
H   H24       1.0  0.84140  0.57010  0.91270  1.0000 0.1176367527
H   H25       1.0  0.35560  0.96720  0.65550  1.0000 0.1368395413
H   H26       1.0  0.63640  0.87960  0.52010  1.0000 0.1176367527
H   H27       1.0  0.78360  0.17040  0.07240  1.0000 0.1368395413
H   H28       1.0  0.03310  0.07480  0.89670  1.0000 0.1176367527
C   C1        1.0  0.64850  0.46160  0.25340  1.0000 0.0796610099
C   C2        1.0  0.69520  0.51500  0.33750  1.0000 -0.1429314786
C   C3        1.0  0.59040  0.61800  0.41500  1.0000 -0.0339388412
C   C4        1.0  0.43970  0.66720  0.40690  1.0000 -0.1429314786
C   C5        1.0  0.39970  0.61050  0.32040  1.0000 0.0683760799
C   C6        1.0  0.46790  0.22550  0.94160  1.0000 0.0796610099
C   C7        1.0  0.42170  0.15850  0.86910  1.0000 -0.1429314786
C   C8        1.0  0.27020  0.19750  0.88030  1.0000 -0.0339388412
C   C9        1.0  0.17280  0.29910  0.96160  1.0000 -0.1343497031
C   C10       1.0  0.22610  0.36140  0.03110  1.0000 0.0796610099
C   C11       1.0  0.47110  0.22200  0.28930  1.0000 0.5804373181
C   C12       1.0  0.54250  0.09330  0.36500  1.0000 -0.2483567663
C   C13       1.0  0.46610  0.06100  0.46150  1.0000 -0.079151056
C   C14       1.0  0.21520  0.68720  0.06810  1.0000 0.5877221978
C   C15       1.0  0.15770  0.82230  0.99890  1.0000 -0.263988226
C   C16       1.0  0.02700  0.93320  0.03320  1.0000 -0.0584558558
C   C17       1.0  0.35150  0.53840  0.74660  1.0000 0.0796610099
C   C18       1.0  0.30480  0.48500  0.66250  1.0000 -0.1451628947
C   C19       1.0  0.40960  0.38200  0.58500  1.0000 -0.0339388412
C   C20       1.0  0.56030  0.33280  0.59310  1.0000 -0.1429314786
C   C21       1.0  0.60030  0.38950  0.67960  1.0000 0.0683760799
C   C22       1.0  0.53210  0.77450  0.05840  1.0000 0.0796610099
C   C23       1.0  0.57830  0.84150  0.13090  1.0000 -0.1429314786
C   C24       1.0  0.72980  0.80250  0.11970  1.0000 -0.0339388412
C   C25       1.0  0.82720  0.70090  0.03840  1.0000 -0.1343497031
C   C26       1.0  0.77390  0.63860  0.96890  1.0000 0.0796610099
C   C27       1.0  0.52890  0.77800  0.71070  1.0000 0.5804373181
C   C28       1.0  0.45750  0.90670  0.63500  1.0000 -0.2483567663
C   C29       1.0  0.53390  0.93900  0.53850  1.0000 -0.079151056
C   C30       1.0  0.78480  0.31280  0.93190  1.0000 0.5877221978
C   C31       1.0  0.84230  0.17770  0.00110  1.0000 -0.263988226
C   C32       1.0  0.97300  0.06680  0.96680  1.0000 -0.0584558558
N   N1        1.0  0.50330  0.50880  0.24390  1.0000 -0.2202145227
N   N2        1.0  0.37190  0.32600  0.01990  1.0000 -0.2038840049
N   N3        1.0  0.49670  0.49120  0.75610  1.0000 -0.2202145227
N   N4        1.0  0.62810  0.67400  0.98010  1.0000 -0.2038840049
O   O1        1.0  0.55990  0.23730  0.19997  1.0000 -0.5518162393
O   O2        1.0  0.33640  0.30920  0.31290  1.0000 -0.5628530078
O   O3        1.0  0.35360  0.59820  0.03146  1.0000 -0.5978014314
O   O4        1.0  0.13600  0.66290  0.15420  1.0000 -0.5628530078
O   O5        1.0  0.44010  0.76270  0.80003  1.0000 -0.5518162393
O   O6        1.0  0.66360  0.69080  0.68710  1.0000 -0.5628530078
O   O7        1.0  0.64640  0.40180  0.96854  1.0000 -0.5978014314
O   O8        1.0  0.86400  0.33710  0.84580  1.0000 -0.5628530078
