# DDEC6 charges by PACMAN v1.1 (https://github.com/mtap-research/PACMAN-charge/)
data_2018[Er][nan]2[FSR]1
_chemical_formula_sum              "Er8 H24 C96 Cl24 O68"
_cell_length_a       5.9165
_cell_length_b       18.2813
_cell_length_c       31.2569
_cell_angle_alpha    90
_cell_angle_beta     99.4978
_cell_angle_gamma    90

_symmetry_space_group_name_H-M    "P 1"
_symmetry_Int_Tables_number       1

loop_
  _symmetry_equiv_pos_as_xyz
  'x, y, z'

loop_
  _atom_site_type_symbol
  _atom_site_label
  _atom_site_symmetry_multiplicity
  _atom_site_fract_x
  _atom_site_fract_y
  _atom_site_fract_z
  _atom_site_occupancy
  _atom_site_charge
Er  Er1       1.0  0.53472  0.86453  0.76032  1.0000 2.0488717965
Er  Er2       1.0  0.54194  0.61090  0.70242  1.0000 2.0113171151
Er  Er3       1.0  0.46528  0.36453  0.73968  1.0000 2.0488717965
Er  Er4       1.0  0.45806  0.11090  0.79758  1.0000 2.0113171151
Er  Er5       1.0  0.46528  0.13547  0.23968  1.0000 2.0488717965
Er  Er6       1.0  0.45806  0.38910  0.29758  1.0000 2.0113171151
Er  Er7       1.0  0.53472  0.63547  0.26032  1.0000 2.0488717965
Er  Er8       1.0  0.54194  0.88910  0.20242  1.0000 2.0113171151
H   H1        1.0  0.06320  0.15900  0.64820  1.0000 0.1490072141
H   H2        1.0  0.47670  0.78760  0.61500  1.0000 0.1587518266
H   H3        1.0  0.10770  0.93770  0.61900  1.0000 0.1430744826
H   H4        1.0  0.11250  0.71800  0.57190  1.0000 0.1430744826
H   H5        1.0  0.43000  0.01500  0.65840  1.0000 0.1587518266
H   H6        1.0  0.48760  0.56560  0.55730  1.0000 0.1490072141
H   H7        1.0  0.93680  0.65900  0.85180  1.0000 0.1490072141
H   H8        1.0  0.52330  0.28760  0.88500  1.0000 0.1587518266
H   H9        1.0  0.89230  0.43770  0.88100  1.0000 0.1430744826
H   H10       1.0  0.88750  0.21800  0.92810  1.0000 0.1430744826
H   H11       1.0  0.57000  0.51500  0.84160  1.0000 0.1587518266
H   H12       1.0  0.51240  0.06560  0.94270  1.0000 0.1490072141
H   H13       1.0  0.93680  0.84100  0.35180  1.0000 0.1490072141
H   H14       1.0  0.52330  0.21240  0.38500  1.0000 0.1587518266
H   H15       1.0  0.89230  0.06230  0.38100  1.0000 0.1430744826
H   H16       1.0  0.88750  0.28200  0.42810  1.0000 0.1430744826
H   H17       1.0  0.57000  0.98500  0.34160  1.0000 0.1587518266
H   H18       1.0  0.51240  0.43440  0.44270  1.0000 0.1490072141
H   H19       1.0  0.06320  0.34100  0.14820  1.0000 0.1490072141
H   H20       1.0  0.47670  0.71240  0.11500  1.0000 0.1587518266
H   H21       1.0  0.10770  0.56230  0.11900  1.0000 0.1430744826
H   H22       1.0  0.11250  0.78200  0.07190  1.0000 0.1430744826
H   H23       1.0  0.43000  0.48500  0.15840  1.0000 0.1587518266
H   H24       1.0  0.48760  0.93440  0.05730  1.0000 0.1490072141
C   C1        1.0  0.71450  0.99920  0.72950  1.0000 0.6513721159
C   C2        1.0  0.93000  0.08940  0.68800  1.0000 -0.0173538743
C   C3        1.0  0.15890  0.86060  0.69090  1.0000 0.5723213366
C   C4        1.0  0.73640  0.75960  0.68440  1.0000 0.6633613518
C   C5        1.0  0.93890  0.12890  0.64990  1.0000 -0.1242074856
C   C6        1.0  0.80470  0.91000  0.58270  1.0000 0.0703251109
C   C7        1.0  0.60330  0.81820  0.61630  1.0000 -0.1353789308
C   C8        1.0  0.96550  0.85840  0.65250  1.0000 0.0134094859
C   C9        1.0  0.76460  0.52070  0.62260  1.0000 0.6394542268
C   C10       1.0  0.98100  0.90750  0.61800  1.0000 -0.1650173702
C   C11       1.0  0.57280  0.08260  0.61980  1.0000 0.0799508174
C   C12       1.0  0.77380  0.81400  0.65080  1.0000 -0.0173538743
C   C13       1.0  0.98120  0.63090  0.59820  1.0000 -0.002476725
C   C14       1.0  0.76630  0.12330  0.61530  1.0000 0.0703251109
C   C15       1.0  0.18310  0.62150  0.63410  1.0000 0.5603635422
C   C16       1.0  0.81650  0.69690  0.53450  1.0000 0.0799508174
C   C17       1.0  0.98740  0.68670  0.56840  1.0000 -0.148935646
C   C18       1.0  0.11560  0.09910  0.72560  1.0000 0.5603635422
C   C19       1.0  0.62100  0.65310  0.53000  1.0000 0.0799508174
C   C20       1.0  0.61240  0.86780  0.58240  1.0000 0.0799508174
C   C21       1.0  0.55860  0.04350  0.65660  1.0000 -0.148935646
C   C22       1.0  0.79330  0.58570  0.59330  1.0000 -0.002476725
C   C23       1.0  0.61400  0.59630  0.56000  1.0000 -0.1591352084
C   C24       1.0  0.73580  0.04720  0.69080  1.0000 0.0134094859
C   C25       1.0  0.28550  0.49920  0.77050  1.0000 0.6513721159
C   C26       1.0  0.07000  0.58940  0.81200  1.0000 -0.0173538743
C   C27       1.0  0.84110  0.36060  0.80910  1.0000 0.5723213366
C   C28       1.0  0.26360  0.25960  0.81560  1.0000 0.6633613518
C   C29       1.0  0.06110  0.62890  0.85010  1.0000 -0.1256725528
C   C30       1.0  0.19530  0.41000  0.91730  1.0000 0.0703251109
C   C31       1.0  0.39670  0.31820  0.88370  1.0000 -0.1353789308
C   C32       1.0  0.03450  0.35840  0.84750  1.0000 0.0134094859
C   C33       1.0  0.23540  0.02070  0.87740  1.0000 0.6394542268
C   C34       1.0  0.01900  0.40750  0.88200  1.0000 -0.1650173702
C   C35       1.0  0.42720  0.58260  0.88020  1.0000 0.0799508174
C   C36       1.0  0.22620  0.31400  0.84920  1.0000 -0.0173538743
C   C37       1.0  0.01880  0.13090  0.90180  1.0000 -0.002476725
C   C38       1.0  0.23370  0.62330  0.88470  1.0000 0.0703251109
C   C39       1.0  0.81690  0.12150  0.86590  1.0000 0.5603635422
C   C40       1.0  0.18350  0.19690  0.96550  1.0000 0.0799508174
C   C41       1.0  0.01260  0.18670  0.93160  1.0000 -0.148935646
C   C42       1.0  0.88440  0.59910  0.77440  1.0000 0.5603635422
C   C43       1.0  0.37900  0.15310  0.97000  1.0000 0.0856349877
C   C44       1.0  0.38760  0.36780  0.91760  1.0000 0.0799508174
C   C45       1.0  0.44140  0.54350  0.84340  1.0000 -0.148935646
C   C46       1.0  0.20670  0.08570  0.90670  1.0000 -0.002476725
C   C47       1.0  0.38600  0.09630  0.94000  1.0000 -0.1591352084
C   C48       1.0  0.26420  0.54720  0.80920  1.0000 0.0134094859
C   C49       1.0  0.28550  0.00080  0.27050  1.0000 0.6513721159
C   C50       1.0  0.07000  0.91060  0.31200  1.0000 -0.0173538743
C   C51       1.0  0.84110  0.13940  0.30910  1.0000 0.5723213366
C   C52       1.0  0.26360  0.24040  0.31560  1.0000 0.6633613518
C   C53       1.0  0.06110  0.87110  0.35010  1.0000 -0.1256725528
C   C54       1.0  0.19530  0.09000  0.41730  1.0000 0.0703251109
C   C55       1.0  0.39670  0.18180  0.38370  1.0000 -0.1353789308
C   C56       1.0  0.03450  0.14160  0.34750  1.0000 0.0134094859
C   C57       1.0  0.23540  0.47930  0.37740  1.0000 0.6394542268
C   C58       1.0  0.01900  0.09250  0.38200  1.0000 -0.1591352084
C   C59       1.0  0.42720  0.91740  0.38020  1.0000 0.0799508174
C   C60       1.0  0.22620  0.18600  0.34920  1.0000 -0.0173538743
C   C61       1.0  0.01880  0.36910  0.40180  1.0000 -0.002476725
C   C62       1.0  0.23370  0.87670  0.38470  1.0000 0.0703251109
C   C63       1.0  0.81690  0.37850  0.36590  1.0000 0.5603635422
C   C64       1.0  0.18350  0.30310  0.46550  1.0000 0.0799508174
C   C65       1.0  0.01260  0.31330  0.43160  1.0000 -0.148935646
C   C66       1.0  0.88440  0.90090  0.27440  1.0000 0.5603635422
C   C67       1.0  0.37900  0.34690  0.47000  1.0000 0.0856349877
C   C68       1.0  0.38760  0.13220  0.41760  1.0000 0.0799508174
C   C69       1.0  0.44140  0.95650  0.34340  1.0000 -0.148935646
C   C70       1.0  0.20670  0.41430  0.40670  1.0000 -0.002476725
C   C71       1.0  0.38600  0.40370  0.44000  1.0000 -0.1591352084
C   C72       1.0  0.26420  0.95280  0.30920  1.0000 0.0134094859
C   C73       1.0  0.71450  0.50080  0.22950  1.0000 0.6513721159
C   C74       1.0  0.93000  0.41060  0.18800  1.0000 -0.0173538743
C   C75       1.0  0.15890  0.63940  0.19090  1.0000 0.5723213366
C   C76       1.0  0.73640  0.74040  0.18440  1.0000 0.6633613518
C   C77       1.0  0.93890  0.37110  0.14990  1.0000 -0.1242074856
C   C78       1.0  0.80470  0.59000  0.08270  1.0000 0.0703251109
C   C79       1.0  0.60330  0.68180  0.11630  1.0000 -0.1353789308
C   C80       1.0  0.96550  0.64160  0.15250  1.0000 0.0134094859
C   C81       1.0  0.76460  0.97930  0.12260  1.0000 0.6394542268
C   C82       1.0  0.98100  0.59250  0.11800  1.0000 -0.1650173702
C   C83       1.0  0.57280  0.41740  0.11980  1.0000 0.0799508174
C   C84       1.0  0.77380  0.68600  0.15080  1.0000 -0.0173538743
C   C85       1.0  0.98120  0.86910  0.09820  1.0000 -0.002476725
C   C86       1.0  0.76630  0.37670  0.11530  1.0000 0.0703251109
C   C87       1.0  0.18310  0.87850  0.13410  1.0000 0.5603635422
C   C88       1.0  0.81650  0.80310  0.03450  1.0000 0.0799508174
C   C89       1.0  0.98740  0.81330  0.06840  1.0000 -0.148935646
C   C90       1.0  0.11560  0.40090  0.22560  1.0000 0.5603635422
C   C91       1.0  0.62100  0.84690  0.03000  1.0000 0.0799508174
C   C92       1.0  0.61240  0.63220  0.08240  1.0000 0.0799508174
C   C93       1.0  0.55860  0.45650  0.15660  1.0000 -0.148935646
C   C94       1.0  0.79330  0.91430  0.09330  1.0000 -0.002476725
C   C95       1.0  0.61400  0.90370  0.06000  1.0000 -0.1591352084
C   C96       1.0  0.73580  0.45280  0.19080  1.0000 0.0134094859
Cl  Cl1       1.0  0.83010  0.76730  0.49810  1.0000 -0.0683167224
Cl  Cl2       1.0  0.82874  0.96960  0.54094  1.0000 -0.0438188608
Cl  Cl3       1.0  0.78094  0.17060  0.56794  1.0000 -0.0683167224
Cl  Cl4       1.0  0.38754  0.87180  0.54014  1.0000 -0.0454739094
Cl  Cl5       1.0  0.34359  0.07580  0.57689  1.0000 -0.0620303248
Cl  Cl6       1.0  0.39410  0.66460  0.48860  1.0000 -0.0454739094
Cl  Cl7       1.0  0.16990  0.26730  0.00190  1.0000 -0.0683167224
Cl  Cl8       1.0  0.17126  0.46960  0.95906  1.0000 -0.0438188608
Cl  Cl9       1.0  0.21906  0.67060  0.93206  1.0000 -0.0683167224
Cl  Cl10      1.0  0.61246  0.37180  0.95986  1.0000 -0.0454739094
Cl  Cl11      1.0  0.65641  0.57580  0.92311  1.0000 -0.0620303248
Cl  Cl12      1.0  0.60590  0.16460  0.01140  1.0000 -0.0454739094
Cl  Cl13      1.0  0.16990  0.23270  0.50190  1.0000 -0.0683167224
Cl  Cl14      1.0  0.17126  0.03040  0.45906  1.0000 -0.0438188608
Cl  Cl15      1.0  0.21906  0.82940  0.43206  1.0000 -0.0683167224
Cl  Cl16      1.0  0.61246  0.12820  0.45986  1.0000 -0.0438188608
Cl  Cl17      1.0  0.65641  0.92420  0.42311  1.0000 -0.0620303248
Cl  Cl18      1.0  0.60590  0.33540  0.51140  1.0000 -0.0438188608
Cl  Cl19      1.0  0.83010  0.73270  0.99810  1.0000 -0.0683167224
Cl  Cl20      1.0  0.82874  0.53040  0.04094  1.0000 -0.0438188608
Cl  Cl21      1.0  0.78094  0.32940  0.06794  1.0000 -0.0683167224
Cl  Cl22      1.0  0.38754  0.62820  0.04014  1.0000 -0.0454739094
Cl  Cl23      1.0  0.34359  0.42420  0.07689  1.0000 -0.0620303248
Cl  Cl24      1.0  0.39410  0.83540  0.98860  1.0000 -0.0438188608
O   O1        1.0  0.80200  0.69420  0.68150  1.0000 -0.5624232032
O   O2        1.0  0.19190  0.56500  0.65910  1.0000 -0.5194582679
O   O3        1.0  0.70110  0.91440  0.82890  1.0000 -0.2188392842
O   O4        1.0  0.58310  0.01740  0.75590  1.0000 -0.6294938885
O   O5        1.0  0.79960  0.93580  0.73130  1.0000 -0.5624232032
O   O6        1.0  0.67280  0.53160  0.65590  1.0000 -0.602729369
O   O7        1.0  0.44670  0.76770  0.80470  1.0000 -0.4003568553
O   O8        1.0  0.10780  0.06490  0.76020  1.0000 -0.4959167206
O   O9        1.0  0.15890  0.81340  0.72150  1.0000 -0.4377408737
O   O10       1.0  0.33750  0.66850  0.63980  1.0000 -0.5843608567
O   O11       1.0  0.23370  0.91680  0.78880  1.0000 -0.2491371819
O   O12       1.0  0.81970  0.45940  0.61070  1.0000 -0.4073886835
O   O13       1.0  0.27820  0.14350  0.72400  1.0000 -0.5126314947
O   O14       1.0  0.60920  0.77770  0.71180  1.0000 -0.6294938885
O   O15       1.0  0.88530  0.80090  0.78750  1.0000 -0.2003985483
O   O16       1.0  0.31010  0.90920  0.69510  1.0000 -0.602729369
O   O17       1.0  0.24870  0.66900  0.72990  1.0000 -0.2326079906
O   O18       1.0  0.19800  0.19420  0.81850  1.0000 -0.5624232032
O   O19       1.0  0.80810  0.06500  0.84090  1.0000 -0.5194582679
O   O20       1.0  0.29890  0.41440  0.67110  1.0000 -0.2188392842
O   O21       1.0  0.41690  0.51740  0.74410  1.0000 -0.6294938885
O   O22       1.0  0.20040  0.43580  0.76870  1.0000 -0.5624232032
O   O23       1.0  0.32720  0.03160  0.84410  1.0000 -0.602729369
O   O24       1.0  0.55330  0.26770  0.69530  1.0000 -0.4003568553
O   O25       1.0  0.89220  0.56490  0.73980  1.0000 -0.4959167206
O   O26       1.0  0.84110  0.31340  0.77850  1.0000 -0.4377408737
O   O27       1.0  0.66250  0.16850  0.86020  1.0000 -0.5843608567
O   O28       1.0  0.76630  0.41680  0.71120  1.0000 -0.2491371819
O   O29       1.0  0.18030  0.95940  0.88930  1.0000 -0.4073886835
O   O30       1.0  0.72180  0.64350  0.77600  1.0000 -0.5126314947
O   O31       1.0  0.39080  0.27770  0.78820  1.0000 -0.6294938885
O   O32       1.0  0.11470  0.30090  0.71250  1.0000 -0.2003985483
O   O33       1.0  0.68990  0.40920  0.80490  1.0000 -0.602729369
O   O34       1.0  0.75130  0.16900  0.77010  1.0000 -0.2326079906
O   O35       1.0  0.19800  0.30580  0.31850  1.0000 -0.5624232032
O   O36       1.0  0.80810  0.43500  0.34090  1.0000 -0.5194582679
O   O37       1.0  0.29890  0.08560  0.17110  1.0000 -0.2188392842
O   O38       1.0  0.41690  0.98260  0.24410  1.0000 -0.6294938885
O   O39       1.0  0.20040  0.06420  0.26870  1.0000 -0.5624232032
O   O40       1.0  0.32720  0.46840  0.34410  1.0000 -0.602729369
O   O41       1.0  0.55330  0.23230  0.19530  1.0000 -0.4003568553
O   O42       1.0  0.89220  0.93510  0.23980  1.0000 -0.4959167206
O   O43       1.0  0.84110  0.18660  0.27850  1.0000 -0.4377408737
O   O44       1.0  0.66250  0.33150  0.36020  1.0000 -0.5843608567
O   O45       1.0  0.76630  0.08320  0.21120  1.0000 -0.2491371819
O   O46       1.0  0.18030  0.54060  0.38930  1.0000 -0.4073886835
O   O47       1.0  0.72180  0.85650  0.27600  1.0000 -0.5126314947
O   O48       1.0  0.39080  0.22230  0.28820  1.0000 -0.6294938885
O   O49       1.0  0.11470  0.19910  0.21250  1.0000 -0.1938157567
O   O50       1.0  0.68990  0.09080  0.30490  1.0000 -0.602729369
O   O51       1.0  0.75130  0.33100  0.27010  1.0000 -0.2326079906
O   O52       1.0  0.80200  0.80580  0.18150  1.0000 -0.5624232032
O   O53       1.0  0.19190  0.93500  0.15910  1.0000 -0.5194582679
O   O54       1.0  0.70110  0.58560  0.32890  1.0000 -0.2188392842
O   O55       1.0  0.58310  0.48260  0.25590  1.0000 -0.6294938885
O   O56       1.0  0.79960  0.56420  0.23130  1.0000 -0.5624232032
O   O57       1.0  0.67280  0.96840  0.15590  1.0000 -0.602729369
O   O58       1.0  0.44670  0.73230  0.30470  1.0000 -0.4003568553
O   O59       1.0  0.10780  0.43510  0.26020  1.0000 -0.4959167206
O   O60       1.0  0.15890  0.68660  0.22150  1.0000 -0.4377408737
O   O61       1.0  0.33750  0.83150  0.13980  1.0000 -0.5843608567
O   O62       1.0  0.23370  0.58320  0.28880  1.0000 -0.2491371819
O   O63       1.0  0.81970  0.04060  0.11070  1.0000 -0.4073886835
O   O64       1.0  0.27820  0.35650  0.22400  1.0000 -0.5126314947
O   O65       1.0  0.60920  0.72230  0.21180  1.0000 -0.6294938885
O   O66       1.0  0.88530  0.69910  0.28750  1.0000 -0.2003985483
O   O67       1.0  0.31010  0.59080  0.19510  1.0000 -0.602729369
O   O68       1.0  0.24870  0.83100  0.22990  1.0000 -0.2326079906
