# DDEC6 charges by PACMAN v1.1 (https://github.com/mtap-research/PACMAN-charge/)
data_2018[Cd][nan]2[FSR]1
_chemical_formula_sum              "Cd2 H38 C36 N8 O10"
_cell_length_a       10.1981
_cell_length_b       10.4591
_cell_length_c       12.064
_cell_angle_alpha    93.153
_cell_angle_beta     107.915
_cell_angle_gamma    106.186

_symmetry_space_group_name_H-M    "P 1"
_symmetry_Int_Tables_number       1

loop_
  _symmetry_equiv_pos_as_xyz
  'x, y, z'

loop_
  _atom_site_type_symbol
  _atom_site_label
  _atom_site_symmetry_multiplicity
  _atom_site_fract_x
  _atom_site_fract_y
  _atom_site_fract_z
  _atom_site_occupancy
  _atom_site_charge
Cd  Cd1       1.0  0.22147  0.83424  0.83352  1.0000 0.7882352796
Cd  Cd2       1.0  0.77853  0.16576  0.16648  1.0000 0.7882352796
H   H1        1.0  0.24530  0.09390  0.92470  1.0000 0.3265854146
H   H2        1.0  0.29230  0.99590  0.88390  1.0000 0.234065267
H   H3        1.0  0.74210  0.55750  0.57770  1.0000 0.118319558
H   H4        1.0  0.71550  0.80860  0.82630  1.0000 0.1295425123
H   H5        1.0  0.35510  0.57160  0.57650  1.0000 0.118319558
H   H6        1.0  0.42200  0.88610  0.12320  1.0000 0.118319558
H   H7        1.0  0.21480  0.16660  0.51530  1.0000 0.1295425123
H   H8        1.0  0.05570  0.84110  0.33380  1.0000 0.118319558
H   H9        1.0  0.08310  0.99400  0.32220  1.0000 0.118319558
H   H10       1.0  0.33120  0.01750  0.36330  1.0000 0.1092505988
H   H11       1.0  0.23030  0.92330  0.24380  1.0000 0.118319558
H   H12       1.0  0.43650  0.70790  0.35610  1.0000 0.118319558
H   H13       1.0  0.48430  0.85810  0.33570  1.0000 0.118319558
H   H14       1.0  0.09140  0.57690  0.96370  1.0000 0.118319558
H   H15       1.0  0.17390  0.55550  0.17340  1.0000 0.1295425123
H   H16       1.0  0.36490  0.83120  0.46150  1.0000 0.1092505988
H   H17       1.0  0.23000  0.72830  0.36480  1.0000 0.1047265853
H   H18       1.0  0.25240  0.14570  0.72420  1.0000 0.118319558
H   H19       1.0  0.13690  0.78190  0.54870  1.0000 0.118319558
H   H20       1.0  0.75470  0.90610  0.07530  1.0000 0.3265854146
H   H21       1.0  0.70770  0.00410  0.11610  1.0000 0.234065267
H   H22       1.0  0.25790  0.44250  0.42230  1.0000 0.118319558
H   H23       1.0  0.28450  0.19140  0.17370  1.0000 0.1295425123
H   H24       1.0  0.64490  0.42840  0.42350  1.0000 0.118319558
H   H25       1.0  0.57800  0.11390  0.87680  1.0000 0.118319558
H   H26       1.0  0.78520  0.83340  0.48470  1.0000 0.1295425123
H   H27       1.0  0.94430  0.15890  0.66620  1.0000 0.118319558
H   H28       1.0  0.91690  0.00600  0.67780  1.0000 0.118319558
H   H29       1.0  0.66880  0.98250  0.63670  1.0000 0.1092505988
H   H30       1.0  0.76970  0.07670  0.75620  1.0000 0.118319558
H   H31       1.0  0.56350  0.29210  0.64390  1.0000 0.118319558
H   H32       1.0  0.51570  0.14190  0.66430  1.0000 0.118319558
H   H33       1.0  0.90860  0.42310  0.03630  1.0000 0.118319558
H   H34       1.0  0.82610  0.44450  0.82660  1.0000 0.1295425123
H   H35       1.0  0.63510  0.16880  0.53850  1.0000 0.1092505988
H   H36       1.0  0.77000  0.27170  0.63520  1.0000 0.1047265853
H   H37       1.0  0.74760  0.85430  0.27580  1.0000 0.118319558
H   H38       1.0  0.86310  0.21810  0.45130  1.0000 0.118319558
C   C1        1.0  0.91680  0.73340  0.76510  1.0000 0.5156337943
C   C2        1.0  0.53580  0.55020  0.55470  1.0000 0.0601040002
C   C3        1.0  0.68580  0.59380  0.60980  1.0000 -0.1799900456
C   C4        1.0  0.42870  0.75290  0.76580  1.0000 0.5330710139
C   C5        1.0  0.52380  0.70040  0.71100  1.0000 0.0017452363
C   C6        1.0  0.67050  0.74290  0.75960  1.0000 -0.1295795415
C   C7        1.0  0.75410  0.68920  0.71080  1.0000 -0.0115111064
C   C8        1.0  0.45580  0.60200  0.60850  1.0000 -0.1799900456
C   C9        1.0  0.34830  0.80480  0.10860  1.0000 0.118319558
C   C10       1.0  0.20220  0.08690  0.54720  1.0000 -0.0883296851
C   C11       1.0  0.12650  0.93000  0.36170  1.0000 -0.1218305726
C   C12       1.0  0.25530  0.93200  0.32880  1.0000 -0.1854382504
C   C13       1.0  0.40120  0.77880  0.32200  1.0000 -0.1386902754
C   C14       1.0  0.17000  0.63810  0.02170  1.0000 -0.0115111064
C   C15       1.0  0.21400  0.62590  0.13820  1.0000 -0.1041124288
C   C16       1.0  0.31300  0.80770  0.37740  1.0000 -0.1799900456
C   C17       1.0  0.22400  0.07530  0.66270  1.0000 -0.0794224191
C   C18       1.0  0.15960  0.87470  0.56710  1.0000 0.0922386076
C   C19       1.0  0.08320  0.26660  0.23490  1.0000 0.5156337943
C   C20       1.0  0.46420  0.44980  0.44530  1.0000 0.0601040002
C   C21       1.0  0.31420  0.40620  0.39020  1.0000 -0.1799900456
C   C22       1.0  0.57130  0.24710  0.23420  1.0000 0.5330710139
C   C23       1.0  0.47620  0.29960  0.28900  1.0000 0.0017452363
C   C24       1.0  0.32950  0.25710  0.24040  1.0000 -0.1295795415
C   C25       1.0  0.24590  0.31080  0.28920  1.0000 -0.0115111064
C   C26       1.0  0.54420  0.39800  0.39150  1.0000 -0.1799900456
C   C27       1.0  0.65170  0.19520  0.89140  1.0000 0.1092505988
C   C28       1.0  0.79780  0.91310  0.45280  1.0000 -0.0883296851
C   C29       1.0  0.87350  0.07000  0.63830  1.0000 -0.1218305726
C   C30       1.0  0.74470  0.06800  0.67120  1.0000 -0.1854382504
C   C31       1.0  0.59880  0.22120  0.67800  1.0000 -0.1386902754
C   C32       1.0  0.83000  0.36190  0.97830  1.0000 -0.0115111064
C   C33       1.0  0.78600  0.37410  0.86180  1.0000 -0.1041124288
C   C34       1.0  0.68700  0.19230  0.62260  1.0000 -0.1799900456
C   C35       1.0  0.77600  0.92470  0.33730  1.0000 -0.0794224191
C   C36       1.0  0.84040  0.12530  0.43290  1.0000 0.0922386076
N   N1        1.0  0.19670  0.94090  0.67240  1.0000 -0.2984703455
N   N2        1.0  0.25570  0.74890  0.00280  1.0000 -0.2692010079
N   N3        1.0  0.32640  0.73480  0.19110  1.0000 0.0414746513
N   N4        1.0  0.15940  0.96270  0.48860  1.0000 0.0414746513
N   N5        1.0  0.80330  0.05910  0.32760  1.0000 -0.2984703455
N   N6        1.0  0.74430  0.25110  0.99720  1.0000 -0.2692010079
N   N7        1.0  0.67360  0.26520  0.80890  1.0000 0.0414746513
N   N8        1.0  0.84060  0.03730  0.51140  1.0000 0.0414746513
O   O1        1.0  0.98500  0.66950  0.73120  1.0000 -0.518697289
O   O2        1.0  0.48510  0.85880  0.83770  1.0000 -0.542093781
O   O3        1.0  0.30730  0.05180  0.94380  1.0000 -0.6281386886
O   O4        1.0  0.97830  0.83710  0.84040  1.0000 -0.5473934088
O   O5        1.0  0.29570  0.68620  0.73450  1.0000 -0.5473934088
O   O6        1.0  0.01500  0.33050  0.26880  1.0000 -0.518697289
O   O7        1.0  0.51490  0.14120  0.16230  1.0000 -0.542093781
O   O8        1.0  0.69270  0.94820  0.05620  1.0000 -0.6281386886
O   O9        1.0  0.02170  0.16290  0.15960  1.0000 -0.5473934088
O   O10       1.0  0.70430  0.31380  0.26550  1.0000 -0.5473934088
