# DDEC6 charges by PACMAN v1.1 (https://github.com/mtap-research/PACMAN-charge/)
data_2018[Fe][nan]3[FSR]3
_chemical_formula_sum              "Fe6 H6 C24 O30"
_cell_length_a       15.0492
_cell_length_b       15.0492
_cell_length_c       15.0492
_cell_angle_alpha    117.733
_cell_angle_beta     117.733
_cell_angle_gamma    117.733

_symmetry_space_group_name_H-M    "P 1"
_symmetry_Int_Tables_number       1

loop_
  _symmetry_equiv_pos_as_xyz
  'x, y, z'

loop_
  _atom_site_type_symbol
  _atom_site_label
  _atom_site_symmetry_multiplicity
  _atom_site_fract_x
  _atom_site_fract_y
  _atom_site_fract_z
  _atom_site_occupancy
  _atom_site_charge
Fe  Fe1       1.0  0.11200  0.53830  0.79490  1.0000 1.1426438872
Fe  Fe2       1.0  0.53830  0.79490  0.11200  1.0000 1.1426438872
Fe  Fe3       1.0  0.79490  0.11200  0.53830  1.0000 1.1426438872
Fe  Fe4       1.0  0.88800  0.46170  0.20510  1.0000 1.1426438872
Fe  Fe5       1.0  0.46170  0.20510  0.88800  1.0000 1.1426438872
Fe  Fe6       1.0  0.20510  0.88800  0.46170  1.0000 1.1426438872
H   H1        1.0  0.65566  0.19350  0.63934  1.0000 0.1930171062
H   H2        1.0  0.19350  0.63934  0.65566  1.0000 0.1930171062
H   H3        1.0  0.63934  0.65566  0.19350  1.0000 0.1930171062
H   H4        1.0  0.34434  0.80650  0.36066  1.0000 0.1930171062
H   H5        1.0  0.80650  0.36066  0.34434  1.0000 0.1930171062
H   H6        1.0  0.36066  0.34434  0.80650  1.0000 0.1930171062
C   C1        1.0  0.34176  0.72722  0.16612  1.0000 0.6739963973
C   C2        1.0  0.16311  0.61528  0.08021  1.0000 -0.0707836167
C   C3        1.0  0.96148  0.42451  0.85881  1.0000 0.3939280295
C   C4        1.0  0.79955  0.32410  0.78965  1.0000 -0.1624252067
C   C5        1.0  0.72722  0.16612  0.34176  1.0000 0.6739963973
C   C6        1.0  0.61528  0.08021  0.16311  1.0000 -0.0707836167
C   C7        1.0  0.42451  0.85881  0.96148  1.0000 0.3939280295
C   C8        1.0  0.32410  0.78965  0.79955  1.0000 -0.1624252067
C   C9        1.0  0.16612  0.34176  0.72722  1.0000 0.6739963973
C   C10       1.0  0.08021  0.16311  0.61528  1.0000 -0.0707836167
C   C11       1.0  0.85881  0.96148  0.42451  1.0000 0.3939280295
C   C12       1.0  0.78965  0.79955  0.32410  1.0000 -0.1624252067
C   C13       1.0  0.65824  0.27278  0.83388  1.0000 0.6739963973
C   C14       1.0  0.83689  0.38472  0.91979  1.0000 -0.0707836167
C   C15       1.0  0.03852  0.57549  0.14119  1.0000 0.3939280295
C   C16       1.0  0.20045  0.67590  0.21035  1.0000 -0.1624252067
C   C17       1.0  0.27278  0.83388  0.65824  1.0000 0.6739963973
C   C18       1.0  0.38472  0.91979  0.83689  1.0000 -0.0707836167
C   C19       1.0  0.57549  0.14119  0.03852  1.0000 0.3939280295
C   C20       1.0  0.67590  0.21035  0.20045  1.0000 -0.1624252067
C   C21       1.0  0.83388  0.65824  0.27278  1.0000 0.6739963973
C   C22       1.0  0.91979  0.83689  0.38472  1.0000 -0.0707836167
C   C23       1.0  0.14119  0.03852  0.57549  1.0000 0.3939280295
C   C24       1.0  0.21035  0.20045  0.67590  1.0000 -0.1624252067
O   O1        1.0  0.32703  0.67787  0.05920  1.0000 -0.5454499141
O   O2        1.0  0.51980  0.88599  0.36601  1.0000 -0.5301642136
O   O3        1.0  0.92092  0.35666  0.72452  1.0000 -0.5694703476
O   O4        1.0  0.19640  0.76020  0.01540  1.0000 -0.2667146043
O   O5        1.0  0.14670  0.72810  0.87820  1.0000 -0.2598703392
O   O6        1.0  0.67787  0.05920  0.32703  1.0000 -0.5454499141
O   O7        1.0  0.88599  0.36601  0.51980  1.0000 -0.5301642136
O   O8        1.0  0.35666  0.72452  0.92092  1.0000 -0.5694703476
O   O9        1.0  0.76020  0.01540  0.19640  1.0000 -0.2667146043
O   O10       1.0  0.72810  0.87820  0.14670  1.0000 -0.2598703392
O   O11       1.0  0.05920  0.32703  0.67787  1.0000 -0.5454499141
O   O12       1.0  0.36601  0.51980  0.88599  1.0000 -0.5301642136
O   O13       1.0  0.72452  0.92092  0.35666  1.0000 -0.5694703476
O   O14       1.0  0.01540  0.19640  0.76020  1.0000 -0.2598703392
O   O15       1.0  0.87820  0.14670  0.72810  1.0000 -0.2598703392
O   O16       1.0  0.67297  0.32213  0.94080  1.0000 -0.5454499141
O   O17       1.0  0.48020  0.11401  0.63399  1.0000 -0.5301642136
O   O18       1.0  0.07908  0.64334  0.27548  1.0000 -0.5694703476
O   O19       1.0  0.80360  0.23980  0.98460  1.0000 -0.2667146043
O   O20       1.0  0.85330  0.27190  0.12180  1.0000 -0.2598703392
O   O21       1.0  0.32213  0.94080  0.67297  1.0000 -0.544993581
O   O22       1.0  0.11401  0.63399  0.48020  1.0000 -0.5301642136
O   O23       1.0  0.64334  0.27548  0.07908  1.0000 -0.5694703476
O   O24       1.0  0.23980  0.98460  0.80360  1.0000 -0.2667146043
O   O25       1.0  0.27190  0.12180  0.85330  1.0000 -0.2598703392
O   O26       1.0  0.94080  0.67297  0.32213  1.0000 -0.544993581
O   O27       1.0  0.63399  0.48020  0.11401  1.0000 -0.5301642136
O   O28       1.0  0.27548  0.07908  0.64334  1.0000 -0.5694703476
O   O29       1.0  0.98460  0.80360  0.23980  1.0000 -0.2667146043
O   O30       1.0  0.12180  0.85330  0.27190  1.0000 -0.2598703392
