# DDEC6 charges by PACMAN v1.1 (https://github.com/mtap-research/PACMAN-charge/)
data_2018[USi][hcb]2[FSR]2
_chemical_formula_sum              "U8 Si8 H136 C216 O64"
_cell_length_a       21.2184
_cell_length_b       21.2184
_cell_length_c       21.2184
_cell_angle_alpha    129.553
_cell_angle_beta     105.942
_cell_angle_gamma    95.0804

_symmetry_space_group_name_H-M    "P 1"
_symmetry_Int_Tables_number       1

loop_
  _symmetry_equiv_pos_as_xyz
  'x, y, z'

loop_
  _atom_site_type_symbol
  _atom_site_label
  _atom_site_symmetry_multiplicity
  _atom_site_fract_x
  _atom_site_fract_y
  _atom_site_fract_z
  _atom_site_occupancy
  _atom_site_charge
U   U1        1.0  0.67262  0.92892  0.81816  1.0000 2.3200649943
U   U2        1.0  0.38050  0.12365  0.28729  1.0000 2.3200649943
U   U3        1.0  0.17262  0.35446  0.74370  1.0000 2.3200649943
U   U4        1.0  0.88050  0.59321  0.25685  1.0000 2.3200649943
U   U5        1.0  0.11076  0.85446  0.18184  1.0000 2.3200649943
U   U6        1.0  0.83636  0.09321  0.71271  1.0000 2.3200649943
U   U7        1.0  0.61076  0.42892  0.25630  1.0000 2.3200649943
U   U8        1.0  0.33636  0.62365  0.74315  1.0000 2.3200649943
Si  Si1       1.0  0.09576  0.34302  0.13434  1.0000 0.6548213091
Si  Si2       1.0  0.29852  0.02861  0.61751  1.0000 0.6702285584
Si  Si3       1.0  0.59576  0.46142  0.75274  1.0000 0.6548213091
Si  Si4       1.0  0.79852  0.18101  0.26991  1.0000 0.6702285584
Si  Si5       1.0  0.20868  0.96142  0.86566  1.0000 0.6548213091
Si  Si6       1.0  0.41110  0.68101  0.38249  1.0000 0.6702285584
Si  Si7       1.0  0.70868  0.84302  0.24726  1.0000 0.6559605327
Si  Si8       1.0  0.91110  0.52861  0.73009  1.0000 0.6702285584
H   H1        1.0  0.04400  0.15550  0.03150  1.0000 0.1102089325
H   H2        1.0  0.93690  0.04950  0.95760  1.0000 0.1281364342
H   H3        1.0  0.95130  0.33080  0.08490  1.0000 0.1281364342
H   H4        1.0  0.83920  0.21960  0.99720  1.0000 0.1281364342
H   H5        1.0  0.37610  0.97390  0.39700  1.0000 0.119516091
H   H6        1.0  0.30360  0.17190  0.50670  1.0000 0.1365169189
H   H7        1.0  0.28370  0.15250  0.59700  1.0000 0.1281364342
H   H8        1.0  0.35240  0.95130  0.48250  1.0000 0.119516091
H   H9        1.0  0.06990  0.82720  0.35590  1.0000 0.1471666347
H   H10       1.0  0.10130  0.81780  0.54450  1.0000 0.1281364342
H   H11       1.0  0.21150  0.92480  0.63390  1.0000 0.1102089325
H   H12       1.0  0.54580  0.07710  0.74810  1.0000 0.1365169189
H   H13       1.0  0.44890  0.09960  0.69050  1.0000 0.1102089325
H   H14       1.0  0.31950  0.89130  0.61940  1.0000 0.1102089325
H   H15       1.0  0.41940  0.86740  0.67280  1.0000 0.119516091
H   H16       1.0  0.03400  0.30290  0.86870  1.0000 0.1471666347
H   H17       1.0  0.24330  0.42030  0.03400  1.0000 0.119516091
H   H18       1.0  0.22140  0.41000  0.12780  1.0000 0.1102089325
H   H19       1.0  0.01250  0.29820  0.96790  1.0000 0.119516091
H   H20       1.0  0.18490  0.92600  0.43730  1.0000 0.119516091
H   H21       1.0  0.21510  0.28430  0.31280  1.0000 0.1365169189
H   H22       1.0  0.14750  0.34780  0.27910  1.0000 0.119516091
H   H23       1.0  0.27030  0.20390  0.11240  1.0000 0.119516091
H   H24       1.0  0.20510  0.08010  0.71020  1.0000 0.1102089325
H   H25       1.0  0.38950  0.20810  0.76020  1.0000 0.119516091
H   H26       1.0  0.03720  0.39210  0.26190  1.0000 0.119516091
H   H27       1.0  0.14910  0.53360  0.23650  1.0000 0.1102089325
H   H28       1.0  0.19920  0.26100  0.07500  1.0000 0.1102089325
H   H29       1.0  0.14930  0.65640  0.36710  1.0000 0.119516091
H   H30       1.0  0.09120  0.65160  0.44080  1.0000 0.119516091
H   H31       1.0  0.03380  0.51830  0.38630  1.0000 0.1281364342
H   H32       1.0  0.39150  0.33910  0.89300  1.0000 0.1281364342
H   H33       1.0  0.30460  0.33320  0.93540  1.0000 0.119516091
H   H34       1.0  0.21190  0.20910  0.84680  1.0000 0.119516091
H   H35       1.0  0.54400  0.51250  0.88850  1.0000 0.1102089325
H   H36       1.0  0.43690  0.47930  0.88740  1.0000 0.1281364342
H   H37       1.0  0.45130  0.36640  0.62050  1.0000 0.1281364342
H   H38       1.0  0.33920  0.34200  0.61960  1.0000 0.1281364342
H   H39       1.0  0.87610  0.47910  0.40220  1.0000 0.119516091
H   H40       1.0  0.80360  0.29690  0.13170  1.0000 0.1365169189
H   H41       1.0  0.78370  0.18670  0.13120  1.0000 0.1281364342
H   H42       1.0  0.85240  0.36990  0.40110  1.0000 0.119516091
H   H43       1.0  0.56990  0.21400  0.24270  1.0000 0.1471666347
H   H44       1.0  0.60130  0.05680  0.28350  1.0000 0.1281364342
H   H45       1.0  0.71150  0.07760  0.28670  1.0000 0.1102089325
H   H46       1.0  0.04580  0.29770  0.46870  1.0000 0.1365169189
H   H47       1.0  0.94890  0.25840  0.34930  1.0000 0.1102089325
H   H48       1.0  0.81950  0.20010  0.42820  1.0000 0.1102089325
H   H49       1.0  0.91940  0.24660  0.55200  1.0000 0.119516091
H   H50       1.0  0.53400  0.66530  0.73110  1.0000 0.1471666347
H   H51       1.0  0.74330  0.70930  0.82300  1.0000 0.119516091
H   H52       1.0  0.72140  0.59360  0.81140  1.0000 0.1102089325
H   H53       1.0  0.51250  0.54460  0.71430  1.0000 0.119516091
H   H54       1.0  0.68490  0.24760  0.25890  1.0000 0.119516091
H   H55       1.0  0.71510  0.40230  0.93080  1.0000 0.1365169189
H   H56       1.0  0.64750  0.36840  0.79970  1.0000 0.119516091
H   H57       1.0  0.77030  0.65790  0.06640  1.0000 0.119516091
H   H58       1.0  0.70510  0.99490  0.12500  1.0000 0.1102089325
H   H59       1.0  0.88950  0.12930  0.18140  1.0000 0.119516091
H   H60       1.0  0.53720  0.27530  0.64510  1.0000 0.119516091
H   H61       1.0  0.64910  0.41260  0.61550  1.0000 0.119516091
H   H62       1.0  0.69920  0.62420  0.93820  1.0000 0.1102089325
H   H63       1.0  0.64930  0.28220  0.49290  1.0000 0.119516091
H   H64       1.0  0.59120  0.15040  0.43960  1.0000 0.119516091
H   H65       1.0  0.53380  0.14750  0.51550  1.0000 0.1281364342
H   H66       1.0  0.89150  0.99850  0.05240  1.0000 0.1281364342
H   H67       1.0  0.80460  0.86920  0.97140  1.0000 0.119516091
H   H68       1.0  0.71190  0.86510  0.00280  1.0000 0.119516091
H   H69       1.0  0.12400  0.01250  0.96850  1.0000 0.1102089325
H   H70       1.0  0.09190  0.97930  0.04240  1.0000 0.1281364342
H   H71       1.0  0.24590  0.86640  0.91510  1.0000 0.1281364342
H   H72       1.0  0.22240  0.84200  0.00280  1.0000 0.1281364342
H   H73       1.0  0.57690  0.97910  0.60300  1.0000 0.119516091
H   H74       1.0  0.66520  0.79690  0.49330  1.0000 0.1365169189
H   H75       1.0  0.55550  0.68670  0.40300  1.0000 0.1281364342
H   H76       1.0  0.46880  0.86990  0.51750  1.0000 0.119516091
H   H77       1.0  0.47130  0.71400  0.64410  1.0000 0.1471666347
H   H78       1.0  0.27330  0.55680  0.45550  1.0000 0.1281364342
H   H79       1.0  0.29090  0.57760  0.36610  1.0000 0.1102089325
H   H80       1.0  0.32900  0.79770  0.25190  1.0000 0.1365169189
H   H81       1.0  0.40910  0.75840  0.30950  1.0000 0.1102089325
H   H82       1.0  0.27190  0.70010  0.38060  1.0000 0.1102089325
H   H83       1.0  0.19460  0.74660  0.32720  1.0000 0.119516091
H   H84       1.0  0.43420  0.16530  0.13130  1.0000 0.1471666347
H   H85       1.0  0.38630  0.20930  0.96600  1.0000 0.119516091
H   H86       1.0  0.28220  0.09360  0.87220  1.0000 0.1102089325
H   H87       1.0  0.33030  0.04460  0.03210  1.0000 0.119516091
H   H88       1.0  0.48870  0.74760  0.56270  1.0000 0.119516091
H   H89       1.0  0.97150  0.90230  0.68720  1.0000 0.1365169189
H   H90       1.0  0.06870  0.86840  0.72090  1.0000 0.119516091
H   H91       1.0  0.09150  0.15790  0.88760  1.0000 0.119516091
H   H92       1.0  0.36990  0.49490  0.28980  1.0000 0.1102089325
H   H93       1.0  0.44790  0.62930  0.23980  1.0000 0.119516091
H   H94       1.0  0.13020  0.77530  0.73810  1.0000 0.119516091
H   H95       1.0  0.29710  0.91260  0.76350  1.0000 0.119516091
H   H96       1.0  0.18600  0.12420  0.92500  1.0000 0.1102089325
H   H97       1.0  0.28930  0.78220  0.63290  1.0000 0.119516091
H   H98       1.0  0.21080  0.65040  0.55920  1.0000 0.119516091
H   H99       1.0  0.13200  0.64750  0.61370  1.0000 0.1281364342
H   H100      1.0  0.44610  0.49850  0.10700  1.0000 0.1281364342
H   H101      1.0  0.39780  0.36920  0.06460  1.0000 0.119516091
H   H102      1.0  0.36230  0.36510  0.15320  1.0000 0.119516091
H   H103      1.0  0.62400  0.65550  0.11150  1.0000 0.1102089325
H   H104      1.0  0.59190  0.54950  0.11260  1.0000 0.1281364342
H   H105      1.0  0.74590  0.83080  0.37950  1.0000 0.1281364342
H   H106      1.0  0.72240  0.71960  0.38040  1.0000 0.1281364342
H   H107      1.0  0.07690  0.47390  0.59780  1.0000 0.119516091
H   H108      1.0  0.16520  0.67190  0.86830  1.0000 0.1365169189
H   H109      1.0  0.05550  0.65250  0.86880  1.0000 0.1281364342
H   H110      1.0  0.96880  0.45130  0.59890  1.0000 0.119516091
H   H111      1.0  0.97130  0.32720  0.75730  1.0000 0.1471666347
H   H112      1.0  0.77330  0.31780  0.71650  1.0000 0.1281364342
H   H113      1.0  0.79090  0.42480  0.71330  1.0000 0.1102089325
H   H114      1.0  0.82900  0.57710  0.53130  1.0000 0.1365169189
H   H115      1.0  0.90910  0.59960  0.65070  1.0000 0.1102089325
H   H116      1.0  0.77190  0.39130  0.57180  1.0000 0.1102089325
H   H117      1.0  0.69460  0.36740  0.44800  1.0000 0.119516091
H   H118      1.0  0.93420  0.80290  0.26890  1.0000 0.1471666347
H   H119      1.0  0.88630  0.92030  0.17700  1.0000 0.119516091
H   H120      1.0  0.78220  0.91000  0.18860  1.0000 0.1102089325
H   H121      1.0  0.83030  0.79820  0.28570  1.0000 0.119516091
H   H122      1.0  0.98870  0.42600  0.74110  1.0000 0.119516091
H   H123      1.0  0.47150  0.78430  0.06920  1.0000 0.1365169189
H   H124      1.0  0.56870  0.84780  0.20030  1.0000 0.119516091
H   H125      1.0  0.59150  0.70390  0.93360  1.0000 0.119516091
H   H126      1.0  0.86990  0.58010  0.87500  1.0000 0.1102089325
H   H127      1.0  0.94790  0.70810  0.81860  1.0000 0.119516091
H   H128      1.0  0.63020  0.89210  0.35490  1.0000 0.119516091
H   H129      1.0  0.79710  0.03360  0.38450  1.0000 0.1102089325
H   H130      1.0  0.68600  0.76100  0.06180  1.0000 0.1102089325
H   H131      1.0  0.78930  0.15640  0.50710  1.0000 0.119516091
H   H132      1.0  0.71080  0.15160  0.56040  1.0000 0.119516091
H   H133      1.0  0.63200  0.01830  0.48450  1.0000 0.1281364342
H   H134      1.0  0.94610  0.83910  0.94760  1.0000 0.1281364342
H   H135      1.0  0.89780  0.83320  0.02860  1.0000 0.119516091
H   H136      1.0  0.86230  0.70910  0.99720  1.0000 0.119516091
C   C1        1.0  0.28800  0.19320  0.23520  1.0000 0.5598271143
C   C2        1.0  0.00380  0.73980  0.37900  1.0000 0.5517262942
C   C3        1.0  0.55290  0.95850  0.75620  1.0000 0.5517262942
C   C4        1.0  0.00940  0.25600  0.06860  1.0000 -0.18986695
C   C5        1.0  0.00280  0.16990  0.02710  1.0000 -0.0791697054
C   C6        1.0  0.93890  0.10560  0.98030  1.0000 -0.0791697054
C   C7        1.0  0.94860  0.27310  0.05730  1.0000 -0.0791697054
C   C8        1.0  0.88070  0.20650  0.00500  1.0000 -0.0504845578
C   C9        1.0  0.87710  0.12220  0.96590  1.0000 -0.0203246541
C   C10       1.0  0.80820  0.05440  0.91220  1.0000 0.5598271143
C   C11       1.0  0.33860  0.07340  0.44140  1.0000 -0.0203246541
C   C12       1.0  0.35580  0.00930  0.43630  1.0000 -0.0791697054
C   C13       1.0  0.31350  0.12640  0.50150  1.0000 -0.0613793023
C   C14       1.0  0.30210  0.11520  0.55590  1.0000 -0.0705698201
C   C15       1.0  0.34310  0.99770  0.48900  1.0000 -0.0911629219
C   C16       1.0  0.31750  0.05060  0.55110  1.0000 -0.2012124979
C   C17       1.0  0.34850  0.08370  0.38260  1.0000 0.5667038884
C   C18       1.0  0.07620  0.81050  0.44010  1.0000 0.0015044856
C   C19       1.0  0.09980  0.84500  0.41100  1.0000 -0.0791697054
C   C20       1.0  0.11800  0.84080  0.52340  1.0000 -0.1006520318
C   C21       1.0  0.18420  0.90480  0.57660  1.0000 -0.0911629219
C   C22       1.0  0.49970  0.03930  0.72200  1.0000 -0.0911629219
C   C23       1.0  0.44180  0.05320  0.68820  1.0000 -0.0791697054
C   C24       1.0  0.37300  0.99860  0.65060  1.0000 -0.2012124979
C   C25       1.0  0.36520  0.92970  0.64530  1.0000 -0.0791697054
C   C26       1.0  0.42530  0.91590  0.67840  1.0000 -0.0911629219
C   C27       1.0  0.49030  0.97160  0.71770  1.0000 0.0068745097
C   C28       1.0  0.13920  0.36200  0.94080  1.0000 0.0068745097
C   C29       1.0  0.07200  0.32580  0.92220  1.0000 -0.0791697054
C   C30       1.0  0.19650  0.39490  0.02020  1.0000 -0.1082511667
C   C31       1.0  0.18300  0.38930  0.07570  1.0000 -0.1006520318
C   C32       1.0  0.15040  0.36600  0.87600  1.0000 0.5517262942
C   C33       1.0  0.05930  0.32250  0.98100  1.0000 -0.0613793023
C   C34       1.0  0.11530  0.35470  0.06000  1.0000 -0.2104513228
C   C35       1.0  0.16280  0.30700  0.17040  1.0000 -0.18986695
C   C36       1.0  0.21270  0.94140  0.54870  1.0000 -0.2104513228
C   C37       1.0  0.16810  0.90680  0.46170  1.0000 -0.0504845578
C   C38       1.0  0.24750  0.23360  0.21390  1.0000 -0.0289869655
C   C39       1.0  0.21180  0.27850  0.26370  1.0000 -0.0791697054
C   C40       1.0  0.17080  0.31560  0.24280  1.0000 -0.0791697054
C   C41       1.0  0.24340  0.23080  0.14500  1.0000 -0.0911629219
C   C42       1.0  0.29920  0.12960  0.72280  1.0000 -0.1840394374
C   C43       1.0  0.24500  0.13170  0.74810  1.0000 -0.0613793023
C   C44       1.0  0.35240  0.20670  0.77670  1.0000 -0.0705698201
C   C45       1.0  0.09510  0.44740  0.23450  1.0000 -0.2012124979
C   C46       1.0  0.06020  0.44640  0.28220  1.0000 -0.0791697054
C   C47       1.0  0.12670  0.52840  0.26690  1.0000 -0.0705698201
C   C48       1.0  0.20170  0.26550  0.12320  1.0000 -0.0911629219
C   C49       1.0  0.12510  0.60090  0.34360  1.0000 -0.0911629219
C   C50       1.0  0.09150  0.59910  0.38840  1.0000 -0.0613793023
C   C51       1.0  0.05850  0.52140  0.35670  1.0000 -0.0705698201
C   C52       1.0  0.35440  0.28540  0.85680  1.0000 -0.0705698201
C   C53       1.0  0.30240  0.28160  0.88000  1.0000 -0.0705698201
C   C54       1.0  0.24830  0.20900  0.82890  1.0000 -0.0791697054
C   C55       1.0  0.78800  0.55280  0.09480  1.0000 0.5598271143
C   C56       1.0  0.50380  0.12480  0.26400  1.0000 0.5517262942
C   C57       1.0  0.05290  0.29670  0.59440  1.0000 0.5517262942
C   C58       1.0  0.50940  0.44080  0.75340  1.0000 -0.18986695
C   C59       1.0  0.50280  0.47570  0.83290  1.0000 -0.0791697054
C   C60       1.0  0.43890  0.45860  0.83330  1.0000 -0.0791697054
C   C61       1.0  0.44860  0.39130  0.67550  1.0000 -0.0791697054
C   C62       1.0  0.38070  0.37570  0.67420  1.0000 -0.0504845578
C   C63       1.0  0.37710  0.41120  0.75490  1.0000 -0.0203246541
C   C64       1.0  0.30820  0.39600  0.75380  1.0000 0.5598271143
C   C65       1.0  0.83860  0.39720  0.26520  1.0000 -0.0203246541
C   C66       1.0  0.85580  0.41950  0.34650  1.0000 -0.0791697054
C   C67       1.0  0.81350  0.31200  0.18710  1.0000 -0.0705698201
C   C68       1.0  0.80210  0.24620  0.18690  1.0000 -0.0705698201
C   C69       1.0  0.84310  0.35410  0.34540  1.0000 -0.0911629219
C   C70       1.0  0.81750  0.26640  0.26690  1.0000 -0.2012124979
C   C71       1.0  0.84850  0.46590  0.26480  1.0000 0.5667038884
C   C72       1.0  0.57620  0.13610  0.26570  1.0000 0.0015044856
C   C73       1.0  0.59980  0.18880  0.25480  1.0000 -0.0791697054
C   C74       1.0  0.61800  0.09460  0.27720  1.0000 -0.1006520318
C   C75       1.0  0.68420  0.10760  0.27940  1.0000 -0.0911629219
C   C76       1.0  0.99970  0.27770  0.46040  1.0000 -0.0911629219
C   C77       1.0  0.94180  0.25360  0.38860  1.0000 -0.0791697054
C   C78       1.0  0.87300  0.22240  0.37440  1.0000 -0.2012124979
C   C79       1.0  0.86520  0.21990  0.43550  1.0000 -0.0791697054
C   C80       1.0  0.92530  0.24690  0.50940  1.0000 -0.0911629219
C   C81       1.0  0.99030  0.27260  0.51870  1.0000 0.0068745097
C   C82       1.0  0.63920  0.69840  0.77720  1.0000 0.0068745097
C   C83       1.0  0.57200  0.64980  0.74620  1.0000 -0.0791697054
C   C84       1.0  0.69650  0.67630  0.80160  1.0000 -0.1082511667
C   C85       1.0  0.68300  0.60730  0.79370  1.0000 -0.1006520318
C   C86       1.0  0.65040  0.77440  0.78440  1.0000 0.5517262942
C   C87       1.0  0.55930  0.57830  0.73680  1.0000 -0.0613793023
C   C88       1.0  0.61530  0.55530  0.76060  1.0000 -0.2104513228
C   C89       1.0  0.66280  0.49240  0.85580  1.0000 -0.18986695
C   C90       1.0  0.71270  0.16400  0.27130  1.0000 -0.2104513228
C   C91       1.0  0.66810  0.20640  0.26130  1.0000 -0.0504845578
C   C92       1.0  0.74750  0.53360  0.01390  1.0000 -0.0289869655
C   C93       1.0  0.71180  0.44810  0.93330  1.0000 -0.0791697054
C   C94       1.0  0.67080  0.42800  0.85520  1.0000 -0.0791697054
C   C95       1.0  0.74340  0.59840  0.01260  1.0000 -0.0911629219
C   C96       1.0  0.79920  0.07640  0.16960  1.0000 -0.1840394374
C   C97       1.0  0.74500  0.99690  0.11330  1.0000 -0.0613793023
C   C98       1.0  0.85240  0.07570  0.14570  1.0000 -0.0705698201
C   C99       1.0  0.59510  0.36060  0.64770  1.0000 -0.2012124979
C   C100      1.0  0.56020  0.27800  0.61380  1.0000 -0.0791697054
C   C101      1.0  0.62670  0.35980  0.59830  1.0000 -0.0705698201
C   C102      1.0  0.70170  0.57850  0.93620  1.0000 -0.0911629219
C   C103      1.0  0.62510  0.28150  0.52420  1.0000 -0.0911629219
C   C104      1.0  0.59150  0.20310  0.49240  1.0000 -0.0613793023
C   C105      1.0  0.55850  0.20180  0.53710  1.0000 -0.0705698201
C   C106      1.0  0.85440  0.99760  0.06900  1.0000 -0.0705698201
C   C107      1.0  0.80240  0.92240  0.02080  1.0000 -0.0705698201
C   C108      1.0  0.74830  0.91940  0.03930  1.0000 -0.0791697054
C   C109      1.0  0.95800  0.05280  0.76480  1.0000 0.5598271143
C   C110      1.0  0.36080  0.62480  0.62100  1.0000 0.5517262942
C   C111      1.0  0.20230  0.79670  0.24380  1.0000 0.5517262942
C   C112      1.0  0.18740  0.94080  0.93140  1.0000 -0.18986695
C   C113      1.0  0.14280  0.97570  0.97290  1.0000 -0.0791697054
C   C114      1.0  0.12530  0.95860  0.01970  1.0000 -0.0791697054
C   C115      1.0  0.21580  0.89130  0.94270  1.0000 -0.0791697054
C   C116      1.0  0.20150  0.87570  0.99500  1.0000 -0.0504845578
C   C117      1.0  0.15630  0.91120  0.03410  1.0000 -0.0203246541
C   C118      1.0  0.14220  0.89600  0.08780  1.0000 0.5598271143
C   C119      1.0  0.63200  0.89720  0.55860  1.0000 -0.0203246541
C   C120      1.0  0.57300  0.91950  0.56370  1.0000 -0.0791697054
C   C121      1.0  0.62490  0.81200  0.49850  1.0000 -0.0705698201
C   C122      1.0  0.55930  0.74620  0.44410  1.0000 -0.0705698201
C   C123      1.0  0.50870  0.85410  0.51100  1.0000 -0.0911629219
C   C124      1.0  0.49950  0.76640  0.44890  1.0000 -0.2012124979
C   C125      1.0  0.70110  0.96590  0.61740  1.0000 0.5667038884
C   C126      1.0  0.37040  0.63610  0.55990  1.0000 0.0015044856
C   C127      1.0  0.43400  0.68880  0.58900  1.0000 -0.0791697054
C   C128      1.0  0.31740  0.59460  0.47660  1.0000 -0.1006520318
C   C129      1.0  0.32820  0.60760  0.42340  1.0000 -0.0911629219
C   C130      1.0  0.31730  0.77770  0.27800  1.0000 -0.0911629219
C   C131      1.0  0.36500  0.75360  0.31180  1.0000 -0.0791697054
C   C132      1.0  0.34800  0.72240  0.34940  1.0000 -0.2012124979
C   C133      1.0  0.28440  0.71990  0.35470  1.0000 -0.0791697054
C   C134      1.0  0.23750  0.74690  0.32160  1.0000 -0.0911629219
C   C135      1.0  0.25390  0.77260  0.28230  1.0000 0.0068745097
C   C136      1.0  0.42120  0.19840  0.05920  1.0000 0.0068745097
C   C137      1.0  0.40360  0.14980  0.07780  1.0000 -0.0791697054
C   C138      1.0  0.37470  0.17630  0.97980  1.0000 -0.1082511667
C   C139      1.0  0.31360  0.10730  0.92430  1.0000 -0.1006520318
C   C140      1.0  0.49000  0.27440  0.12400  1.0000 0.5517262942
C   C141      1.0  0.34150  0.07830  0.01900  1.0000 -0.0613793023
C   C142      1.0  0.29470  0.05530  0.94000  1.0000 -0.2104513228
C   C143      1.0  0.13660  0.99240  0.82960  1.0000 -0.18986695
C   C144      1.0  0.39270  0.66400  0.45130  1.0000 -0.2104513228
C   C145      1.0  0.44510  0.70640  0.53830  1.0000 -0.0504845578
C   C146      1.0  0.01970  0.03360  0.78610  1.0000 -0.0289869655
C   C147      1.0  0.01480  0.94810  0.73630  1.0000 -0.0791697054
C   C148      1.0  0.07280  0.92800  0.75720  1.0000 -0.0791697054
C   C149      1.0  0.08580  0.09840  0.85500  1.0000 -0.0911629219
C   C150      1.0  0.40680  0.57640  0.27720  1.0000 -0.1840394374
C   C151      1.0  0.38360  0.49690  0.25190  1.0000 -0.0613793023
C   C152      1.0  0.43000  0.57570  0.22330  1.0000 -0.0705698201
C   C153      1.0  0.21290  0.86060  0.76550  1.0000 -0.2012124979
C   C154      1.0  0.16420  0.77800  0.71780  1.0000 -0.0791697054
C   C155      1.0  0.26150  0.85980  0.73310  1.0000 -0.0705698201
C   C156      1.0  0.14230  0.07850  0.87680  1.0000 -0.0911629219
C   C157      1.0  0.25730  0.78150  0.65640  1.0000 -0.0911629219
C   C158      1.0  0.21070  0.70310  0.61160  1.0000 -0.0613793023
C   C159      1.0  0.16470  0.70180  0.64330  1.0000 -0.0705698201
C   C160      1.0  0.42860  0.49760  0.14320  1.0000 -0.0705698201
C   C161      1.0  0.40160  0.42240  0.12000  1.0000 -0.0705698201
C   C162      1.0  0.38010  0.41940  0.17110  1.0000 -0.0791697054
C   C163      1.0  0.45800  0.69320  0.90520  1.0000 0.5598271143
C   C164      1.0  0.86080  0.23980  0.73600  1.0000 0.5517262942
C   C165      1.0  0.70230  0.45850  0.40560  1.0000 0.5517262942
C   C166      1.0  0.68740  0.75600  0.24660  1.0000 -0.18986695
C   C167      1.0  0.64280  0.66990  0.16710  1.0000 -0.0791697054
C   C168      1.0  0.62530  0.60560  0.16670  1.0000 -0.0791697054
C   C169      1.0  0.71580  0.77310  0.32450  1.0000 -0.0791697054
C   C170      1.0  0.70150  0.70650  0.32580  1.0000 -0.0504845578
C   C171      1.0  0.65630  0.62220  0.24510  1.0000 -0.0203246541
C   C172      1.0  0.64220  0.55440  0.24620  1.0000 0.5598271143
C   C173      1.0  0.13200  0.57340  0.73480  1.0000 -0.0203246541
C   C174      1.0  0.07300  0.50930  0.65350  1.0000 -0.0791697054
C   C175      1.0  0.12490  0.62640  0.81290  1.0000 -0.0613793023
C   C176      1.0  0.05930  0.61520  0.81310  1.0000 -0.0705698201
C   C177      1.0  0.00870  0.49770  0.65460  1.0000 -0.0911629219
C   C178      1.0  0.99950  0.55060  0.73310  1.0000 -0.2012124979
C   C179      1.0  0.20110  0.58370  0.73520  1.0000 0.5667038884
C   C180      1.0  0.87040  0.31050  0.73430  1.0000 0.0015044856
C   C181      1.0  0.93400  0.34500  0.74520  1.0000 -0.0791697054
C   C182      1.0  0.81740  0.34080  0.72280  1.0000 -0.1006520318
C   C183      1.0  0.82820  0.40480  0.72060  1.0000 -0.0911629219
C   C184      1.0  0.81730  0.53930  0.53960  1.0000 -0.0911629219
C   C185      1.0  0.86500  0.55320  0.61140  1.0000 -0.0791697054
C   C186      1.0  0.84800  0.49860  0.62560  1.0000 -0.2012124979
C   C187      1.0  0.78440  0.42970  0.56450  1.0000 -0.0791697054
C   C188      1.0  0.73750  0.41590  0.49060  1.0000 -0.0911629219
C   C189      1.0  0.75390  0.47160  0.48130  1.0000 0.0068745097
C   C190      1.0  0.92120  0.86200  0.22280  1.0000 0.0068745097
C   C191      1.0  0.90360  0.82580  0.25380  1.0000 -0.0791697054
C   C192      1.0  0.87470  0.89490  0.19840  1.0000 -0.1082511667
C   C193      1.0  0.81360  0.88930  0.20630  1.0000 -0.1006520318
C   C194      1.0  0.99000  0.86600  0.21560  1.0000 0.5517262942
C   C195      1.0  0.84150  0.82250  0.26320  1.0000 -0.0613793023
C   C196      1.0  0.79470  0.85470  0.23940  1.0000 -0.2104513228
C   C197      1.0  0.63660  0.80700  0.14420  1.0000 -0.18986695
C   C198      1.0  0.89270  0.44140  0.72870  1.0000 -0.2104513228
C   C199      1.0  0.94510  0.40680  0.73870  1.0000 -0.0504845578
C   C200      1.0  0.51970  0.73360  0.98610  1.0000 -0.0289869655
C   C201      1.0  0.51480  0.77850  0.06670  1.0000 -0.0791697054
C   C202      1.0  0.57280  0.81560  0.14480  1.0000 -0.0791697054
C   C203      1.0  0.58580  0.73080  0.98740  1.0000 -0.0911629219
C   C204      1.0  0.90680  0.62960  0.83040  1.0000 -0.1840394374
C   C205      1.0  0.88360  0.63170  0.88670  1.0000 -0.0613793023
C   C206      1.0  0.93000  0.70670  0.85430  1.0000 -0.0705698201
C   C207      1.0  0.71290  0.94740  0.35230  1.0000 -0.2012124979
C   C208      1.0  0.66420  0.94640  0.38620  1.0000 -0.0791697054
C   C209      1.0  0.76150  0.02840  0.40170  1.0000 -0.0705698201
C   C210      1.0  0.64230  0.76550  0.06380  1.0000 -0.0911629219
C   C211      1.0  0.75730  0.10090  0.47580  1.0000 -0.0911629219
C   C212      1.0  0.71070  0.09910  0.50760  1.0000 -0.0613793023
C   C213      1.0  0.66470  0.02140  0.46290  1.0000 -0.0705698201
C   C214      1.0  0.92860  0.78540  0.93100  1.0000 -0.0705698201
C   C215      1.0  0.90160  0.78160  0.97920  1.0000 -0.0705698201
C   C216      1.0  0.88010  0.70900  0.96070  1.0000 -0.0791697054
O   O1        1.0  0.33080  0.01860  0.18080  1.0000 -0.6401347491
O   O2        1.0  0.98570  0.70100  0.40230  1.0000 -0.5689063642
O   O3        1.0  0.31140  0.11710  0.35910  1.0000 -0.5594750617
O   O4        1.0  0.39450  0.06170  0.35320  1.0000 -0.5594750617
O   O5        1.0  0.34510  0.18670  0.22140  1.0000 -0.5820564005
O   O6        1.0  0.27440  0.16720  0.26960  1.0000 -0.5162574622
O   O7        1.0  0.67200  0.98010  0.92250  1.0000 -0.6401347491
O   O8        1.0  0.75330  0.07100  0.89450  1.0000 -0.5472490538
O   O9        1.0  0.80180  0.97900  0.88380  1.0000 -0.5689063642
O   O10       1.0  0.54370  0.89620  0.75030  1.0000 -0.5310044858
O   O11       1.0  0.09940  0.33660  0.80680  1.0000 -0.5472490538
O   O12       1.0  0.21220  0.39870  0.89290  1.0000 -0.5594750617
O   O13       1.0  0.61270  0.01450  0.79860  1.0000 -0.5375736031
O   O14       1.0  0.67110  0.87540  0.71190  1.0000 -0.6317800928
O   O15       1.0  0.42790  0.22870  0.39160  1.0000 -0.6317800928
O   O16       1.0  0.96350  0.71890  0.30880  1.0000 -0.5310044858
O   O17       1.0  0.83080  0.65000  0.31220  1.0000 -0.6401347491
O   O18       1.0  0.48570  0.08340  0.28470  1.0000 -0.5689063642
O   O19       1.0  0.81140  0.45230  0.19430  1.0000 -0.5594750617
O   O20       1.0  0.89450  0.54130  0.33280  1.0000 -0.5594750617
O   O21       1.0  0.84510  0.62370  0.15840  1.0000 -0.5820564005
O   O22       1.0  0.77440  0.50480  0.10720  1.0000 -0.5162574622
O   O23       1.0  0.17200  0.24950  0.69190  1.0000 -0.6401347491
O   O24       1.0  0.25330  0.35880  0.68230  1.0000 -0.5472490538
O   O25       1.0  0.30180  0.41800  0.82280  1.0000 -0.5689063642
O   O26       1.0  0.04370  0.29340  0.64750  1.0000 -0.5310044858
O   O27       1.0  0.59940  0.79260  0.76280  1.0000 -0.5472490538
O   O28       1.0  0.71220  0.81930  0.81350  1.0000 -0.5594750617
O   O29       1.0  0.11270  0.31410  0.59820  1.0000 -0.5375736031
O   O30       1.0  0.17110  0.45920  0.79570  1.0000 -0.6317800928
O   O31       1.0  0.92790  0.53630  0.19920  1.0000 -0.6317800928
O   O32       1.0  0.46350  0.15470  0.24460  1.0000 -0.5310044858
O   O33       1.0  0.83780  0.15000  0.81920  1.0000 -0.6401347491
O   O34       1.0  0.29870  0.58340  0.59770  1.0000 -0.5689063642
O   O35       1.0  0.75800  0.95230  0.64090  1.0000 -0.5594750617
O   O36       1.0  0.70850  0.04130  0.64680  1.0000 -0.5594750617
O   O37       1.0  0.96530  0.12370  0.77860  1.0000 -0.5820564005
O   O38       1.0  0.89760  0.00480  0.73040  1.0000 -0.5162574622
O   O39       1.0  0.05760  0.74950  0.07750  1.0000 -0.6401347491
O   O40       1.0  0.17650  0.85880  0.10550  1.0000 -0.5472490538
O   O41       1.0  0.09520  0.91800  0.11620  1.0000 -0.5689063642
O   O42       1.0  0.14590  0.79340  0.24970  1.0000 -0.5310044858
O   O43       1.0  0.52980  0.29260  0.19320  1.0000 -0.5472490538
O   O44       1.0  0.50580  0.31930  0.10710  1.0000 -0.5594750617
O   O45       1.0  0.21590  0.81410  0.20140  1.0000 -0.5375736031
O   O46       1.0  0.16350  0.95920  0.28810  1.0000 -0.6317800928
O   O47       1.0  0.83710  0.03630  0.60840  1.0000 -0.6317800928
O   O48       1.0  0.41010  0.65470  0.69120  1.0000 -0.5310044858
O   O49       1.0  0.33780  0.51860  0.68780  1.0000 -0.6401347491
O   O50       1.0  0.79870  0.20100  0.71530  1.0000 -0.5689063642
O   O51       1.0  0.25800  0.61710  0.80570  1.0000 -0.5594750617
O   O52       1.0  0.20850  0.56170  0.66720  1.0000 -0.5594750617
O   O53       1.0  0.46530  0.68670  0.84160  1.0000 -0.5820564005
O   O54       1.0  0.39760  0.66720  0.89280  1.0000 -0.5162574622
O   O55       1.0  0.55760  0.48010  0.30810  1.0000 -0.6401347491
O   O56       1.0  0.67650  0.57100  0.31770  1.0000 -0.5472490538
O   O57       1.0  0.59520  0.47900  0.17720  1.0000 -0.5689063642
O   O58       1.0  0.64590  0.39620  0.35250  1.0000 -0.5310044858
O   O59       1.0  0.02980  0.83660  0.23720  1.0000 -0.5472490538
O   O60       1.0  0.00580  0.89870  0.18650  1.0000 -0.5594750617
O   O61       1.0  0.71590  0.51450  0.40180  1.0000 -0.5375736031
O   O62       1.0  0.66350  0.37540  0.20430  1.0000 -0.6317800928
O   O63       1.0  0.33710  0.72870  0.80080  1.0000 -0.6317800928
O   O64       1.0  0.91010  0.21890  0.75540  1.0000 -0.5310044858
