# DDEC6 charges by PACMAN v1.1 (https://github.com/mtap-research/PACMAN-charge/)
data_2018[Zn][mog]2[FSR]1
_chemical_formula_sum              "Zn6 H20 C24 N8 O24"
_cell_length_a       5.1953
_cell_length_b       17.549
_cell_length_c       10.7365
_cell_angle_alpha    90
_cell_angle_beta     113.493
_cell_angle_gamma    90

_symmetry_space_group_name_H-M    "P 1"
_symmetry_Int_Tables_number       1

loop_
  _symmetry_equiv_pos_as_xyz
  'x, y, z'

loop_
  _atom_site_type_symbol
  _atom_site_label
  _atom_site_symmetry_multiplicity
  _atom_site_fract_x
  _atom_site_fract_y
  _atom_site_fract_z
  _atom_site_occupancy
  _atom_site_charge
Zn  Zn1       1.0  0.80430  0.22679  0.59063  1.0000 0.8913505457
Zn  Zn2       1.0  0.19570  0.72679  0.90937  1.0000 0.8913505457
Zn  Zn3       1.0  0.19570  0.77321  0.40937  1.0000 0.8913505457
Zn  Zn4       1.0  0.80430  0.27321  0.09063  1.0000 0.8913505457
Zn  Zn5       1.0  0.00000  0.00000  0.00000  1.0000 0.7741226934
Zn  Zn6       1.0  0.00000  0.50000  0.50000  1.0000 0.7741226934
H   H1        1.0  0.19060  0.12700  0.63200  1.0000 0.3463556848
H   H2        1.0  0.18670  0.16430  0.52210  1.0000 0.3400480308
H   H3        1.0  0.05370  0.10220  0.17790  1.0000 0.3400480308
H   H4        1.0  0.62330  0.02740  0.20030  1.0000 0.1315867685
H   H5        1.0  0.73140  0.10630  0.27010  1.0000 0.1367925785
H   H6        1.0  0.80940  0.62700  0.86800  1.0000 0.3463556848
H   H7        1.0  0.81330  0.66430  0.97790  1.0000 0.3400480308
H   H8        1.0  0.94630  0.60220  0.32210  1.0000 0.3400480308
H   H9        1.0  0.37670  0.52740  0.29970  1.0000 0.1315867685
H   H10       1.0  0.26860  0.60630  0.22990  1.0000 0.1367925785
H   H11       1.0  0.80940  0.87300  0.36800  1.0000 0.3463556848
H   H12       1.0  0.81330  0.83570  0.47790  1.0000 0.3400480308
H   H13       1.0  0.94630  0.89780  0.82210  1.0000 0.3400480308
H   H14       1.0  0.37670  0.97260  0.79970  1.0000 0.1315867685
H   H15       1.0  0.26860  0.89370  0.72990  1.0000 0.1367925785
H   H16       1.0  0.19060  0.37300  0.13200  1.0000 0.3463556848
H   H17       1.0  0.18670  0.33570  0.02210  1.0000 0.3400480308
H   H18       1.0  0.05370  0.39780  0.67790  1.0000 0.3400480308
H   H19       1.0  0.62330  0.47260  0.70030  1.0000 0.1315867685
H   H20       1.0  0.73140  0.39370  0.77010  1.0000 0.1367925785
C   C1        1.0  0.29780  0.19900  0.91080  1.0000 -0.0186599393
C   C2        1.0  0.30500  0.27290  0.84350  1.0000 0.5735731281
C   C3        1.0  0.11120  0.14060  0.89420  1.0000 -0.0186599393
C   C4        1.0  0.81010  0.12480  0.80800  1.0000 0.5735731281
C   C5        1.0  0.49500  0.11570  0.06890  1.0000 0.3400480308
C   C6        1.0  0.70070  0.07610  0.18980  1.0000 -0.0936193012
C   C7        1.0  0.70220  0.69900  0.58920  1.0000 -0.0186599393
C   C8        1.0  0.69500  0.77290  0.65650  1.0000 0.5735731281
C   C9        1.0  0.88880  0.64060  0.60580  1.0000 -0.0186599393
C   C10       1.0  0.18990  0.62480  0.69200  1.0000 0.5735731281
C   C11       1.0  0.50500  0.61570  0.43110  1.0000 0.3400480308
C   C12       1.0  0.29930  0.57610  0.31020  1.0000 -0.0936193012
C   C13       1.0  0.70220  0.80100  0.08920  1.0000 -0.0186599393
C   C14       1.0  0.69500  0.72710  0.15650  1.0000 0.5735731281
C   C15       1.0  0.88880  0.85940  0.10580  1.0000 -0.0186599393
C   C16       1.0  0.18990  0.87520  0.19200  1.0000 0.5735731281
C   C17       1.0  0.50500  0.88430  0.93110  1.0000 0.3400480308
C   C18       1.0  0.29930  0.92390  0.81020  1.0000 -0.0936193012
C   C19       1.0  0.29780  0.30100  0.41080  1.0000 -0.0186599393
C   C20       1.0  0.30500  0.22710  0.34350  1.0000 0.5735731281
C   C21       1.0  0.11120  0.35940  0.39420  1.0000 -0.0186599393
C   C22       1.0  0.81010  0.37520  0.30800  1.0000 0.5735731281
C   C23       1.0  0.49500  0.38430  0.56890  1.0000 0.3400480308
C   C24       1.0  0.70070  0.42390  0.68980  1.0000 -0.0936193012
N   N1        1.0  0.24360  0.08740  0.99440  1.0000 -0.3615009182
N   N2        1.0  0.53860  0.18330  0.02310  1.0000 -0.3825748779
N   N3        1.0  0.75640  0.58740  0.50560  1.0000 -0.3615009182
N   N4        1.0  0.46140  0.68330  0.47690  1.0000 -0.3825748779
N   N5        1.0  0.75640  0.91260  0.00560  1.0000 -0.3615009182
N   N6        1.0  0.46140  0.81670  0.97690  1.0000 -0.3825748779
N   N7        1.0  0.24360  0.41260  0.49440  1.0000 -0.3615009182
N   N8        1.0  0.53860  0.31670  0.52310  1.0000 -0.3825748779
O   O1        1.0  0.70480  0.06744  0.83950  1.0000 -0.5108505704
O   O2        1.0  0.11560  0.28946  0.72830  1.0000 -0.5600542046
O   O3        1.0  0.50800  0.31631  0.90420  1.0000 -0.5206832506
O   O4        1.0  0.66800  0.16858  0.71170  1.0000 -0.5677380778
O   O5        1.0  0.08550  0.15420  0.56560  1.0000 -0.6264160343
O   O6        1.0  0.96380  0.06370  0.17960  1.0000 -0.3996801593
O   O7        1.0  0.29520  0.56744  0.66050  1.0000 -0.5108505704
O   O8        1.0  0.88440  0.78946  0.77170  1.0000 -0.5600542046
O   O9        1.0  0.49200  0.81631  0.59580  1.0000 -0.5206832506
O   O10       1.0  0.33200  0.66858  0.78830  1.0000 -0.5677380778
O   O11       1.0  0.91450  0.65420  0.93440  1.0000 -0.6264160343
O   O12       1.0  0.03620  0.56370  0.32040  1.0000 -0.3996801593
O   O13       1.0  0.29520  0.93256  0.16050  1.0000 -0.5108505704
O   O14       1.0  0.88440  0.71054  0.27170  1.0000 -0.5600542046
O   O15       1.0  0.49200  0.68369  0.09580  1.0000 -0.5206832506
O   O16       1.0  0.33200  0.83142  0.28830  1.0000 -0.5677380778
O   O17       1.0  0.91450  0.84580  0.43440  1.0000 -0.6264160343
O   O18       1.0  0.03620  0.93630  0.82040  1.0000 -0.3996801593
O   O19       1.0  0.70480  0.43256  0.33950  1.0000 -0.5108505704
O   O20       1.0  0.11560  0.21054  0.22830  1.0000 -0.5600542046
O   O21       1.0  0.50800  0.18369  0.40420  1.0000 -0.5206832506
O   O22       1.0  0.66800  0.33142  0.21170  1.0000 -0.5677380778
O   O23       1.0  0.08550  0.34580  0.06560  1.0000 -0.6264160343
O   O24       1.0  0.96380  0.43630  0.67960  1.0000 -0.3996801593
