# DDEC6 charges by PACMAN v1.1 (https://github.com/mtap-research/PACMAN-charge/)
data_2018[Cd][tfz]3[FSR]3
_chemical_formula_sum              "Cd6 H112 C172 N12 O24"
_cell_length_a       16.852
_cell_length_b       16.957
_cell_length_c       20.647
_cell_angle_alpha    84.87
_cell_angle_beta     113.43
_cell_angle_gamma    117.79

_symmetry_space_group_name_H-M    "P 1"
_symmetry_Int_Tables_number       1

loop_
  _symmetry_equiv_pos_as_xyz
  'x, y, z'

loop_
  _atom_site_type_symbol
  _atom_site_label
  _atom_site_symmetry_multiplicity
  _atom_site_fract_x
  _atom_site_fract_y
  _atom_site_fract_z
  _atom_site_occupancy
  _atom_site_charge
Cd  Cd1       1.0  0.87517  0.71924  0.91291  1.0000 0.8907560643
Cd  Cd2       1.0  0.80272  0.85121  0.74100  1.0000 0.9611536499
Cd  Cd3       1.0  0.70903  0.96459  0.55383  1.0000 0.8907560643
Cd  Cd4       1.0  0.12483  0.28076  0.08709  1.0000 0.8907560643
Cd  Cd5       1.0  0.19728  0.14879  0.25900  1.0000 0.9611536499
Cd  Cd6       1.0  0.29097  0.03541  0.44617  1.0000 0.8907560643
H   H1        1.0  0.01217  0.64848  0.03107  1.0000 0.110232486
H   H2        1.0  0.15098  0.68846  0.13529  1.0000 0.1387268428
H   H3        1.0  0.19117  0.94199  0.13116  1.0000 0.1300086167
H   H4        1.0  0.05495  0.89573  0.02337  1.0000 0.1013747446
H   H5        1.0  0.28123  0.89573  0.24533  1.0000 0.1387268428
H   H6        1.0  0.32652  0.77432  0.21765  1.0000 0.1300086167
H   H7        1.0  0.51162  0.84096  0.28421  1.0000 0.1387268428
H   H8        1.0  0.64359  0.89950  0.39144  1.0000 0.1176344834
H   H9        1.0  0.48810  0.92646  0.47480  1.0000 0.110232486
H   H10       1.0  0.35652  0.88459  0.36729  1.0000 0.1526588615
H   H11       1.0  0.60095  0.68207  0.65513  1.0000 0.110232486
H   H12       1.0  0.53137  0.54739  0.58678  1.0000 0.1300086167
H   H13       1.0  0.79532  0.56420  0.65474  1.0000 0.1300086167
H   H14       1.0  0.85873  0.69853  0.71722  1.0000 0.110232486
H   H15       1.0  0.47743  0.39149  0.58498  1.0000 0.1387268428
H   H16       1.0  0.41001  0.25976  0.51968  1.0000 0.1013747446
H   H17       1.0  0.63856  0.32187  0.48911  1.0000 0.1013747446
H   H18       1.0  0.72103  0.46458  0.55468  1.0000 0.1300086167
H   H19       1.0  0.00007  0.00235  0.86463  1.0000 0.110232486
H   H20       1.0  0.10229  0.15414  0.89465  1.0000 0.1300086167
H   H21       1.0  0.89674  0.18911  0.72246  1.0000 0.1300086167
H   H22       1.0  0.80002  0.03635  0.70325  1.0000 0.1013747446
H   H23       1.0  0.15262  0.29474  0.93204  1.0000 0.1300086167
H   H24       1.0  0.23484  0.44934  0.95431  1.0000 0.110232486
H   H25       1.0  0.12185  0.47761  0.75616  1.0000 0.110232486
H   H26       1.0  0.02266  0.32289  0.72575  1.0000 0.1176344834
H   H27       1.0  0.81480  0.92935  0.00860  1.0000 0.110232486
H   H28       1.0  0.72609  0.99995  0.01042  1.0000 0.110232486
H   H29       1.0  0.53882  0.89358  0.80718  1.0000 0.1176344834
H   H30       1.0  0.63020  0.82650  0.80425  1.0000 0.110232486
H   H31       1.0  0.57641  0.41428  0.83767  1.0000 0.1300086167
H   H32       1.0  0.50205  0.26224  0.83351  1.0000 0.1176344834
H   H33       1.0  0.75354  0.27472  0.97430  1.0000 0.110232486
H   H34       1.0  0.83446  0.42854  0.96942  1.0000 0.1176344834
H   H35       1.0  0.14413  0.77514  0.89462  1.0000 0.1176344834
H   H36       1.0  0.31060  0.84978  0.91801  1.0000 0.1176344834
H   H37       1.0  0.27727  0.05464  0.81786  1.0000 0.1176344834
H   H38       1.0  0.11207  0.98166  0.79867  1.0000 0.1176344834
H   H39       1.0  0.68801  0.13270  0.92579  1.0000 0.110232486
H   H40       1.0  0.43327  0.13471  0.88567  1.0000 0.110232486
H   H41       1.0  0.43760  0.89935  0.88341  1.0000 0.1176344834
H   H42       1.0  0.49286  0.71005  0.70020  1.0000 0.110232486
H   H43       1.0  0.32977  0.63583  0.68605  1.0000 0.110232486
H   H44       1.0  0.28847  0.83592  0.58066  1.0000 0.1176344834
H   H45       1.0  0.44556  0.90326  0.58752  1.0000 0.110232486
H   H46       1.0  0.78875  0.26965  0.61303  1.0000 0.110232486
H   H47       1.0  0.87444  0.42663  0.62348  1.0000 0.110232486
H   H48       1.0  0.06664  0.41371  0.56202  1.0000 0.110232486
H   H49       1.0  0.97381  0.25569  0.54336  1.0000 0.1176344834
H   H50       1.0  0.98559  0.89443  0.67838  1.0000 0.1176344834
H   H51       1.0  0.07653  0.82184  0.68735  1.0000 0.1176344834
H   H52       1.0  0.86318  0.66168  0.50724  1.0000 0.1176344834
H   H53       1.0  0.77889  0.73922  0.49442  1.0000 0.1176344834
H   H54       1.0  0.16632  0.55193  0.61633  1.0000 0.110232486
H   H55       1.0  0.91823  0.55643  0.58592  1.0000 0.1013747446
H   H56       1.0  0.16825  0.78988  0.62610  1.0000 0.1300086167
H   H57       1.0  0.98783  0.35152  0.96893  1.0000 0.110232486
H   H58       1.0  0.84902  0.31154  0.86471  1.0000 0.1387268428
H   H59       1.0  0.80883  0.05801  0.86884  1.0000 0.1300086167
H   H60       1.0  0.94505  0.10427  0.97663  1.0000 0.1013747446
H   H61       1.0  0.71877  0.10427  0.75467  1.0000 0.1387268428
H   H62       1.0  0.67348  0.22568  0.78235  1.0000 0.1300086167
H   H63       1.0  0.48838  0.15904  0.71579  1.0000 0.1387268428
H   H64       1.0  0.35641  0.10050  0.60856  1.0000 0.1176344834
H   H65       1.0  0.51190  0.07354  0.52520  1.0000 0.110232486
H   H66       1.0  0.64348  0.11541  0.63271  1.0000 0.1526588615
H   H67       1.0  0.39905  0.31793  0.34487  1.0000 0.110232486
H   H68       1.0  0.46863  0.45261  0.41322  1.0000 0.1300086167
H   H69       1.0  0.20468  0.43580  0.34526  1.0000 0.1300086167
H   H70       1.0  0.14127  0.30147  0.28278  1.0000 0.110232486
H   H71       1.0  0.52257  0.60851  0.41502  1.0000 0.1387268428
H   H72       1.0  0.58999  0.74024  0.48032  1.0000 0.1013747446
H   H73       1.0  0.36144  0.67813  0.51089  1.0000 0.1013747446
H   H74       1.0  0.27897  0.53542  0.44532  1.0000 0.1300086167
H   H75       1.0  0.99993  0.99765  0.13537  1.0000 0.110232486
H   H76       1.0  0.89771  0.84586  0.10535  1.0000 0.1300086167
H   H77       1.0  0.10326  0.81089  0.27754  1.0000 0.1300086167
H   H78       1.0  0.19998  0.96365  0.29675  1.0000 0.1013747446
H   H79       1.0  0.84738  0.70526  0.06796  1.0000 0.1300086167
H   H80       1.0  0.76516  0.55066  0.04569  1.0000 0.110232486
H   H81       1.0  0.87815  0.52239  0.24384  1.0000 0.110232486
H   H82       1.0  0.97734  0.67711  0.27425  1.0000 0.1176344834
H   H83       1.0  0.18520  0.07065  0.99140  1.0000 0.110232486
H   H84       1.0  0.27391  0.00005  0.98958  1.0000 0.110232486
H   H85       1.0  0.46118  0.10642  0.19282  1.0000 0.1176344834
H   H86       1.0  0.36980  0.17350  0.19575  1.0000 0.110232486
H   H87       1.0  0.42359  0.58572  0.16233  1.0000 0.1300086167
H   H88       1.0  0.49795  0.73776  0.16649  1.0000 0.1176344834
H   H89       1.0  0.24646  0.72528  0.02570  1.0000 0.110232486
H   H90       1.0  0.16554  0.57146  0.03058  1.0000 0.1176344834
H   H91       1.0  0.85587  0.22486  0.10538  1.0000 0.1176344834
H   H92       1.0  0.68940  0.15022  0.08199  1.0000 0.1176344834
H   H93       1.0  0.72273  0.94536  0.18214  1.0000 0.1176344834
H   H94       1.0  0.88793  0.01834  0.20133  1.0000 0.1176344834
H   H95       1.0  0.31199  0.86730  0.07421  1.0000 0.110232486
H   H96       1.0  0.56673  0.86529  0.11433  1.0000 0.110232486
H   H97       1.0  0.56240  0.10065  0.11659  1.0000 0.1176344834
H   H98       1.0  0.50714  0.28995  0.29980  1.0000 0.110232486
H   H99       1.0  0.67023  0.36417  0.31395  1.0000 0.110232486
H   H100      1.0  0.71153  0.16408  0.41934  1.0000 0.1176344834
H   H101      1.0  0.55444  0.09674  0.41248  1.0000 0.110232486
H   H102      1.0  0.21125  0.73035  0.38697  1.0000 0.110232486
H   H103      1.0  0.12556  0.57337  0.37652  1.0000 0.110232486
H   H104      1.0  0.93336  0.58629  0.43798  1.0000 0.110232486
H   H105      1.0  0.02619  0.74431  0.45664  1.0000 0.1176344834
H   H106      1.0  0.01441  0.10557  0.32162  1.0000 0.1176344834
H   H107      1.0  0.92347  0.17816  0.31265  1.0000 0.1176344834
H   H108      1.0  0.13682  0.33832  0.49276  1.0000 0.1176344834
H   H109      1.0  0.22111  0.26078  0.50558  1.0000 0.1176344834
H   H110      1.0  0.83368  0.44807  0.38367  1.0000 0.110232486
H   H111      1.0  0.08177  0.44357  0.41408  1.0000 0.1013747446
H   H112      1.0  0.83175  0.21012  0.37390  1.0000 0.1300086167
C   C1        1.0  0.04890  0.70860  0.05160  1.0000 0.089299744
C   C2        1.0  0.13150  0.73170  0.11480  1.0000 -0.1994731042
C   C3        1.0  0.18580  0.82110  0.14760  1.0000 0.1550149706
C   C4        1.0  0.15580  0.88130  0.11200  1.0000 -0.1888142977
C   C5        1.0  0.07300  0.85300  0.04740  1.0000 0.089299744
C   C6        1.0  0.27200  0.84960  0.21660  1.0000 -0.1215691272
C   C7        1.0  0.33450  0.82270  0.24290  1.0000 -0.1215691272
C   C8        1.0  0.42120  0.86310  0.31240  1.0000 0.1526588615
C   C9        1.0  0.50650  0.86300  0.32170  1.0000 -0.1994731042
C   C10       1.0  0.58430  0.89600  0.38680  1.0000 0.0712933842
C   C11       1.0  0.49500  0.91390  0.43450  1.0000 0.0712933842
C   C12       1.0  0.41480  0.88680  0.37060  1.0000 -0.1827379478
C   C13       1.0  0.64180  0.65890  0.65490  1.0000 0.1013747446
C   C14       1.0  0.59910  0.57620  0.61510  1.0000 -0.1994731042
C   C15       1.0  0.65410  0.53670  0.61660  1.0000 0.110232486
C   C16       1.0  0.75310  0.58610  0.65420  1.0000 -0.1888142977
C   C17       1.0  0.79060  0.66730  0.69090  1.0000 0.0712933842
C   C18       1.0  0.60840  0.44640  0.57670  1.0000 0.1013747446
C   C19       1.0  0.51400  0.38080  0.56570  1.0000 -0.2101821858
C   C20       1.0  0.47480  0.30150  0.52710  1.0000 0.0712933842
C   C21       1.0  0.60520  0.33660  0.50910  1.0000 0.089299744
C   C22       1.0  0.65640  0.42420  0.54860  1.0000 -0.2163713786
C   C23       1.0  0.97890  0.04130  0.83670  1.0000 0.089299744
C   C24       1.0  0.04230  0.13200  0.85460  1.0000 -0.2101821858
C   C25       1.0  0.01250  0.19050  0.80960  1.0000 0.1176344834
C   C26       1.0  0.91930  0.15230  0.75260  1.0000 -0.1994731042
C   C27       1.0  0.86190  0.06090  0.74150  1.0000 0.0636634689
C   C28       1.0  0.07700  0.29000  0.82710  1.0000 0.1013747446
C   C29       1.0  0.14270  0.32970  0.89470  1.0000 -0.1888142977
C   C30       1.0  0.19450  0.42290  0.90700  1.0000 0.0812529039
C   C31       1.0  0.12750  0.43970  0.79190  1.0000 0.0712933842
C   C32       1.0  0.06760  0.34680  0.77290  1.0000 -0.1994731042
C   C33       1.0  0.78910  0.82430  0.90530  1.0000 0.5696587351
C   C34       1.0  0.73200  0.87130  0.90540  1.0000 -0.0287500435
C   C35       1.0  0.76010  0.92340  0.96760  1.0000 -0.1215691272
C   C36       1.0  0.70730  0.96580  0.96850  1.0000 -0.1588251962
C   C37       1.0  0.62590  0.95840  0.90740  1.0000 0.0712933842
C   C38       1.0  0.59600  0.90300  0.84720  1.0000 -0.1512783879
C   C39       1.0  0.64980  0.86150  0.84590  1.0000 -0.1009428296
C   C40       1.0  0.76700  0.53650  0.90090  1.0000 0.5206920441
C   C41       1.0  0.71550  0.43930  0.90250  1.0000 -0.0404813477
C   C42       1.0  0.61410  0.38620  0.86380  1.0000 -0.0924291227
C   C43       1.0  0.56900  0.29550  0.86300  1.0000 -0.1588251962
C   C44       1.0  0.61900  0.25030  0.90480  1.0000 0.0712933842
C   C45       1.0  0.71750  0.30240  0.94470  1.0000 -0.1588251962
C   C46       1.0  0.76650  0.39580  0.94290  1.0000 -0.1009428296
C   C47       1.0  0.00420  0.82340  0.83280  1.0000 0.5696587351
C   C48       1.0  0.11210  0.87020  0.84540  1.0000 -0.0404813477
C   C49       1.0  0.17110  0.83210  0.87970  1.0000 -0.1079597635
C   C50       1.0  0.27070  0.87620  0.89310  1.0000 -0.1588251962
C   C51       1.0  0.31070  0.95980  0.86940  1.0000 0.0812529039
C   C52       1.0  0.25090  0.99840  0.83400  1.0000 -0.1588251962
C   C53       1.0  0.15190  0.95470  0.82220  1.0000 -0.1079597635
C   C54       1.0  0.57220  0.00870  0.90550  1.0000 0.0812529039
C   C55       1.0  0.62010  0.10190  0.91390  1.0000 -0.1994731042
C   C56       1.0  0.56900  0.15200  0.90490  1.0000 0.0812529039
C   C57       1.0  0.46840  0.10310  0.89090  1.0000 -0.2101821858
C   C58       1.0  0.41940  0.01060  0.88460  1.0000 0.0812529039
C   C59       1.0  0.47090  0.96240  0.89010  1.0000 -0.1994731042
C   C60       1.0  0.59090  0.86050  0.64960  1.0000 0.5696587351
C   C61       1.0  0.48760  0.81500  0.64480  1.0000 -0.0404813477
C   C62       1.0  0.45100  0.73440  0.67470  1.0000 -0.1215691272
C   C63       1.0  0.35310  0.69030  0.66690  1.0000 -0.1588251962
C   C64       1.0  0.28940  0.72630  0.63070  1.0000 0.0712933842
C   C65       1.0  0.32850  0.80880  0.60320  1.0000 -0.1512783879
C   C66       1.0  0.42330  0.85020  0.60860  1.0000 -0.1079597635
C   C67       1.0  0.81360  0.14620  0.56330  1.0000 0.5306808289
C   C68       1.0  0.87300  0.24750  0.57480  1.0000 -0.0287500435
C   C69       1.0  0.84300  0.29830  0.60080  1.0000 -0.1215691272
C   C70       1.0  0.89590  0.39260  0.60810  1.0000 -0.168844587
C   C71       1.0  0.97830  0.43650  0.59330  1.0000 0.0712933842
C   C72       1.0  0.00930  0.38540  0.57060  1.0000 -0.1588251962
C   C73       1.0  0.95390  0.28980  0.56040  1.0000 -0.1009428296
C   C74       1.0  0.81270  0.87130  0.57870  1.0000 0.5696587351
C   C75       1.0  0.87200  0.82430  0.58600  1.0000 -0.0287500435
C   C76       1.0  0.96120  0.84790  0.64320  1.0000 -0.1009428296
C   C77       1.0  0.01520  0.80350  0.64910  1.0000 -0.1445516709
C   C78       1.0  0.97960  0.73290  0.59960  1.0000 0.0712933842
C   C79       1.0  0.88890  0.70960  0.54170  1.0000 -0.1512783879
C   C80       1.0  0.83790  0.75480  0.53450  1.0000 -0.1009428296
C   C81       1.0  0.18450  0.67880  0.62110  1.0000 0.089299744
C   C82       1.0  0.13320  0.58480  0.61340  1.0000 -0.2101821858
C   C83       1.0  0.03380  0.53860  0.60150  1.0000 0.0812529039
C   C84       1.0  0.98560  0.58720  0.59600  1.0000 -0.2101821858
C   C85       1.0  0.03440  0.68210  0.60500  1.0000 0.0812529039
C   C86       1.0  0.13420  0.72680  0.61850  1.0000 -0.1994731042
C   C87       1.0  0.95110  0.29140  0.94840  1.0000 0.089299744
C   C88       1.0  0.86850  0.26830  0.88520  1.0000 -0.1994731042
C   C89       1.0  0.81420  0.17890  0.85240  1.0000 0.1526588615
C   C90       1.0  0.84420  0.11870  0.88800  1.0000 -0.1888142977
C   C91       1.0  0.92700  0.14700  0.95260  1.0000 0.089299744
C   C92       1.0  0.72800  0.15040  0.78340  1.0000 -0.1215691272
C   C93       1.0  0.66550  0.17730  0.75710  1.0000 -0.1215691272
C   C94       1.0  0.57880  0.13690  0.68760  1.0000 0.1526588615
C   C95       1.0  0.49350  0.13700  0.67830  1.0000 -0.1994731042
C   C96       1.0  0.41570  0.10400  0.61320  1.0000 0.0712933842
C   C97       1.0  0.50500  0.08610  0.56550  1.0000 0.0712933842
C   C98       1.0  0.58520  0.11320  0.62940  1.0000 -0.1827379478
C   C99       1.0  0.35820  0.34110  0.34510  1.0000 0.1013747446
C   C100      1.0  0.40090  0.42380  0.38490  1.0000 -0.1994731042
C   C101      1.0  0.34590  0.46330  0.38340  1.0000 0.110232486
C   C102      1.0  0.24690  0.41390  0.34580  1.0000 -0.1888142977
C   C103      1.0  0.20940  0.33270  0.30910  1.0000 0.0712933842
C   C104      1.0  0.39160  0.55360  0.42330  1.0000 0.1013747446
C   C105      1.0  0.48600  0.61920  0.43430  1.0000 -0.2101821858
C   C106      1.0  0.52520  0.69850  0.47290  1.0000 0.0712933842
C   C107      1.0  0.39480  0.66340  0.49090  1.0000 0.089299744
C   C108      1.0  0.34360  0.57580  0.45140  1.0000 -0.2163713786
C   C109      1.0  0.02110  0.95870  0.16330  1.0000 0.089299744
C   C110      1.0  0.95770  0.86800  0.14540  1.0000 -0.2101821858
C   C111      1.0  0.98750  0.80950  0.19040  1.0000 0.1176344834
C   C112      1.0  0.08070  0.84770  0.24740  1.0000 -0.1994731042
C   C113      1.0  0.13810  0.93910  0.25850  1.0000 0.0636634689
C   C114      1.0  0.92300  0.71000  0.17290  1.0000 0.1013747446
C   C115      1.0  0.85730  0.67030  0.10530  1.0000 -0.1827379478
C   C116      1.0  0.80550  0.57710  0.09300  1.0000 0.0812529039
C   C117      1.0  0.87250  0.56030  0.20810  1.0000 0.0712933842
C   C118      1.0  0.93240  0.65320  0.22710  1.0000 -0.1994731042
C   C119      1.0  0.21090  0.17570  0.09470  1.0000 0.5696587351
C   C120      1.0  0.26800  0.12870  0.09460  1.0000 -0.0287500435
C   C121      1.0  0.23990  0.07660  0.03240  1.0000 -0.1215691272
C   C122      1.0  0.29270  0.03420  0.03150  1.0000 -0.1588251962
C   C123      1.0  0.37410  0.04160  0.09260  1.0000 0.0712933842
C   C124      1.0  0.40400  0.09700  0.15280  1.0000 -0.1512783879
C   C125      1.0  0.35020  0.13850  0.15410  1.0000 -0.1009428296
C   C126      1.0  0.23300  0.46350  0.09910  1.0000 0.5206920441
C   C127      1.0  0.28450  0.56070  0.09750  1.0000 -0.0404813477
C   C128      1.0  0.38590  0.61380  0.13620  1.0000 -0.0924291227
C   C129      1.0  0.43100  0.70450  0.13700  1.0000 -0.1588251962
C   C130      1.0  0.38100  0.74970  0.09520  1.0000 0.0712933842
C   C131      1.0  0.28250  0.69760  0.05530  1.0000 -0.1588251962
C   C132      1.0  0.23350  0.60420  0.05710  1.0000 -0.1009428296
C   C133      1.0  0.99580  0.17660  0.16720  1.0000 0.5696587351
C   C134      1.0  0.88790  0.12980  0.15460  1.0000 -0.0404813477
C   C135      1.0  0.82890  0.16790  0.12030  1.0000 -0.1079597635
C   C136      1.0  0.72930  0.12380  0.10690  1.0000 -0.1588251962
C   C137      1.0  0.68930  0.04020  0.13060  1.0000 0.0812529039
C   C138      1.0  0.74910  0.00160  0.16600  1.0000 -0.1588251962
C   C139      1.0  0.84810  0.04530  0.17780  1.0000 -0.1079597635
C   C140      1.0  0.42780  0.99130  0.09450  1.0000 0.0812529039
C   C141      1.0  0.37990  0.89810  0.08610  1.0000 -0.1994731042
C   C142      1.0  0.43100  0.84800  0.09510  1.0000 0.0812529039
C   C143      1.0  0.53160  0.89690  0.10910  1.0000 -0.2101821858
C   C144      1.0  0.58060  0.98940  0.11540  1.0000 0.0812529039
C   C145      1.0  0.52910  0.03760  0.10990  1.0000 -0.1994731042
C   C146      1.0  0.40910  0.13950  0.35040  1.0000 0.5696587351
C   C147      1.0  0.51240  0.18500  0.35520  1.0000 -0.0404813477
C   C148      1.0  0.54900  0.26560  0.32530  1.0000 -0.1215691272
C   C149      1.0  0.64690  0.30970  0.33310  1.0000 -0.1588251962
C   C150      1.0  0.71060  0.27370  0.36930  1.0000 0.0712933842
C   C151      1.0  0.67150  0.19120  0.39680  1.0000 -0.1512783879
C   C152      1.0  0.57670  0.14980  0.39140  1.0000 -0.1079597635
C   C153      1.0  0.18640  0.85380  0.43670  1.0000 0.5306808289
C   C154      1.0  0.12700  0.75250  0.42520  1.0000 -0.0287500435
C   C155      1.0  0.15700  0.70170  0.39920  1.0000 -0.1215691272
C   C156      1.0  0.10410  0.60740  0.39190  1.0000 -0.168844587
C   C157      1.0  0.02170  0.56350  0.40670  1.0000 0.0712933842
C   C158      1.0  0.99070  0.61460  0.42940  1.0000 -0.1588251962
C   C159      1.0  0.04610  0.71020  0.43960  1.0000 -0.1009428296
C   C160      1.0  0.18730  0.12870  0.42130  1.0000 0.5696587351
C   C161      1.0  0.12800  0.17570  0.41400  1.0000 -0.0287500435
C   C162      1.0  0.03880  0.15210  0.35680  1.0000 -0.1009428296
C   C163      1.0  0.98480  0.19650  0.35090  1.0000 -0.1445516709
C   C164      1.0  0.02040  0.26710  0.40040  1.0000 0.0712933842
C   C165      1.0  0.11110  0.29040  0.45830  1.0000 -0.1512783879
C   C166      1.0  0.16210  0.24520  0.46550  1.0000 -0.1009428296
C   C167      1.0  0.81550  0.32120  0.37890  1.0000 0.089299744
C   C168      1.0  0.86680  0.41520  0.38660  1.0000 -0.2101821858
C   C169      1.0  0.96620  0.46140  0.39850  1.0000 0.0812529039
C   C170      1.0  0.01440  0.41280  0.40400  1.0000 -0.2101821858
C   C171      1.0  0.96560  0.31790  0.39500  1.0000 0.0812529039
C   C172      1.0  0.86580  0.27320  0.38150  1.0000 -0.1994731042
N   N1        1.0  0.01890  0.76690  0.01880  1.0000 -0.2497710202
N   N2        1.0  0.58120  0.92360  0.44300  1.0000 -0.234592146
N   N3        1.0  0.73730  0.70600  0.69210  1.0000 -0.2423451382
N   N4        1.0  0.51820  0.27760  0.49930  1.0000 -0.2423451382
N   N5        1.0  0.89010  0.00370  0.78320  1.0000 -0.2631869454
N   N6        1.0  0.19110  0.47680  0.85710  1.0000 -0.2631869454
N   N7        1.0  0.98110  0.23310  0.98120  1.0000 -0.2497710202
N   N8        1.0  0.41880  0.07640  0.55700  1.0000 -0.234592146
N   N9        1.0  0.26270  0.29400  0.30790  1.0000 -0.2423451382
N   N10       1.0  0.48180  0.72240  0.50070  1.0000 -0.2423451382
N   N11       1.0  0.10990  0.99630  0.21680  1.0000 -0.2631869454
N   N12       1.0  0.80890  0.52320  0.14290  1.0000 -0.2631869454
O   O1        1.0  0.84410  0.81260  0.96380  1.0000 -0.5575062099
O   O2        1.0  0.77830  0.79390  0.84620  1.0000 -0.5781229797
O   O3        1.0  0.85810  0.57720  0.93170  1.0000 -0.5207431826
O   O4        1.0  0.72520  0.58040  0.87700  1.0000 -0.4766053024
O   O5        1.0  0.97200  0.74930  0.85620  1.0000 -0.539946622
O   O6        1.0  0.95570  0.86270  0.79970  1.0000 -0.5781229797
O   O7        1.0  0.64700  0.83060  0.69090  1.0000 -0.5781229797
O   O8        1.0  0.61490  0.92450  0.61420  1.0000 -0.5512160722
O   O9        1.0  0.83230  0.10100  0.53330  1.0000 -0.5207431826
O   O10       1.0  0.74810  0.10870  0.58710  1.0000 -0.5575062099
O   O11       1.0  0.82300  0.90990  0.63430  1.0000 -0.5923412505
O   O12       1.0  0.75480  0.87290  0.51850  1.0000 -0.5331702295
O   O13       1.0  0.15590  0.18740  0.03620  1.0000 -0.5575062099
O   O14       1.0  0.22170  0.20610  0.15380  1.0000 -0.5781229797
O   O15       1.0  0.14190  0.42280  0.06830  1.0000 -0.5207431826
O   O16       1.0  0.27480  0.41960  0.12300  1.0000 -0.4766053024
O   O17       1.0  0.02800  0.25070  0.14380  1.0000 -0.539946622
O   O18       1.0  0.04430  0.13730  0.20030  1.0000 -0.5781229797
O   O19       1.0  0.35300  0.16940  0.30910  1.0000 -0.5781229797
O   O20       1.0  0.38510  0.07550  0.38580  1.0000 -0.5512160722
O   O21       1.0  0.16770  0.89900  0.46670  1.0000 -0.5207431826
O   O22       1.0  0.25190  0.89130  0.41290  1.0000 -0.5575062099
O   O23       1.0  0.17700  0.09010  0.36570  1.0000 -0.5923412505
O   O24       1.0  0.24520  0.12710  0.48150  1.0000 -0.5331702295
