# DDEC6 charges by PACMAN v1.1 (https://github.com/mtap-research/PACMAN-charge/)
data_2018[Cu][nan]3[FSR]14
_chemical_formula_sum              "Cu24 H112 C256 O80 F96"
_cell_length_a       10.5076
_cell_length_b       33.8086
_cell_length_c       29.4609
_cell_angle_alpha    90
_cell_angle_beta     95.482
_cell_angle_gamma    90

_symmetry_space_group_name_H-M    "P 1"
_symmetry_Int_Tables_number       1

loop_
  _symmetry_equiv_pos_as_xyz
  'x, y, z'

loop_
  _atom_site_type_symbol
  _atom_site_label
  _atom_site_symmetry_multiplicity
  _atom_site_fract_x
  _atom_site_fract_y
  _atom_site_fract_z
  _atom_site_occupancy
  _atom_site_charge
Cu  Cu1       1.0  0.68793  0.75890  0.71129  1.0000 0.9495766114
Cu  Cu2       1.0  0.98129  0.76909  0.74226  1.0000 0.937542225
Cu  Cu3       1.0  0.89598  0.70797  0.67301  1.0000 0.937542225
Cu  Cu4       1.0  0.18880  0.70657  0.71374  1.0000 0.9796786706
Cu  Cu5       1.0  0.49871  0.69787  0.74582  1.0000 0.937542225
Cu  Cu6       1.0  0.40185  0.75989  0.67777  1.0000 0.937542225
Cu  Cu7       1.0  0.31207  0.25890  0.78871  1.0000 0.9495766114
Cu  Cu8       1.0  0.01871  0.26909  0.75774  1.0000 0.937542225
Cu  Cu9       1.0  0.10402  0.20797  0.82699  1.0000 0.937542225
Cu  Cu10      1.0  0.81120  0.20657  0.78626  1.0000 0.9796786706
Cu  Cu11      1.0  0.50129  0.19787  0.75418  1.0000 0.937542225
Cu  Cu12      1.0  0.59815  0.25989  0.82223  1.0000 0.937542225
Cu  Cu13      1.0  0.31207  0.24110  0.28871  1.0000 0.9495766114
Cu  Cu14      1.0  0.01871  0.23091  0.25774  1.0000 0.937542225
Cu  Cu15      1.0  0.10402  0.29203  0.32699  1.0000 0.937542225
Cu  Cu16      1.0  0.81120  0.29343  0.28626  1.0000 0.9796786706
Cu  Cu17      1.0  0.50129  0.30213  0.25418  1.0000 0.937542225
Cu  Cu18      1.0  0.59815  0.24011  0.32223  1.0000 0.937542225
Cu  Cu19      1.0  0.68793  0.74110  0.21129  1.0000 0.9495766114
Cu  Cu20      1.0  0.98129  0.73091  0.24226  1.0000 0.937542225
Cu  Cu21      1.0  0.89598  0.79203  0.17301  1.0000 0.937542225
Cu  Cu22      1.0  0.18880  0.79343  0.21374  1.0000 0.9796786706
Cu  Cu23      1.0  0.49871  0.80213  0.24582  1.0000 0.937542225
Cu  Cu24      1.0  0.40185  0.74011  0.17777  1.0000 0.937542225
H   H1        1.0  0.36790  0.68480  0.66850  1.0000 0.4234581541
H   H2        1.0  0.86000  0.78160  0.66430  1.0000 0.4234581541
H   H3        1.0  0.50470  0.77110  0.75720  1.0000 0.4111639957
H   H4        1.0  0.99270  0.69520  0.75340  1.0000 0.4111639957
H   H5        1.0  0.91350  0.87760  0.81170  1.0000 0.1222457244
H   H6        1.0  0.06060  0.97750  0.72230  1.0000 0.1290510692
H   H7        1.0  0.05720  0.91320  0.69770  1.0000 0.1222457244
H   H8        1.0  0.14790  0.08470  0.83870  1.0000 0.1290510692
H   H9        1.0  0.78210  0.08660  0.78240  1.0000 0.1290510692
H   H10       1.0  0.79810  0.01990  0.76400  1.0000 0.1290510692
H   H11       1.0  0.18560  0.68910  0.35620  1.0000 0.1290510692
H   H12       1.0  0.53010  0.76620  0.41410  1.0000 0.1222457244
H   H13       1.0  0.42220  0.78130  0.34280  1.0000 0.1290510692
H   H14       1.0  0.73910  0.68720  0.53880  1.0000 0.1222457244
H   H15       1.0  0.42990  0.74450  0.57830  1.0000 0.1222457244
H   H16       1.0  0.33990  0.74340  0.50480  1.0000 0.1222457244
H   H17       1.0  0.36420  0.88550  0.65550  1.0000 0.1373946022
H   H18       1.0  0.73480  0.95040  0.71450  1.0000 0.1222457244
H   H19       1.0  0.73350  0.88280  0.70740  1.0000 0.1222457244
H   H20       1.0  0.65430  0.08660  0.65000  1.0000 0.1290510692
H   H21       1.0  0.48150  0.07180  0.76440  1.0000 0.1290510692
H   H22       1.0  0.47380  0.00350  0.75050  1.0000 0.1290510692
H   H23       1.0  0.23970  0.80170  0.55700  1.0000 0.1290510692
H   H24       1.0  0.84790  0.74840  0.50520  1.0000 0.1222457244
H   H25       1.0  0.93830  0.73290  0.57740  1.0000 0.1222457244
H   H26       1.0  0.69440  0.82540  0.37190  1.0000 0.1290510692
H   H27       1.0  0.92660  0.73730  0.34230  1.0000 0.1290510692
H   H28       1.0  0.03590  0.74140  0.41460  1.0000 0.1222457244
H   H29       1.0  0.63210  0.18480  0.83150  1.0000 0.4234581541
H   H30       1.0  0.14000  0.28160  0.83570  1.0000 0.4234581541
H   H31       1.0  0.49530  0.27110  0.74280  1.0000 0.4111639957
H   H32       1.0  0.00730  0.19520  0.74660  1.0000 0.4111639957
H   H33       1.0  0.08650  0.37760  0.68830  1.0000 0.1222457244
H   H34       1.0  0.93940  0.47750  0.77770  1.0000 0.1290510692
H   H35       1.0  0.94280  0.41320  0.80230  1.0000 0.1222457244
H   H36       1.0  0.85210  0.58470  0.66130  1.0000 0.1290510692
H   H37       1.0  0.21790  0.58660  0.71760  1.0000 0.1290510692
H   H38       1.0  0.20190  0.51990  0.73600  1.0000 0.1290510692
H   H39       1.0  0.81440  0.18910  0.14380  1.0000 0.1290510692
H   H40       1.0  0.46990  0.26620  0.08590  1.0000 0.1222457244
H   H41       1.0  0.57780  0.28130  0.15720  1.0000 0.1290510692
H   H42       1.0  0.26090  0.18720  0.96120  1.0000 0.1222457244
H   H43       1.0  0.57010  0.24450  0.92170  1.0000 0.1222457244
H   H44       1.0  0.66010  0.24340  0.99520  1.0000 0.1222457244
H   H45       1.0  0.63580  0.38550  0.84450  1.0000 0.1373946022
H   H46       1.0  0.26520  0.45040  0.78550  1.0000 0.1222457244
H   H47       1.0  0.26650  0.38280  0.79260  1.0000 0.1222457244
H   H48       1.0  0.34570  0.58660  0.85000  1.0000 0.1290510692
H   H49       1.0  0.51850  0.57180  0.73560  1.0000 0.1290510692
H   H50       1.0  0.52620  0.50350  0.74950  1.0000 0.1290510692
H   H51       1.0  0.76030  0.30170  0.94300  1.0000 0.1290510692
H   H52       1.0  0.15210  0.24840  0.99480  1.0000 0.1222457244
H   H53       1.0  0.06170  0.23290  0.92260  1.0000 0.1222457244
H   H54       1.0  0.30560  0.32540  0.12810  1.0000 0.1290510692
H   H55       1.0  0.07340  0.23730  0.15770  1.0000 0.1290510692
H   H56       1.0  0.96410  0.24140  0.08540  1.0000 0.1222457244
H   H57       1.0  0.63210  0.31520  0.33150  1.0000 0.4234581541
H   H58       1.0  0.14000  0.21840  0.33570  1.0000 0.4234581541
H   H59       1.0  0.49530  0.22890  0.24280  1.0000 0.4111639957
H   H60       1.0  0.00730  0.30480  0.24660  1.0000 0.4111639957
H   H61       1.0  0.08650  0.12240  0.18830  1.0000 0.1222457244
H   H62       1.0  0.93940  0.02250  0.27770  1.0000 0.1290510692
H   H63       1.0  0.94280  0.08680  0.30230  1.0000 0.1290510692
H   H64       1.0  0.85210  0.91530  0.16130  1.0000 0.1290510692
H   H65       1.0  0.21790  0.91340  0.21760  1.0000 0.1290510692
H   H66       1.0  0.20190  0.98010  0.23600  1.0000 0.1290510692
H   H67       1.0  0.81440  0.31090  0.64380  1.0000 0.1290510692
H   H68       1.0  0.46990  0.23380  0.58590  1.0000 0.1222457244
H   H69       1.0  0.57780  0.21870  0.65720  1.0000 0.1290510692
H   H70       1.0  0.26090  0.31280  0.46120  1.0000 0.1222457244
H   H71       1.0  0.57010  0.25550  0.42170  1.0000 0.1222457244
H   H72       1.0  0.66010  0.25660  0.49520  1.0000 0.1222457244
H   H73       1.0  0.63580  0.11450  0.34450  1.0000 0.1373946022
H   H74       1.0  0.26520  0.04960  0.28550  1.0000 0.1222457244
H   H75       1.0  0.26650  0.11720  0.29260  1.0000 0.1222457244
H   H76       1.0  0.34570  0.91340  0.35000  1.0000 0.1290510692
H   H77       1.0  0.51850  0.92820  0.23560  1.0000 0.1290510692
H   H78       1.0  0.52620  0.99650  0.24950  1.0000 0.1290510692
H   H79       1.0  0.76030  0.19830  0.44300  1.0000 0.1290510692
H   H80       1.0  0.15210  0.25160  0.49480  1.0000 0.1222457244
H   H81       1.0  0.06170  0.26710  0.42260  1.0000 0.1222457244
H   H82       1.0  0.30560  0.17460  0.62810  1.0000 0.1290510692
H   H83       1.0  0.07340  0.26270  0.65770  1.0000 0.1290510692
H   H84       1.0  0.96410  0.25860  0.58540  1.0000 0.1222457244
H   H85       1.0  0.36790  0.81520  0.16850  1.0000 0.4234581541
H   H86       1.0  0.86000  0.71840  0.16430  1.0000 0.4234581541
H   H87       1.0  0.50470  0.72890  0.25720  1.0000 0.4111639957
H   H88       1.0  0.99270  0.80480  0.25340  1.0000 0.4111639957
H   H89       1.0  0.91350  0.62240  0.31170  1.0000 0.1222457244
H   H90       1.0  0.06060  0.52250  0.22230  1.0000 0.1290510692
H   H91       1.0  0.05720  0.58680  0.19770  1.0000 0.1222457244
H   H92       1.0  0.14790  0.41530  0.33870  1.0000 0.1290510692
H   H93       1.0  0.78210  0.41340  0.28240  1.0000 0.1290510692
H   H94       1.0  0.79810  0.48010  0.26400  1.0000 0.1290510692
H   H95       1.0  0.18560  0.81090  0.85620  1.0000 0.1290510692
H   H96       1.0  0.53010  0.73380  0.91410  1.0000 0.1222457244
H   H97       1.0  0.42220  0.71870  0.84280  1.0000 0.1290510692
H   H98       1.0  0.73910  0.81280  0.03880  1.0000 0.1222457244
H   H99       1.0  0.42990  0.75550  0.07830  1.0000 0.1222457244
H   H100      1.0  0.33990  0.75660  0.00480  1.0000 0.1222457244
H   H101      1.0  0.36420  0.61450  0.15550  1.0000 0.1373946022
H   H102      1.0  0.73480  0.54960  0.21450  1.0000 0.1222457244
H   H103      1.0  0.73350  0.61720  0.20740  1.0000 0.1222457244
H   H104      1.0  0.65430  0.41340  0.15000  1.0000 0.1290510692
H   H105      1.0  0.48150  0.42820  0.26440  1.0000 0.1290510692
H   H106      1.0  0.47380  0.49650  0.25050  1.0000 0.1290510692
H   H107      1.0  0.23970  0.69830  0.05700  1.0000 0.1290510692
H   H108      1.0  0.84790  0.75160  0.00520  1.0000 0.1222457244
H   H109      1.0  0.93830  0.76710  0.07740  1.0000 0.1222457244
H   H110      1.0  0.69440  0.67460  0.87190  1.0000 0.1290510692
H   H111      1.0  0.92660  0.76270  0.84230  1.0000 0.1290510692
H   H112      1.0  0.03590  0.75860  0.91460  1.0000 0.1222457244
C   C1        1.0  0.99790  0.84700  0.73720  1.0000 0.5485995959
C   C2        1.0  0.99090  0.88800  0.75220  1.0000 -0.03154171
C   C3        1.0  0.94300  0.89800  0.79320  1.0000 -0.0800586482
C   C4        1.0  0.93690  0.93760  0.80790  1.0000 -0.1899303855
C   C5        1.0  0.98250  0.96810  0.78140  1.0000 0.0675599104
C   C6        1.0  0.02850  0.95750  0.74090  1.0000 -0.1190710383
C   C7        1.0  0.02900  0.91880  0.72670  1.0000 -0.0680681963
C   C8        1.0  0.88240  0.94700  0.84830  1.0000 0.5843826484
C   C9        1.0  0.97780  0.01050  0.79450  1.0000 0.060633924
C   C10       1.0  0.08190  0.03170  0.81460  1.0000 -0.1024914284
C   C11       1.0  0.07570  0.07140  0.82400  1.0000 -0.1024914284
C   C12       1.0  0.96350  0.09210  0.81200  1.0000 -0.0185078841
C   C13       1.0  0.85960  0.07270  0.79050  1.0000 -0.0800586482
C   C14       1.0  0.86840  0.03260  0.78070  1.0000 -0.1113573713
C   C15       1.0  0.20880  0.01060  0.82720  1.0000 0.6239846896
C   C16       1.0  0.95710  0.13540  0.81910  1.0000 0.5891214031
C   C17       1.0  0.22120  0.74480  0.29750  1.0000 0.6019284885
C   C18       1.0  0.29350  0.73650  0.34260  1.0000 -0.009205054
C   C19       1.0  0.25550  0.70510  0.36790  1.0000 -0.1113573713
C   C20       1.0  0.31890  0.69630  0.41100  1.0000 -0.130003677
C   C21       1.0  0.42150  0.71990  0.42900  1.0000 0.060633924
C   C22       1.0  0.45900  0.75060  0.40290  1.0000 -0.1113573713
C   C23       1.0  0.39530  0.75950  0.35990  1.0000 -0.0800586482
C   C24       1.0  0.26650  0.66230  0.43640  1.0000 0.6019284885
C   C25       1.0  0.48270  0.71530  0.47690  1.0000 0.0675599104
C   C26       1.0  0.60190  0.69760  0.48820  1.0000 -0.1407950569
C   C27       1.0  0.65730  0.69890  0.53190  1.0000 -0.1113573713
C   C28       1.0  0.59760  0.71690  0.56690  1.0000 0.0091918363
C   C29       1.0  0.47540  0.73290  0.55530  1.0000 -0.0919377741
C   C30       1.0  0.42210  0.73210  0.51170  1.0000 -0.1113573713
C   C31       1.0  0.67340  0.67790  0.45310  1.0000 0.6431574773
C   C32       1.0  0.66380  0.72080  0.61450  1.0000 0.6019284885
C   C33       1.0  0.54660  0.83260  0.68390  1.0000 0.5891214031
C   C34       1.0  0.54710  0.87690  0.68350  1.0000 0.0014027518
C   C35       1.0  0.43940  0.89880  0.66780  1.0000 -0.1024914284
C   C36       1.0  0.44090  0.93950  0.66980  1.0000 -0.1190710383
C   C37       1.0  0.55150  0.95960  0.68660  1.0000 0.0775829505
C   C38       1.0  0.65950  0.93740  0.70190  1.0000 -0.1113573713
C   C39       1.0  0.65750  0.89730  0.69880  1.0000 -0.0800586482
C   C40       1.0  0.32230  0.96120  0.65170  1.0000 0.6106361102
C   C41       1.0  0.55600  0.00380  0.69160  1.0000 0.0531860206
C   C42       1.0  0.61470  0.02980  0.66140  1.0000 -0.130003677
C   C43       1.0  0.61590  0.06940  0.67020  1.0000 -0.1024914284
C   C44       1.0  0.56460  0.08520  0.70650  1.0000 0.0091918363
C   C45       1.0  0.51330  0.06110  0.73790  1.0000 -0.0800586482
C   C46       1.0  0.50970  0.02040  0.72930  1.0000 -0.1190710383
C   C47       1.0  0.67500  0.01540  0.62110  1.0000 0.6106361102
C   C48       1.0  0.56790  0.13000  0.71340  1.0000 0.5625542354
C   C49       1.0  0.16500  0.75530  0.62060  1.0000 0.6019284885
C   C50       1.0  0.10110  0.76630  0.57460  1.0000 0.0091918363
C   C51       1.0  0.15950  0.79040  0.54650  1.0000 -0.1024914284
C   C52       1.0  0.10630  0.79910  0.50290  1.0000 -0.130003677
C   C53       1.0  0.98850  0.78280  0.48650  1.0000 0.060633924
C   C54       1.0  0.92930  0.75910  0.51540  1.0000 -0.1113573713
C   C55       1.0  0.98190  0.75000  0.55860  1.0000 -0.0919377741
C   C56       1.0  0.17720  0.82560  0.47240  1.0000 0.6239846896
C   C57       1.0  0.93010  0.78600  0.43760  1.0000 0.0675599104
C   C58       1.0  0.82860  0.81100  0.42400  1.0000 -0.1190710383
C   C59       1.0  0.76480  0.80840  0.38030  1.0000 -0.1024914284
C   C60       1.0  0.80260  0.78150  0.34930  1.0000 -0.009205054
C   C61       1.0  0.90150  0.75660  0.36310  1.0000 -0.0800586482
C   C62       1.0  0.96640  0.75870  0.40640  1.0000 -0.1113573713
C   C63       1.0  0.77460  0.84020  0.45630  1.0000 0.5843826484
C   C64       1.0  0.72810  0.77830  0.30340  1.0000 0.6019284885
C   C65       1.0  0.00210  0.34700  0.76280  1.0000 0.5485995959
C   C66       1.0  0.00910  0.38800  0.74780  1.0000 -0.03154171
C   C67       1.0  0.05700  0.39800  0.70680  1.0000 -0.0800586482
C   C68       1.0  0.06310  0.43760  0.69210  1.0000 -0.1899303855
C   C69       1.0  0.01750  0.46810  0.71860  1.0000 0.0675599104
C   C70       1.0  0.97150  0.45750  0.75910  1.0000 -0.1113573713
C   C71       1.0  0.97100  0.41880  0.77330  1.0000 -0.0680681963
C   C72       1.0  0.11760  0.44700  0.65170  1.0000 0.5843826484
C   C73       1.0  0.02220  0.51050  0.70550  1.0000 0.060633924
C   C74       1.0  0.91810  0.53170  0.68540  1.0000 -0.1024914284
C   C75       1.0  0.92430  0.57140  0.67600  1.0000 -0.1024914284
C   C76       1.0  0.03650  0.59210  0.68800  1.0000 -0.0185078841
C   C77       1.0  0.14040  0.57270  0.70950  1.0000 -0.0800586482
C   C78       1.0  0.13160  0.53260  0.71930  1.0000 -0.1113573713
C   C79       1.0  0.79120  0.51060  0.67280  1.0000 0.6239846896
C   C80       1.0  0.04290  0.63540  0.68090  1.0000 0.5891214031
C   C81       1.0  0.77880  0.24480  0.20250  1.0000 0.6019284885
C   C82       1.0  0.70650  0.23650  0.15740  1.0000 -0.009205054
C   C83       1.0  0.74450  0.20510  0.13210  1.0000 -0.1113573713
C   C84       1.0  0.68110  0.19630  0.08900  1.0000 -0.130003677
C   C85       1.0  0.57850  0.21990  0.07100  1.0000 0.060633924
C   C86       1.0  0.54100  0.25060  0.09710  1.0000 -0.1113573713
C   C87       1.0  0.60470  0.25950  0.14010  1.0000 -0.0800586482
C   C88       1.0  0.73350  0.16230  0.06360  1.0000 0.6019284885
C   C89       1.0  0.51730  0.21530  0.02310  1.0000 0.0675599104
C   C90       1.0  0.39810  0.19760  0.01180  1.0000 -0.1407950569
C   C91       1.0  0.34270  0.19890  0.96810  1.0000 -0.1113573713
C   C92       1.0  0.40240  0.21690  0.93310  1.0000 0.0091918363
C   C93       1.0  0.52460  0.23290  0.94470  1.0000 -0.0919377741
C   C94       1.0  0.57790  0.23210  0.98830  1.0000 -0.1113573713
C   C95       1.0  0.32660  0.17790  0.04690  1.0000 0.6431574773
C   C96       1.0  0.33620  0.22080  0.88550  1.0000 0.6019284885
C   C97       1.0  0.45340  0.33260  0.81610  1.0000 0.5891214031
C   C98       1.0  0.45290  0.37690  0.81650  1.0000 0.0014027518
C   C99       1.0  0.56060  0.39880  0.83220  1.0000 -0.1024914284
C   C100      1.0  0.55910  0.43950  0.83020  1.0000 -0.1190710383
C   C101      1.0  0.44850  0.45960  0.81340  1.0000 0.0775829505
C   C102      1.0  0.34050  0.43740  0.79810  1.0000 -0.1113573713
C   C103      1.0  0.34250  0.39730  0.80120  1.0000 -0.0800586482
C   C104      1.0  0.67770  0.46120  0.84830  1.0000 0.6106361102
C   C105      1.0  0.44400  0.50380  0.80840  1.0000 0.0531860206
C   C106      1.0  0.38530  0.52980  0.83860  1.0000 -0.130003677
C   C107      1.0  0.38410  0.56940  0.82980  1.0000 -0.1024914284
C   C108      1.0  0.43540  0.58520  0.79350  1.0000 0.0091918363
C   C109      1.0  0.48670  0.56110  0.76210  1.0000 -0.0800586482
C   C110      1.0  0.49030  0.52040  0.77070  1.0000 -0.1113573713
C   C111      1.0  0.32500  0.51540  0.87890  1.0000 0.6106361102
C   C112      1.0  0.43210  0.63000  0.78660  1.0000 0.5625542354
C   C113      1.0  0.83500  0.25530  0.87940  1.0000 0.6019284885
C   C114      1.0  0.89890  0.26630  0.92540  1.0000 0.0091918363
C   C115      1.0  0.84050  0.29040  0.95350  1.0000 -0.1024914284
C   C116      1.0  0.89370  0.29910  0.99710  1.0000 -0.130003677
C   C117      1.0  0.01150  0.28280  0.01350  1.0000 0.060633924
C   C118      1.0  0.07070  0.25910  0.98460  1.0000 -0.1113573713
C   C119      1.0  0.01810  0.25000  0.94140  1.0000 -0.0919377741
C   C120      1.0  0.82280  0.32560  0.02760  1.0000 0.6239846896
C   C121      1.0  0.06990  0.28600  0.06240  1.0000 0.0675599104
C   C122      1.0  0.17140  0.31100  0.07600  1.0000 -0.1190710383
C   C123      1.0  0.23520  0.30840  0.11970  1.0000 -0.1024914284
C   C124      1.0  0.19740  0.28150  0.15070  1.0000 -0.009205054
C   C125      1.0  0.09850  0.25660  0.13690  1.0000 -0.0800586482
C   C126      1.0  0.03360  0.25870  0.09360  1.0000 -0.1113573713
C   C127      1.0  0.22540  0.34020  0.04370  1.0000 0.5891214031
C   C128      1.0  0.27190  0.27830  0.19660  1.0000 0.6019284885
C   C129      1.0  0.00210  0.15300  0.26280  1.0000 0.5485995959
C   C130      1.0  0.00910  0.11200  0.24780  1.0000 -0.03154171
C   C131      1.0  0.05700  0.10200  0.20680  1.0000 -0.0800586482
C   C132      1.0  0.06310  0.06240  0.19210  1.0000 -0.1899303855
C   C133      1.0  0.01750  0.03190  0.21860  1.0000 0.0675599104
C   C134      1.0  0.97150  0.04250  0.25910  1.0000 -0.1113573713
C   C135      1.0  0.97100  0.08120  0.27330  1.0000 -0.0680681963
C   C136      1.0  0.11760  0.05300  0.15170  1.0000 0.5843826484
C   C137      1.0  0.02220  0.98950  0.20550  1.0000 0.060633924
C   C138      1.0  0.91810  0.96830  0.18540  1.0000 -0.1024914284
C   C139      1.0  0.92430  0.92860  0.17600  1.0000 -0.1024914284
C   C140      1.0  0.03650  0.90790  0.18800  1.0000 -0.0185078841
C   C141      1.0  0.14040  0.92730  0.20950  1.0000 -0.0800586482
C   C142      1.0  0.13160  0.96740  0.21930  1.0000 -0.1113573713
C   C143      1.0  0.79120  0.98940  0.17280  1.0000 0.6239846896
C   C144      1.0  0.04290  0.86460  0.18090  1.0000 0.5891214031
C   C145      1.0  0.77880  0.25520  0.70250  1.0000 0.6019284885
C   C146      1.0  0.70650  0.26350  0.65740  1.0000 -0.009205054
C   C147      1.0  0.74450  0.29490  0.63210  1.0000 -0.1113573713
C   C148      1.0  0.68110  0.30370  0.58900  1.0000 -0.130003677
C   C149      1.0  0.57850  0.28010  0.57100  1.0000 0.060633924
C   C150      1.0  0.54100  0.24940  0.59710  1.0000 -0.1113573713
C   C151      1.0  0.60470  0.24050  0.64010  1.0000 -0.0800586482
C   C152      1.0  0.73350  0.33770  0.56360  1.0000 0.6019284885
C   C153      1.0  0.51730  0.28470  0.52310  1.0000 0.0675599104
C   C154      1.0  0.39810  0.30240  0.51180  1.0000 -0.1407950569
C   C155      1.0  0.34270  0.30110  0.46810  1.0000 -0.1113573713
C   C156      1.0  0.40240  0.28310  0.43310  1.0000 0.0091918363
C   C157      1.0  0.52460  0.26710  0.44470  1.0000 -0.0919377741
C   C158      1.0  0.57790  0.26790  0.48830  1.0000 -0.1113573713
C   C159      1.0  0.32660  0.32210  0.54690  1.0000 0.6431574773
C   C160      1.0  0.33620  0.27920  0.38550  1.0000 0.6019284885
C   C161      1.0  0.45340  0.16740  0.31610  1.0000 0.5891214031
C   C162      1.0  0.45290  0.12310  0.31650  1.0000 0.0014027518
C   C163      1.0  0.56060  0.10120  0.33220  1.0000 -0.1024914284
C   C164      1.0  0.55910  0.06050  0.33020  1.0000 -0.1190710383
C   C165      1.0  0.44850  0.04040  0.31340  1.0000 0.0775829505
C   C166      1.0  0.34050  0.06260  0.29810  1.0000 -0.1113573713
C   C167      1.0  0.34250  0.10270  0.30120  1.0000 -0.0800586482
C   C168      1.0  0.67770  0.03880  0.34830  1.0000 0.6106361102
C   C169      1.0  0.44400  0.99620  0.30840  1.0000 0.0531860206
C   C170      1.0  0.38530  0.97020  0.33860  1.0000 -0.130003677
C   C171      1.0  0.38410  0.93060  0.32980  1.0000 -0.1024914284
C   C172      1.0  0.43540  0.91480  0.29350  1.0000 0.0091918363
C   C173      1.0  0.48670  0.93890  0.26210  1.0000 -0.0800586482
C   C174      1.0  0.49030  0.97960  0.27070  1.0000 -0.1113573713
C   C175      1.0  0.32500  0.98460  0.37890  1.0000 0.6106361102
C   C176      1.0  0.43210  0.87000  0.28660  1.0000 0.5625542354
C   C177      1.0  0.83500  0.24470  0.37940  1.0000 0.6019284885
C   C178      1.0  0.89890  0.23370  0.42540  1.0000 0.0091918363
C   C179      1.0  0.84050  0.20960  0.45350  1.0000 -0.1024914284
C   C180      1.0  0.89370  0.20090  0.49710  1.0000 -0.130003677
C   C181      1.0  0.01150  0.21720  0.51350  1.0000 0.060633924
C   C182      1.0  0.07070  0.24090  0.48460  1.0000 -0.1113573713
C   C183      1.0  0.01810  0.25000  0.44140  1.0000 -0.0919377741
C   C184      1.0  0.82280  0.17440  0.52760  1.0000 0.6239846896
C   C185      1.0  0.06990  0.21400  0.56240  1.0000 0.0675599104
C   C186      1.0  0.17140  0.18900  0.57600  1.0000 -0.1190710383
C   C187      1.0  0.23520  0.19160  0.61970  1.0000 -0.1024914284
C   C188      1.0  0.19740  0.21850  0.65070  1.0000 -0.009205054
C   C189      1.0  0.09850  0.24340  0.63690  1.0000 -0.0800586482
C   C190      1.0  0.03360  0.24130  0.59360  1.0000 -0.1113573713
C   C191      1.0  0.22540  0.15980  0.54370  1.0000 0.5843826484
C   C192      1.0  0.27190  0.22170  0.69660  1.0000 0.6019284885
C   C193      1.0  0.99790  0.65300  0.23720  1.0000 0.5485995959
C   C194      1.0  0.99090  0.61200  0.25220  1.0000 -0.03154171
C   C195      1.0  0.94300  0.60200  0.29320  1.0000 -0.0800586482
C   C196      1.0  0.93690  0.56240  0.30790  1.0000 -0.1899303855
C   C197      1.0  0.98250  0.53190  0.28140  1.0000 0.0675599104
C   C198      1.0  0.02850  0.54250  0.24090  1.0000 -0.1190710383
C   C199      1.0  0.02900  0.58120  0.22670  1.0000 -0.0680681963
C   C200      1.0  0.88240  0.55300  0.34830  1.0000 0.5843826484
C   C201      1.0  0.97780  0.48950  0.29450  1.0000 0.060633924
C   C202      1.0  0.08190  0.46830  0.31460  1.0000 -0.1024914284
C   C203      1.0  0.07570  0.42860  0.32400  1.0000 -0.1024914284
C   C204      1.0  0.96350  0.40790  0.31200  1.0000 -0.0185078841
C   C205      1.0  0.85960  0.42730  0.29050  1.0000 -0.0800586482
C   C206      1.0  0.86840  0.46740  0.28070  1.0000 -0.1113573713
C   C207      1.0  0.20880  0.48940  0.32720  1.0000 0.6239846896
C   C208      1.0  0.95710  0.36460  0.31910  1.0000 0.5891214031
C   C209      1.0  0.22120  0.75520  0.79750  1.0000 0.6019284885
C   C210      1.0  0.29350  0.76350  0.84260  1.0000 -0.009205054
C   C211      1.0  0.25550  0.79490  0.86790  1.0000 -0.1113573713
C   C212      1.0  0.31890  0.80370  0.91100  1.0000 -0.130003677
C   C213      1.0  0.42150  0.78010  0.92900  1.0000 0.060633924
C   C214      1.0  0.45900  0.74940  0.90290  1.0000 -0.1113573713
C   C215      1.0  0.39530  0.74050  0.85990  1.0000 -0.0800586482
C   C216      1.0  0.26650  0.83770  0.93640  1.0000 0.6019284885
C   C217      1.0  0.48270  0.78470  0.97690  1.0000 0.0675599104
C   C218      1.0  0.60190  0.80240  0.98820  1.0000 -0.1407950569
C   C219      1.0  0.65730  0.80110  0.03190  1.0000 -0.1113573713
C   C220      1.0  0.59760  0.78310  0.06690  1.0000 0.0091918363
C   C221      1.0  0.47540  0.76710  0.05530  1.0000 -0.0919377741
C   C222      1.0  0.42210  0.76790  0.01170  1.0000 -0.1113573713
C   C223      1.0  0.67340  0.82210  0.95310  1.0000 0.6431574773
C   C224      1.0  0.66380  0.77920  0.11450  1.0000 0.6019284885
C   C225      1.0  0.54660  0.66740  0.18390  1.0000 0.5891214031
C   C226      1.0  0.54710  0.62310  0.18350  1.0000 0.0014027518
C   C227      1.0  0.43940  0.60120  0.16780  1.0000 -0.1024914284
C   C228      1.0  0.44090  0.56050  0.16980  1.0000 -0.1190710383
C   C229      1.0  0.55150  0.54040  0.18660  1.0000 0.0775829505
C   C230      1.0  0.65950  0.56260  0.20190  1.0000 -0.1113573713
C   C231      1.0  0.65750  0.60270  0.19880  1.0000 -0.0800586482
C   C232      1.0  0.32230  0.53880  0.15170  1.0000 0.6106361102
C   C233      1.0  0.55600  0.49620  0.19160  1.0000 0.0531860206
C   C234      1.0  0.61470  0.47020  0.16140  1.0000 -0.130003677
C   C235      1.0  0.61590  0.43060  0.17020  1.0000 -0.1024914284
C   C236      1.0  0.56460  0.41480  0.20650  1.0000 0.0091918363
C   C237      1.0  0.51330  0.43890  0.23790  1.0000 -0.0800586482
C   C238      1.0  0.50970  0.47960  0.22930  1.0000 -0.1190710383
C   C239      1.0  0.67500  0.48460  0.12110  1.0000 0.6106361102
C   C240      1.0  0.56790  0.37000  0.21340  1.0000 0.5625542354
C   C241      1.0  0.16500  0.74470  0.12060  1.0000 0.6019284885
C   C242      1.0  0.10110  0.73370  0.07460  1.0000 0.0091918363
C   C243      1.0  0.15950  0.70960  0.04650  1.0000 -0.1024914284
C   C244      1.0  0.10630  0.70090  0.00290  1.0000 -0.130003677
C   C245      1.0  0.98850  0.71720  0.98650  1.0000 0.060633924
C   C246      1.0  0.92930  0.74090  0.01540  1.0000 -0.1113573713
C   C247      1.0  0.98190  0.75000  0.05860  1.0000 -0.0919377741
C   C248      1.0  0.17720  0.67440  0.97240  1.0000 0.6239846896
C   C249      1.0  0.93010  0.71400  0.93760  1.0000 0.0675599104
C   C250      1.0  0.82860  0.68900  0.92400  1.0000 -0.1190710383
C   C251      1.0  0.76480  0.69160  0.88030  1.0000 -0.1024914284
C   C252      1.0  0.80260  0.71850  0.84930  1.0000 -0.009205054
C   C253      1.0  0.90150  0.74340  0.86310  1.0000 -0.0800586482
C   C254      1.0  0.96640  0.74130  0.90640  1.0000 -0.1113573713
C   C255      1.0  0.77460  0.65980  0.95630  1.0000 0.5843826484
C   C256      1.0  0.72810  0.72170  0.80340  1.0000 0.6019284885
O   O1        1.0  0.93450  0.82217  0.75760  1.0000 -0.5122902204
O   O2        1.0  0.06860  0.83750  0.70750  1.0000 -0.5441589107
O   O3        1.0  0.05410  0.15284  0.83744  1.0000 -0.5122902204
O   O4        1.0  0.85010  0.15141  0.80560  1.0000 -0.5491517235
O   O5        1.0  0.11210  0.72918  0.29220  1.0000 -0.5122902204
O   O6        1.0  0.26930  0.76680  0.26970  1.0000 -0.5809480001
O   O7        1.0  0.77610  0.70658  0.61890  1.0000 -0.5270077858
O   O8        1.0  0.60630  0.73711  0.64490  1.0000 -0.6297343422
O   O9        1.0  0.65060  0.81690  0.69800  1.0000 -0.5270077858
O   O10       1.0  0.44310  0.81538  0.67100  1.0000 -0.5122902204
O   O11       1.0  0.61410  0.15100  0.68640  1.0000 -0.4934986282
O   O12       1.0  0.51680  0.14060  0.74950  1.0000 -0.555995648
O   O13       1.0  0.28170  0.76523  0.62562  1.0000 -0.5187304069
O   O14       1.0  0.10740  0.73730  0.64870  1.0000 -0.6080328871
O   O15       1.0  0.77290  0.75582  0.27424  1.0000 -0.6037057687
O   O16       1.0  0.62730  0.79829  0.29830  1.0000 -0.5122902204
O   O17       1.0  0.36020  0.70396  0.69396  1.0000 -0.8377524365
O   O18       1.0  0.85360  0.76188  0.68922  1.0000 -0.8300977398
O   O19       1.0  0.52100  0.75293  0.73165  1.0000 -0.8377524365
O   O20       1.0  0.01460  0.71336  0.72853  1.0000 -0.8455001761
O   O21       1.0  0.06550  0.32217  0.74240  1.0000 -0.5122902204
O   O22       1.0  0.93140  0.33750  0.79250  1.0000 -0.5441589107
O   O23       1.0  0.94590  0.65284  0.66256  1.0000 -0.5122902204
O   O24       1.0  0.14990  0.65141  0.69440  1.0000 -0.5491517235
O   O25       1.0  0.88790  0.22918  0.20780  1.0000 -0.5122902204
O   O26       1.0  0.73070  0.26680  0.23030  1.0000 -0.5809480001
O   O27       1.0  0.22390  0.20658  0.88110  1.0000 -0.5270077858
O   O28       1.0  0.39370  0.23711  0.85510  1.0000 -0.6297343422
O   O29       1.0  0.34940  0.31690  0.80200  1.0000 -0.5270077858
O   O30       1.0  0.55690  0.31538  0.82900  1.0000 -0.5122902204
O   O31       1.0  0.38590  0.65100  0.81360  1.0000 -0.4934986282
O   O32       1.0  0.48320  0.64060  0.75050  1.0000 -0.555995648
O   O33       1.0  0.71830  0.26523  0.87438  1.0000 -0.5187304069
O   O34       1.0  0.89260  0.23730  0.85130  1.0000 -0.6080328871
O   O35       1.0  0.22710  0.25582  0.22576  1.0000 -0.6037057687
O   O36       1.0  0.37270  0.29829  0.20170  1.0000 -0.5122902204
O   O37       1.0  0.63980  0.20396  0.80604  1.0000 -0.8377524365
O   O38       1.0  0.14640  0.26188  0.81078  1.0000 -0.8300977398
O   O39       1.0  0.47900  0.25293  0.76835  1.0000 -0.8377524365
O   O40       1.0  0.98540  0.21336  0.77147  1.0000 -0.8455001761
O   O41       1.0  0.06550  0.17783  0.24240  1.0000 -0.5122902204
O   O42       1.0  0.93140  0.16250  0.29250  1.0000 -0.5441589107
O   O43       1.0  0.94590  0.84716  0.16256  1.0000 -0.5122902204
O   O44       1.0  0.14990  0.84859  0.19440  1.0000 -0.5491517235
O   O45       1.0  0.88790  0.27082  0.70780  1.0000 -0.5122902204
O   O46       1.0  0.73070  0.23320  0.73030  1.0000 -0.5809480001
O   O47       1.0  0.22390  0.29342  0.38110  1.0000 -0.5270077858
O   O48       1.0  0.39370  0.26289  0.35510  1.0000 -0.6297343422
O   O49       1.0  0.34940  0.18310  0.30200  1.0000 -0.5270077858
O   O50       1.0  0.55690  0.18462  0.32900  1.0000 -0.5122902204
O   O51       1.0  0.38590  0.84900  0.31360  1.0000 -0.4934986282
O   O52       1.0  0.48320  0.85940  0.25050  1.0000 -0.555995648
O   O53       1.0  0.71830  0.23477  0.37438  1.0000 -0.5187304069
O   O54       1.0  0.89260  0.26270  0.35130  1.0000 -0.6080328871
O   O55       1.0  0.22710  0.24418  0.72576  1.0000 -0.6037057687
O   O56       1.0  0.37270  0.20171  0.70170  1.0000 -0.5122902204
O   O57       1.0  0.63980  0.29604  0.30604  1.0000 -0.8377524365
O   O58       1.0  0.14640  0.23812  0.31078  1.0000 -0.8300977398
O   O59       1.0  0.47900  0.24707  0.26835  1.0000 -0.8377524365
O   O60       1.0  0.98540  0.28664  0.27147  1.0000 -0.8455001761
O   O61       1.0  0.93450  0.67783  0.25760  1.0000 -0.5122902204
O   O62       1.0  0.06860  0.66250  0.20750  1.0000 -0.5441589107
O   O63       1.0  0.05410  0.34716  0.33744  1.0000 -0.5122902204
O   O64       1.0  0.85010  0.34859  0.30560  1.0000 -0.5491517235
O   O65       1.0  0.11210  0.77082  0.79220  1.0000 -0.5122902204
O   O66       1.0  0.26930  0.73320  0.76970  1.0000 -0.5809480001
O   O67       1.0  0.77610  0.79342  0.11890  1.0000 -0.5270077858
O   O68       1.0  0.60630  0.76289  0.14490  1.0000 -0.6297343422
O   O69       1.0  0.65060  0.68310  0.19800  1.0000 -0.5270077858
O   O70       1.0  0.44310  0.68462  0.17100  1.0000 -0.5122902204
O   O71       1.0  0.61410  0.34900  0.18640  1.0000 -0.4934986282
O   O72       1.0  0.51680  0.35940  0.24950  1.0000 -0.555995648
O   O73       1.0  0.28170  0.73477  0.12562  1.0000 -0.5187304069
O   O74       1.0  0.10740  0.76270  0.14870  1.0000 -0.6080328871
O   O75       1.0  0.77290  0.74418  0.77424  1.0000 -0.6037057687
O   O76       1.0  0.62730  0.70171  0.79830  1.0000 -0.5122902204
O   O77       1.0  0.36020  0.79604  0.19396  1.0000 -0.8377524365
O   O78       1.0  0.85360  0.73812  0.18922  1.0000 -0.8300977398
O   O79       1.0  0.52100  0.74707  0.23165  1.0000 -0.8377524365
O   O80       1.0  0.01460  0.78664  0.22853  1.0000 -0.8455001761
F   F1        1.0  0.94840  0.97030  0.87890  1.0000 -0.1899303855
F   F2        1.0  0.84750  0.91460  0.87360  1.0000 -0.1826817405
F   F3        1.0  0.76510  0.96650  0.84270  1.0000 -0.1899303855
F   F4        1.0  0.26580  0.00100  0.78750  1.0000 -0.2197234232
F   F5        1.0  0.28990  0.03190  0.85310  1.0000 -0.2559686054
F   F6        1.0  0.19930  0.97630  0.84690  1.0000 -0.1985745237
F   F7        1.0  0.20550  0.63640  0.40960  1.0000 -0.1985745237
F   F8        1.0  0.34040  0.64530  0.46610  1.0000 -0.2380313177
F   F9        1.0  0.17370  0.67620  0.46360  1.0000 -0.2083660343
F   F10       1.0  0.60070  0.65200  0.42780  1.0000 -0.1985745237
F   F11       1.0  0.71190  0.70470  0.42270  1.0000 -0.2083660343
F   F12       1.0  0.77570  0.65890  0.47030  1.0000 -0.1985745237
F   F13       1.0  0.23400  0.93870  0.63230  1.0000 -0.2197234232
F   F14       1.0  0.26880  0.97980  0.68600  1.0000 -0.1899303855
F   F15       1.0  0.34150  0.99050  0.62420  1.0000 -0.1985745237
F   F16       1.0  0.60620  0.98870  0.59710  1.0000 -0.2197234232
F   F17       1.0  0.78850  0.99380  0.63610  1.0000 -0.2083660343
F   F18       1.0  0.71540  0.04320  0.59540  1.0000 -0.2319417794
F   F19       1.0  0.27970  0.84190  0.49390  1.0000 -0.1985745237
F   F20       1.0  0.22000  0.80590  0.43670  1.0000 -0.1985745237
F   F21       1.0  0.10600  0.85410  0.45300  1.0000 -0.1899303855
F   F22       1.0  0.85420  0.85360  0.48710  1.0000 -0.2380313177
F   F23       1.0  0.67830  0.82430  0.47540  1.0000 -0.1985745237
F   F24       1.0  0.72210  0.87040  0.43560  1.0000 -0.1899303855
F   F25       1.0  0.05160  0.47030  0.62110  1.0000 -0.1899303855
F   F26       1.0  0.15250  0.41460  0.62640  1.0000 -0.1826817405
F   F27       1.0  0.23490  0.46650  0.65730  1.0000 -0.1899303855
F   F28       1.0  0.73420  0.50100  0.71250  1.0000 -0.2197234232
F   F29       1.0  0.71010  0.53190  0.64690  1.0000 -0.2559686054
F   F30       1.0  0.80070  0.47630  0.65310  1.0000 -0.1985745237
F   F31       1.0  0.79450  0.13640  0.09040  1.0000 -0.1985745237
F   F32       1.0  0.65960  0.14530  0.03390  1.0000 -0.2380313177
F   F33       1.0  0.82630  0.17620  0.03640  1.0000 -0.2083660343
F   F34       1.0  0.39930  0.15200  0.07220  1.0000 -0.1985745237
F   F35       1.0  0.28810  0.20470  0.07730  1.0000 -0.2083660343
F   F36       1.0  0.22430  0.15890  0.02970  1.0000 -0.1985745237
F   F37       1.0  0.76600  0.43870  0.86770  1.0000 -0.2197234232
F   F38       1.0  0.73120  0.47980  0.81400  1.0000 -0.1899303855
F   F39       1.0  0.65850  0.49050  0.87580  1.0000 -0.1985745237
F   F40       1.0  0.39380  0.48870  0.90290  1.0000 -0.2083660343
F   F41       1.0  0.21150  0.49380  0.86390  1.0000 -0.2083660343
F   F42       1.0  0.28460  0.54320  0.90460  1.0000 -0.2319417794
F   F43       1.0  0.72030  0.34190  0.00610  1.0000 -0.1985745237
F   F44       1.0  0.78000  0.30590  0.06330  1.0000 -0.1985745237
F   F45       1.0  0.89400  0.35410  0.04700  1.0000 -0.1899303855
F   F46       1.0  0.14580  0.35360  0.01290  1.0000 -0.2380313177
F   F47       1.0  0.32170  0.32430  0.02460  1.0000 -0.1985745237
F   F48       1.0  0.27790  0.37040  0.06440  1.0000 -0.1899303855
F   F49       1.0  0.05160  0.02970  0.12110  1.0000 -0.1899303855
F   F50       1.0  0.15250  0.08540  0.12640  1.0000 -0.1826817405
F   F51       1.0  0.23490  0.03350  0.15730  1.0000 -0.1899303855
F   F52       1.0  0.73420  0.99900  0.21250  1.0000 -0.2197234232
F   F53       1.0  0.71010  0.96810  0.14690  1.0000 -0.2549617041
F   F54       1.0  0.80070  0.02370  0.15310  1.0000 -0.1985745237
F   F55       1.0  0.79450  0.36360  0.59040  1.0000 -0.1985745237
F   F56       1.0  0.65960  0.35470  0.53390  1.0000 -0.2380313177
F   F57       1.0  0.82630  0.32380  0.53640  1.0000 -0.2083660343
F   F58       1.0  0.39930  0.34800  0.57220  1.0000 -0.1985745237
F   F59       1.0  0.28810  0.29530  0.57730  1.0000 -0.2083660343
F   F60       1.0  0.22430  0.34110  0.52970  1.0000 -0.1985745237
F   F61       1.0  0.76600  0.06130  0.36770  1.0000 -0.2197234232
F   F62       1.0  0.73120  0.02020  0.31400  1.0000 -0.1899303855
F   F63       1.0  0.65850  0.00950  0.37580  1.0000 -0.1985745237
F   F64       1.0  0.39380  0.01130  0.40290  1.0000 -0.2083660343
F   F65       1.0  0.21150  0.00620  0.36390  1.0000 -0.2083660343
F   F66       1.0  0.28460  0.95680  0.40460  1.0000 -0.2319417794
F   F67       1.0  0.72030  0.15810  0.50610  1.0000 -0.1985745237
F   F68       1.0  0.78000  0.19410  0.56330  1.0000 -0.1985745237
F   F69       1.0  0.89400  0.14590  0.54700  1.0000 -0.1899303855
F   F70       1.0  0.14580  0.14640  0.51290  1.0000 -0.2380313177
F   F71       1.0  0.32170  0.17570  0.52460  1.0000 -0.1985745237
F   F72       1.0  0.27790  0.12960  0.56440  1.0000 -0.1899303855
F   F73       1.0  0.94840  0.52970  0.37890  1.0000 -0.1899303855
F   F74       1.0  0.84750  0.58540  0.37360  1.0000 -0.1826817405
F   F75       1.0  0.76510  0.53350  0.34270  1.0000 -0.1899303855
F   F76       1.0  0.26580  0.49900  0.28750  1.0000 -0.2197234232
F   F77       1.0  0.28990  0.46810  0.35310  1.0000 -0.2559686054
F   F78       1.0  0.19930  0.52370  0.34690  1.0000 -0.1985745237
F   F79       1.0  0.20550  0.86360  0.90960  1.0000 -0.1985745237
F   F80       1.0  0.34040  0.85470  0.96610  1.0000 -0.2380313177
F   F81       1.0  0.17370  0.82380  0.96360  1.0000 -0.2083660343
F   F82       1.0  0.60070  0.84800  0.92780  1.0000 -0.1985745237
F   F83       1.0  0.71190  0.79530  0.92270  1.0000 -0.2083660343
F   F84       1.0  0.77570  0.84110  0.97030  1.0000 -0.1985745237
F   F85       1.0  0.23400  0.56130  0.13230  1.0000 -0.2197234232
F   F86       1.0  0.26880  0.52020  0.18600  1.0000 -0.1899303855
F   F87       1.0  0.34150  0.50950  0.12420  1.0000 -0.1985745237
F   F88       1.0  0.60620  0.51130  0.09710  1.0000 -0.2083660343
F   F89       1.0  0.78850  0.50620  0.13610  1.0000 -0.2083660343
F   F90       1.0  0.71540  0.45680  0.09540  1.0000 -0.2319417794
F   F91       1.0  0.27970  0.65810  0.99390  1.0000 -0.1985745237
F   F92       1.0  0.22000  0.69410  0.93670  1.0000 -0.1985745237
F   F93       1.0  0.10600  0.64590  0.95300  1.0000 -0.1899303855
F   F94       1.0  0.85420  0.64640  0.98710  1.0000 -0.2380313177
F   F95       1.0  0.67830  0.67570  0.97540  1.0000 -0.1985745237
F   F96       1.0  0.72210  0.62960  0.93560  1.0000 -0.1899303855
