# DDEC6 charges by PACMAN v1.1 (https://github.com/mtap-research/PACMAN-charge/)
data_2018[Zn][kgd]2[FSR]1
_chemical_formula_sum              "Zn4 H78 C102 N6 O18"
_cell_length_a       14.129
_cell_length_b       15.017
_cell_length_c       17.02
_cell_angle_alpha    85.937
_cell_angle_beta     101.743
_cell_angle_gamma    117.468

_symmetry_space_group_name_H-M    "P 1"
_symmetry_Int_Tables_number       1

loop_
  _symmetry_equiv_pos_as_xyz
  'x, y, z'

loop_
  _atom_site_type_symbol
  _atom_site_label
  _atom_site_symmetry_multiplicity
  _atom_site_fract_x
  _atom_site_fract_y
  _atom_site_fract_z
  _atom_site_occupancy
  _atom_site_charge
Zn  Zn1       1.0  0.52244  0.93625  0.56336  1.0000 0.8311933372
Zn  Zn2       1.0  0.72672  0.10643  0.94305  1.0000 0.7927452716
Zn  Zn3       1.0  0.47756  0.06375  0.43664  1.0000 0.8311933372
Zn  Zn4       1.0  0.27328  0.89357  0.05695  1.0000 0.7927452716
H   H1        1.0  0.85150  0.26750  0.21450  1.0000 0.1271746226
H   H2        1.0  0.28620  0.64130  0.44770  1.0000 0.1200165526
H   H3        1.0  0.13140  0.68490  0.18830  1.0000 0.1115408508
H   H4        1.0  0.25570  0.82410  0.26810  1.0000 0.1200165526
H   H5        1.0  0.96940  0.40500  0.29860  1.0000 0.1200165526
H   H6        1.0  0.16070  0.50270  0.36690  1.0000 0.1115408508
H   H7        1.0  0.35750  0.03070  0.26660  1.0000 0.1200165526
H   H8        1.0  0.86520  0.09110  0.73140  1.0000 0.1200165526
H   H9        1.0  0.12580  0.46790  0.88720  1.0000 0.1115408508
H   H10       1.0  0.41000  0.38150  0.15460  1.0000 0.1115408508
H   H11       1.0  0.23650  0.20220  0.09070  1.0000 0.1200165526
H   H12       1.0  0.99320  0.40810  0.03070  1.0000 0.1200165526
H   H13       1.0  0.11200  0.54590  0.11280  1.0000 0.1115408508
H   H14       1.0  0.11780  0.98230  0.84910  1.0000 0.1200165526
H   H15       1.0  0.36960  0.46680  0.05810  1.0000 0.1115408508
H   H16       1.0  0.48720  0.95510  0.89180  1.0000 0.1115408508
H   H17       1.0  0.31250  0.11710  0.16320  1.0000 0.1200165526
H   H18       1.0  0.01340  0.00560  0.92740  1.0000 0.1200165526
H   H19       1.0  0.10450  0.09820  0.60090  1.0000 0.1115408508
H   H20       1.0  0.96670  0.06180  0.65440  1.0000 0.1200165526
H   H21       1.0  0.17440  0.92350  0.77080  1.0000 0.1200165526
H   H22       1.0  0.62210  0.77080  0.06110  1.0000 0.139364718
H   H23       1.0  0.29080  0.91540  0.69800  1.0000 0.1200165526
H   H24       1.0  0.37780  0.78460  0.90510  1.0000 0.139364718
H   H25       1.0  0.69310  0.28200  0.89090  1.0000 0.09516933
H   H26       1.0  0.08940  0.21140  0.99450  1.0000 0.1271746226
H   H27       1.0  0.28590  0.62750  0.92730  1.0000 0.1200165526
H   H28       1.0  0.50260  0.36960  0.29060  1.0000 0.1271746226
H   H29       1.0  0.45850  0.61460  0.02430  1.0000 0.1115408508
H   H30       1.0  0.65480  0.40120  0.83150  1.0000 0.1271746226
H   H31       1.0  0.53310  0.36950  0.78460  1.0000 0.139364718
H   H32       1.0  0.62230  0.37400  0.73750  1.0000 0.139364718
H   H33       1.0  0.54070  0.27890  0.39310  1.0000 0.1200165526
H   H34       1.0  0.72800  0.93840  0.04380  1.0000 0.1115408508
H   H35       1.0  0.22150  0.08900  0.53050  1.0000 0.1271746226
H   H36       1.0  0.02210  0.29730  0.90300  1.0000 0.1200165526
H   H37       1.0  0.47780  0.19680  0.69900  1.0000 0.139364718
H   H38       1.0  0.40810  0.18090  0.76670  1.0000 0.1271746226
H   H39       1.0  0.47010  0.11470  0.76610  1.0000 0.139364718
H   H40       1.0  0.14850  0.73250  0.78550  1.0000 0.1271746226
H   H41       1.0  0.71380  0.35870  0.55230  1.0000 0.1200165526
H   H42       1.0  0.86860  0.31510  0.81170  1.0000 0.1115408508
H   H43       1.0  0.74430  0.17590  0.73190  1.0000 0.1200165526
H   H44       1.0  0.03060  0.59500  0.70140  1.0000 0.1200165526
H   H45       1.0  0.83930  0.49730  0.63310  1.0000 0.1115408508
H   H46       1.0  0.64250  0.96930  0.73340  1.0000 0.1200165526
H   H47       1.0  0.13480  0.90890  0.26860  1.0000 0.1200165526
H   H48       1.0  0.87420  0.53210  0.11280  1.0000 0.1115408508
H   H49       1.0  0.59000  0.61850  0.84540  1.0000 0.1115408508
H   H50       1.0  0.76350  0.79780  0.90930  1.0000 0.1200165526
H   H51       1.0  0.00680  0.59190  0.96930  1.0000 0.1200165526
H   H52       1.0  0.88800  0.45410  0.88720  1.0000 0.1115408508
H   H53       1.0  0.88220  0.01770  0.15090  1.0000 0.1115408508
H   H54       1.0  0.63040  0.53320  0.94190  1.0000 0.1115408508
H   H55       1.0  0.51280  0.04490  0.10820  1.0000 0.1115408508
H   H56       1.0  0.68750  0.88290  0.83680  1.0000 0.1200165526
H   H57       1.0  0.98660  0.99440  0.07260  1.0000 0.1200165526
H   H58       1.0  0.89550  0.90180  0.39910  1.0000 0.1115408508
H   H59       1.0  0.03330  0.93820  0.34560  1.0000 0.1200165526
H   H60       1.0  0.82560  0.07650  0.22920  1.0000 0.1200165526
H   H61       1.0  0.37790  0.22920  0.93890  1.0000 0.139364718
H   H62       1.0  0.70920  0.08460  0.30200  1.0000 0.1200165526
H   H63       1.0  0.62220  0.21540  0.09490  1.0000 0.139364718
H   H64       1.0  0.30690  0.71800  0.10910  1.0000 0.09516933
H   H65       1.0  0.91060  0.78860  0.00550  1.0000 0.1271746226
H   H66       1.0  0.71410  0.37250  0.07270  1.0000 0.1200165526
H   H67       1.0  0.49740  0.63040  0.70940  1.0000 0.1271746226
H   H68       1.0  0.54150  0.38540  0.97570  1.0000 0.1115408508
H   H69       1.0  0.34520  0.59880  0.16850  1.0000 0.1271746226
H   H70       1.0  0.46690  0.63050  0.21540  1.0000 0.139364718
H   H71       1.0  0.37770  0.62600  0.26250  1.0000 0.139364718
H   H72       1.0  0.45930  0.72110  0.60690  1.0000 0.1200165526
H   H73       1.0  0.27200  0.06160  0.95620  1.0000 0.1115408508
H   H74       1.0  0.77850  0.91100  0.46950  1.0000 0.1271746226
H   H75       1.0  0.97790  0.70270  0.09700  1.0000 0.1200165526
H   H76       1.0  0.52220  0.80320  0.30100  1.0000 0.139364718
H   H77       1.0  0.59190  0.81910  0.23330  1.0000 0.1271746226
H   H78       1.0  0.52990  0.88530  0.23390  1.0000 0.139364718
C   C1        1.0  0.36370  0.83790  0.41810  1.0000 0.5716451499
C   C2        1.0  0.05650  0.49090  0.21540  1.0000 0.0726655349
C   C3        1.0  0.13260  0.57940  0.26830  1.0000 0.0612360928
C   C4        1.0  0.92840  0.05010  0.83770  1.0000 -0.0303391572
C   C5        1.0  0.86000  0.06560  0.88810  1.0000 0.5304775033
C   C6        1.0  0.90540  0.32440  0.19380  1.0000 -0.1097052017
C   C7        1.0  0.39680  0.25280  0.21620  1.0000 0.139364718
C   C8        1.0  0.91180  0.32380  0.11570  1.0000 -0.0191680324
C   C9        1.0  0.28420  0.74730  0.36650  1.0000 -0.0366336331
C   C10       1.0  0.05610  0.02490  0.74380  1.0000 0.0726655349
C   C11       1.0  0.25480  0.65060  0.39490  1.0000 -0.1097052017
C   C12       1.0  0.16270  0.67560  0.24130  1.0000 -0.1508504687
C   C13       1.0  0.23680  0.75880  0.28850  1.0000 -0.1006801669
C   C14       1.0  0.97580  0.40620  0.24400  1.0000 -0.1508504687
C   C15       1.0  0.18020  0.56820  0.34660  1.0000 -0.1592668773
C   C16       1.0  0.38640  0.10130  0.27330  1.0000 0.0812015924
C   C17       1.0  0.25810  0.48480  0.97030  1.0000 0.1200165526
C   C18       1.0  0.91620  0.06810  0.75610  1.0000 -0.1006801669
C   C19       1.0  0.15480  0.43310  0.92530  1.0000 -0.1592668773
C   C20       1.0  0.23710  0.32990  0.03600  1.0000 0.1200165526
C   C21       1.0  0.36470  0.31110  0.15340  1.0000 -0.1508504687
C   C22       1.0  0.27710  0.27330  0.09470  1.0000 -0.1405600713
C   C23       1.0  0.98890  0.40730  0.08580  1.0000 -0.1097052017
C   C24       1.0  0.05950  0.48900  0.13470  1.0000 -0.1592668773
C   C25       1.0  0.34880  0.99840  0.56350  1.0000 0.5763348434
C   C26       1.0  0.26790  0.00090  0.60650  1.0000 -0.0366336331
C   C27       1.0  0.06660  0.00530  0.82480  1.0000 -0.1508504687
C   C28       1.0  0.29890  0.43220  0.02630  1.0000 -0.2076980558
C   C29       1.0  0.51590  0.91730  0.92660  1.0000 0.0876946002
C   C30       1.0  0.35910  0.15260  0.21110  1.0000 -0.1894850414
C   C31       1.0  0.00380  0.01850  0.87160  1.0000 -0.0948340949
C   C32       1.0  0.14280  0.06100  0.62190  1.0000 -0.1508504687
C   C33       1.0  0.12670  0.01420  0.69480  1.0000 0.0812015924
C   C34       1.0  0.97880  0.05260  0.71070  1.0000 -0.1405600713
C   C35       1.0  0.18380  0.95810  0.72180  1.0000 -0.1508504687
C   C36       1.0  0.48740  0.75880  0.98400  1.0000 0.1493653897
C   C37       1.0  0.59250  0.80700  0.02530  1.0000 -0.2076980558
C   C38       1.0  0.25260  0.95300  0.67830  1.0000 -0.1006801669
C   C39       1.0  0.45030  0.81520  0.93480  1.0000 -0.1894850414
C   C40       1.0  0.62960  0.22960  0.86090  1.0000 0.2751066181
C   C41       1.0  0.13280  0.28130  0.98860  1.0000 -0.1405600713
C   C42       1.0  0.32230  0.59440  0.96030  1.0000 -0.133040851
C   C43       1.0  0.46860  0.29850  0.28510  1.0000 -0.2003660457
C   C44       1.0  0.42220  0.64830  0.99220  1.0000 -0.1508504687
C   C45       1.0  0.83420  0.23190  0.06200  1.0000 0.5304775033
C   C46       1.0  0.59680  0.35800  0.78850  1.0000 -0.3454338815
C   C47       1.0  0.49210  0.24410  0.34550  1.0000 0.0612360928
C   C48       1.0  0.65510  0.90730  0.01510  1.0000 0.0876946002
C   C49       1.0  0.21180  0.05500  0.57970  1.0000 -0.1006801669
C   C50       1.0  0.09300  0.33170  0.93460  1.0000 -0.0629939121
C   C51       1.0  0.47350  0.18110  0.75540  1.0000 -0.3292158302
C   C52       1.0  0.63630  0.16210  0.58190  1.0000 0.5716451499
C   C53       1.0  0.94350  0.50910  0.78460  1.0000 0.0726655349
C   C54       1.0  0.86740  0.42060  0.73170  1.0000 0.0612360928
C   C55       1.0  0.07160  0.94990  0.16230  1.0000 -0.0303391572
C   C56       1.0  0.14000  0.93440  0.11190  1.0000 0.5304775033
C   C57       1.0  0.09460  0.67560  0.80620  1.0000 -0.1097052017
C   C58       1.0  0.60320  0.74720  0.78380  1.0000 0.139364718
C   C59       1.0  0.08820  0.67620  0.88430  1.0000 -0.0191680324
C   C60       1.0  0.71580  0.25270  0.63350  1.0000 -0.0366336331
C   C61       1.0  0.94390  0.97510  0.25620  1.0000 0.0726655349
C   C62       1.0  0.74520  0.34940  0.60510  1.0000 -0.1097052017
C   C63       1.0  0.83730  0.32440  0.75870  1.0000 -0.1508504687
C   C64       1.0  0.76320  0.24120  0.71150  1.0000 -0.1006801669
C   C65       1.0  0.02420  0.59380  0.75600  1.0000 -0.1508504687
C   C66       1.0  0.81980  0.43180  0.65340  1.0000 -0.1592668773
C   C67       1.0  0.61360  0.89870  0.72670  1.0000 0.0812015924
C   C68       1.0  0.74190  0.51520  0.02970  1.0000 0.1200165526
C   C69       1.0  0.08380  0.93190  0.24390  1.0000 -0.1006801669
C   C70       1.0  0.84520  0.56690  0.07470  1.0000 -0.1592668773
C   C71       1.0  0.76290  0.67010  0.96400  1.0000 0.1200165526
C   C72       1.0  0.63530  0.68890  0.84660  1.0000 -0.1508504687
C   C73       1.0  0.72290  0.72670  0.90530  1.0000 -0.1405600713
C   C74       1.0  0.01110  0.59270  0.91420  1.0000 -0.1097052017
C   C75       1.0  0.94050  0.51100  0.86530  1.0000 -0.1592668773
C   C76       1.0  0.65120  0.00160  0.43650  1.0000 0.5763348434
C   C77       1.0  0.73210  0.99910  0.39350  1.0000 -0.0366336331
C   C78       1.0  0.93340  0.99470  0.17520  1.0000 -0.1508504687
C   C79       1.0  0.70110  0.56780  0.97370  1.0000 -0.2076980558
C   C80       1.0  0.48410  0.08270  0.07340  1.0000 0.0876946002
C   C81       1.0  0.64090  0.84740  0.78890  1.0000 -0.1894850414
C   C82       1.0  0.99620  0.98150  0.12840  1.0000 -0.0948340949
C   C83       1.0  0.85720  0.93900  0.37810  1.0000 -0.1508504687
C   C84       1.0  0.87330  0.98580  0.30520  1.0000 0.0812015924
C   C85       1.0  0.02120  0.94740  0.28930  1.0000 -0.1405600713
C   C86       1.0  0.81620  0.04190  0.27820  1.0000 -0.1508504687
C   C87       1.0  0.51260  0.24120  0.01600  1.0000 0.1493653897
C   C88       1.0  0.40750  0.19300  0.97470  1.0000 -0.2076980558
C   C89       1.0  0.74740  0.04700  0.32170  1.0000 -0.1006801669
C   C90       1.0  0.54970  0.18480  0.06520  1.0000 -0.1894850414
C   C91       1.0  0.37040  0.77040  0.13910  1.0000 0.2751066181
C   C92       1.0  0.86720  0.71870  0.01140  1.0000 -0.1405600713
C   C93       1.0  0.67770  0.40560  0.03970  1.0000 -0.133040851
C   C94       1.0  0.53140  0.70150  0.71490  1.0000 -0.2003660457
C   C95       1.0  0.57780  0.35170  0.00780  1.0000 -0.1508504687
C   C96       1.0  0.16580  0.76810  0.93800  1.0000 0.5304775033
C   C97       1.0  0.40320  0.64200  0.21150  1.0000 -0.3454338815
C   C98       1.0  0.50790  0.75590  0.65450  1.0000 0.0612360928
C   C99       1.0  0.34490  0.09270  0.98490  1.0000 0.0876946002
C   C100      1.0  0.78820  0.94500  0.42030  1.0000 -0.1006801669
C   C101      1.0  0.90700  0.66830  0.06540  1.0000 -0.0629939121
C   C102      1.0  0.52650  0.81890  0.24460  1.0000 -0.3292158302
N   N1        1.0  0.61890  0.96330  0.96710  1.0000 -0.2314079311
N   N2        1.0  0.45060  0.14370  0.34220  1.0000 -0.2003660457
N   N3        1.0  0.56800  0.25540  0.80600  1.0000 0.0269850362
N   N4        1.0  0.38110  0.03670  0.03290  1.0000 -0.2314079311
N   N5        1.0  0.54940  0.85630  0.65780  1.0000 -0.2076980558
N   N6        1.0  0.43200  0.74460  0.19400  1.0000 0.0269850362
O   O1        1.0  0.41040  0.82270  0.48502  1.0000 -0.5471922216
O   O2        1.0  0.37890  0.92200  0.39127  1.0000 -0.5471922216
O   O3        1.0  0.82800  0.24620  0.98680  1.0000 -0.5471922216
O   O4        1.0  0.79060  0.09390  0.85261  1.0000 -0.5408265796
O   O5        1.0  0.39700  0.94940  0.59280  1.0000 -0.5292135682
O   O6        1.0  0.87300  0.04980  0.96071  1.0000 -0.5408265796
O   O7        1.0  0.36290  0.04900  0.49880  1.0000 -0.5471922216
O   O8        1.0  0.61120  0.14180  0.87690  1.0000 -0.4605801609
O   O9        1.0  0.78280  0.15040  0.08910  1.0000 -0.5292135682
O   O10       1.0  0.58960  0.17730  0.51498  1.0000 -0.5471922216
O   O11       1.0  0.62110  0.07800  0.60873  1.0000 -0.5471922216
O   O12       1.0  0.17200  0.75380  0.01320  1.0000 -0.5471922216
O   O13       1.0  0.20940  0.90610  0.14739  1.0000 -0.5408265796
O   O14       1.0  0.60300  0.05060  0.40720  1.0000 -0.5292135682
O   O15       1.0  0.12700  0.95020  0.03929  1.0000 -0.5408265796
O   O16       1.0  0.63710  0.95100  0.50120  1.0000 -0.5471922216
O   O17       1.0  0.38880  0.85820  0.12310  1.0000 -0.4605801609
O   O18       1.0  0.21720  0.84960  0.91090  1.0000 -0.5292135682
