# DDEC6 charges by PACMAN v1.1 (https://github.com/mtap-research/PACMAN-charge/)
data_2018[Tb][rtl]3[FSR]1
_chemical_formula_sum              "Tb4 P4 H60 C84 N4 O44"
_cell_length_a       11.593
_cell_length_b       17.5378
_cell_length_c       18.7338
_cell_angle_alpha    90
_cell_angle_beta     126.938
_cell_angle_gamma    90

_symmetry_space_group_name_H-M    "P 1"
_symmetry_Int_Tables_number       1

loop_
  _symmetry_equiv_pos_as_xyz
  'x, y, z'

loop_
  _atom_site_type_symbol
  _atom_site_label
  _atom_site_symmetry_multiplicity
  _atom_site_fract_x
  _atom_site_fract_y
  _atom_site_fract_z
  _atom_site_occupancy
  _atom_site_charge
Tb  Tb1       1.0  0.51259  0.42852  0.59262  1.0000 2.056191283
Tb  Tb2       1.0  0.48741  0.92852  0.90738  1.0000 2.056191283
Tb  Tb3       1.0  0.48741  0.57148  0.40738  1.0000 2.056191283
Tb  Tb4       1.0  0.51259  0.07148  0.09262  1.0000 2.056191283
P   P1        1.0  0.41439  0.42159  0.75078  1.0000 0.8932561006
P   P2        1.0  0.58561  0.92159  0.74922  1.0000 0.8932561006
P   P3        1.0  0.58561  0.57841  0.24922  1.0000 0.8932561006
P   P4        1.0  0.41439  0.07841  0.25078  1.0000 0.8932561006
H   H1        1.0  0.01600  0.65710  0.12750  1.0000 0.3510451789
H   H2        1.0  0.33960  0.30130  0.49020  1.0000 0.3653868016
H   H3        1.0  0.36530  0.29120  0.57220  1.0000 0.3442464049
H   H4        1.0  0.19980  0.51830  0.61690  1.0000 0.129455143
H   H5        1.0  0.95840  0.54140  0.55040  1.0000 0.1207351064
H   H6        1.0  0.97750  0.40220  0.72580  1.0000 0.1207351064
H   H7        1.0  0.21700  0.37640  0.79050  1.0000 0.1110065531
H   H8        1.0  0.38830  0.54440  0.84370  1.0000 0.1207351064
H   H9        1.0  0.54820  0.62750  0.95620  1.0000 0.1207351064
H   H10       1.0  0.87280  0.53160  0.97020  1.0000 0.1207351064
H   H11       1.0  0.71370  0.45080  0.85500  1.0000 0.129455143
H   H12       1.0  0.39310  0.27360  0.68760  1.0000 0.1110065531
H   H13       1.0  0.40110  0.15160  0.73670  1.0000 0.1207351064
H   H14       1.0  0.52370  0.23480  0.97190  1.0000 0.129455143
H   H15       1.0  0.51820  0.35770  0.92370  1.0000 0.1110065531
H   H16       1.0  0.98400  0.15710  0.37250  1.0000 0.3510451789
H   H17       1.0  0.66040  0.80130  0.00980  1.0000 0.3653868016
H   H18       1.0  0.63470  0.79120  0.92780  1.0000 0.3442464049
H   H19       1.0  0.80020  0.01830  0.88310  1.0000 0.129455143
H   H20       1.0  0.04160  0.04140  0.94960  1.0000 0.1207351064
H   H21       1.0  0.02250  0.90220  0.77420  1.0000 0.1207351064
H   H22       1.0  0.78300  0.87640  0.70950  1.0000 0.1110065531
H   H23       1.0  0.61170  0.04440  0.65630  1.0000 0.1207351064
H   H24       1.0  0.45180  0.12750  0.54380  1.0000 0.1207351064
H   H25       1.0  0.12720  0.03160  0.52980  1.0000 0.1207351064
H   H26       1.0  0.28630  0.95080  0.64500  1.0000 0.129455143
H   H27       1.0  0.60690  0.77360  0.81240  1.0000 0.1110065531
H   H28       1.0  0.59890  0.65160  0.76330  1.0000 0.1207351064
H   H29       1.0  0.47630  0.73480  0.52810  1.0000 0.129455143
H   H30       1.0  0.48180  0.85770  0.57630  1.0000 0.1110065531
H   H31       1.0  0.98400  0.34290  0.87250  1.0000 0.3510451789
H   H32       1.0  0.66040  0.69870  0.50980  1.0000 0.3653868016
H   H33       1.0  0.63470  0.70880  0.42780  1.0000 0.3442464049
H   H34       1.0  0.80020  0.48170  0.38310  1.0000 0.129455143
H   H35       1.0  0.04160  0.45860  0.44960  1.0000 0.1207351064
H   H36       1.0  0.02250  0.59780  0.27420  1.0000 0.1207351064
H   H37       1.0  0.78300  0.62360  0.20950  1.0000 0.1110065531
H   H38       1.0  0.61170  0.45560  0.15630  1.0000 0.1207351064
H   H39       1.0  0.45180  0.37250  0.04380  1.0000 0.1207351064
H   H40       1.0  0.12720  0.46840  0.02980  1.0000 0.1207351064
H   H41       1.0  0.28630  0.54920  0.14500  1.0000 0.129455143
H   H42       1.0  0.60690  0.72640  0.31240  1.0000 0.1110065531
H   H43       1.0  0.59890  0.84840  0.26330  1.0000 0.1207351064
H   H44       1.0  0.47630  0.76520  0.02810  1.0000 0.129455143
H   H45       1.0  0.48180  0.64230  0.07630  1.0000 0.1110065531
H   H46       1.0  0.01600  0.84290  0.62750  1.0000 0.3510451789
H   H47       1.0  0.33960  0.19870  0.99020  1.0000 0.3653868016
H   H48       1.0  0.36530  0.20880  0.07220  1.0000 0.3442464049
H   H49       1.0  0.19980  0.98170  0.11690  1.0000 0.129455143
H   H50       1.0  0.95840  0.95860  0.05040  1.0000 0.1207351064
H   H51       1.0  0.97750  0.09780  0.22580  1.0000 0.1207351064
H   H52       1.0  0.21700  0.12360  0.29050  1.0000 0.1110065531
H   H53       1.0  0.38830  0.95560  0.34370  1.0000 0.1207351064
H   H54       1.0  0.54820  0.87250  0.45620  1.0000 0.1207351064
H   H55       1.0  0.87280  0.96840  0.47020  1.0000 0.1207351064
H   H56       1.0  0.71370  0.04920  0.35500  1.0000 0.129455143
H   H57       1.0  0.39310  0.22640  0.18760  1.0000 0.1110065531
H   H58       1.0  0.40110  0.34840  0.23670  1.0000 0.1207351064
H   H59       1.0  0.52370  0.26520  0.47190  1.0000 0.129455143
H   H60       1.0  0.51820  0.14230  0.42370  1.0000 0.1110065531
C   C1        1.0  0.23200  0.44390  0.70880  1.0000 -0.1546689954
C   C2        1.0  0.15480  0.49380  0.63810  1.0000 -0.078112704
C   C3        1.0  0.00990  0.50770  0.59820  1.0000 -0.1010052896
C   C4        1.0  0.94240  0.47190  0.62930  1.0000 -0.0076247748
C   C5        1.0  0.02150  0.42440  0.70260  1.0000 -0.0897219672
C   C6        1.0  0.16520  0.40940  0.74200  1.0000 -0.0897219672
C   C7        1.0  0.78300  0.48280  0.58270  1.0000 0.6458969887
C   C8        1.0  0.53430  0.48800  0.83870  1.0000 -0.1437996321
C   C9        1.0  0.48600  0.54160  0.86900  1.0000 -0.0897219672
C   C10       1.0  0.58210  0.59120  0.93670  1.0000 -0.1010052896
C   C11       1.0  0.72720  0.58770  0.97560  1.0000 -0.0265329883
C   C12       1.0  0.77490  0.53440  0.94450  1.0000 -0.1010052896
C   C13       1.0  0.68000  0.48550  0.87610  1.0000 -0.0623792254
C   C14       1.0  0.82730  0.64070  0.05120  1.0000 0.5416522052
C   C15       1.0  0.45010  0.32816  0.79950  1.0000 -0.1437996321
C   C16       1.0  0.41780  0.26600  0.74440  1.0000 -0.0897219672
C   C17       1.0  0.42240  0.19310  0.77370  1.0000 -0.0897219672
C   C18       1.0  0.45840  0.18160  0.85800  1.0000 -0.0076247748
C   C19       1.0  0.49590  0.24280  0.91440  1.0000 -0.0897219672
C   C20       1.0  0.49240  0.31640  0.88560  1.0000 -0.0897219672
C   C21       1.0  0.45770  0.10200  0.88740  1.0000 0.638243037
C   C22       1.0  0.76800  0.94390  0.79120  1.0000 -0.1546689954
C   C23       1.0  0.84520  0.99380  0.86190  1.0000 -0.078112704
C   C24       1.0  0.99010  0.00770  0.90180  1.0000 -0.1010052896
C   C25       1.0  0.05760  0.97190  0.87070  1.0000 -0.0076247748
C   C26       1.0  0.97850  0.92440  0.79740  1.0000 -0.0897219672
C   C27       1.0  0.83480  0.90940  0.75800  1.0000 -0.0897219672
C   C28       1.0  0.21700  0.98280  0.91730  1.0000 0.6458969887
C   C29       1.0  0.46570  0.98800  0.66130  1.0000 -0.1437996321
C   C30       1.0  0.51400  0.04160  0.63100  1.0000 -0.0897219672
C   C31       1.0  0.41790  0.09120  0.56330  1.0000 -0.1010052896
C   C32       1.0  0.27280  0.08770  0.52440  1.0000 -0.0265329883
C   C33       1.0  0.22510  0.03440  0.55550  1.0000 -0.1010052896
C   C34       1.0  0.32000  0.98550  0.62390  1.0000 -0.0623792254
C   C35       1.0  0.17270  0.14070  0.44880  1.0000 0.5416522052
C   C36       1.0  0.54990  0.82816  0.70050  1.0000 -0.1437996321
C   C37       1.0  0.58220  0.76600  0.75560  1.0000 -0.0897219672
C   C38       1.0  0.57760  0.69310  0.72630  1.0000 -0.0897219672
C   C39       1.0  0.54160  0.68160  0.64200  1.0000 -0.0076247748
C   C40       1.0  0.50410  0.74280  0.58560  1.0000 -0.0897219672
C   C41       1.0  0.50760  0.81640  0.61440  1.0000 -0.0897219672
C   C42       1.0  0.54230  0.60200  0.61260  1.0000 0.638243037
C   C43       1.0  0.76800  0.55610  0.29120  1.0000 -0.1546689954
C   C44       1.0  0.84520  0.50620  0.36190  1.0000 -0.078112704
C   C45       1.0  0.99010  0.49230  0.40180  1.0000 -0.1010052896
C   C46       1.0  0.05760  0.52810  0.37070  1.0000 -0.0076247748
C   C47       1.0  0.97850  0.57560  0.29740  1.0000 -0.0897219672
C   C48       1.0  0.83480  0.59060  0.25800  1.0000 -0.0897219672
C   C49       1.0  0.21700  0.51720  0.41730  1.0000 0.6458969887
C   C50       1.0  0.46570  0.51200  0.16130  1.0000 -0.1437996321
C   C51       1.0  0.51400  0.45840  0.13100  1.0000 -0.0897219672
C   C52       1.0  0.41790  0.40880  0.06330  1.0000 -0.1010052896
C   C53       1.0  0.27280  0.41230  0.02440  1.0000 -0.0265329883
C   C54       1.0  0.22510  0.46560  0.05550  1.0000 -0.1010052896
C   C55       1.0  0.32000  0.51450  0.12390  1.0000 -0.0623792254
C   C56       1.0  0.17270  0.35930  0.94880  1.0000 0.5416522052
C   C57       1.0  0.54990  0.67184  0.20050  1.0000 -0.1437996321
C   C58       1.0  0.58220  0.73400  0.25560  1.0000 -0.0897219672
C   C59       1.0  0.57760  0.80690  0.22630  1.0000 -0.0897219672
C   C60       1.0  0.54160  0.81840  0.14200  1.0000 -0.0076247748
C   C61       1.0  0.50410  0.75720  0.08560  1.0000 -0.0897219672
C   C62       1.0  0.50760  0.68360  0.11440  1.0000 -0.0897219672
C   C63       1.0  0.54230  0.89800  0.11260  1.0000 0.638243037
C   C64       1.0  0.23200  0.05610  0.20880  1.0000 -0.1546689954
C   C65       1.0  0.15480  0.00620  0.13810  1.0000 -0.078112704
C   C66       1.0  0.00990  0.99230  0.09820  1.0000 -0.1010052896
C   C67       1.0  0.94240  0.02810  0.12930  1.0000 -0.0076247748
C   C68       1.0  0.02150  0.07560  0.20260  1.0000 -0.0897219672
C   C69       1.0  0.16520  0.09060  0.24200  1.0000 -0.0897219672
C   C70       1.0  0.78300  0.01720  0.08270  1.0000 0.6458969887
C   C71       1.0  0.53430  0.01200  0.33870  1.0000 -0.1437996321
C   C72       1.0  0.48600  0.95840  0.36900  1.0000 -0.0897219672
C   C73       1.0  0.58210  0.90880  0.43670  1.0000 -0.1010052896
C   C74       1.0  0.72720  0.91230  0.47560  1.0000 -0.0265329883
C   C75       1.0  0.77490  0.96560  0.44450  1.0000 -0.1010052896
C   C76       1.0  0.68000  0.01450  0.37610  1.0000 -0.0623792254
C   C77       1.0  0.82730  0.85930  0.55120  1.0000 0.5416522052
C   C78       1.0  0.45010  0.17184  0.29950  1.0000 -0.1437996321
C   C79       1.0  0.41780  0.23400  0.24440  1.0000 -0.0897219672
C   C80       1.0  0.42240  0.30690  0.27370  1.0000 -0.0897219672
C   C81       1.0  0.45840  0.31840  0.35800  1.0000 -0.0076247748
C   C82       1.0  0.49590  0.25720  0.41440  1.0000 -0.0897219672
C   C83       1.0  0.49240  0.18360  0.38560  1.0000 -0.0897219672
C   C84       1.0  0.45770  0.39800  0.38740  1.0000 0.638243037
N   N1        1.0  0.73840  0.31740  0.71600  1.0000 0.7028901155
N   N2        1.0  0.26160  0.81740  0.78400  1.0000 0.7028901155
N   N3        1.0  0.26160  0.68260  0.28400  1.0000 0.7028901155
N   N4        1.0  0.73840  0.18260  0.21600  1.0000 0.7028901155
O   O1        1.0  0.42687  0.42165  0.67607  1.0000 -0.7541738574
O   O2        1.0  0.71236  0.51459  0.50736  1.0000 -0.6499454801
O   O3        1.0  0.73353  0.45986  0.62253  1.0000 -0.658629996
O   O4        1.0  0.96410  0.62870  0.08470  1.0000 -0.4515296419
O   O5        1.0  0.78840  0.68896  0.07830  1.0000 -0.4955782269
O   O6        1.0  0.47817  0.09276  0.96067  1.0000 -0.7204153363
O   O7        1.0  0.43642  0.04771  0.83692  1.0000 -0.6191193287
O   O8        1.0  0.71385  0.37402  0.74465  1.0000 -0.463802797
O   O9        1.0  0.65240  0.30413  0.63390  1.0000 -0.4935259942
O   O10       1.0  0.84740  0.27830  0.76720  1.0000 -0.3796850566
O   O11       1.0  0.34010  0.32325  0.53090  1.0000 -0.7425857608
O   O12       1.0  0.57313  0.92165  0.82393  1.0000 -0.7541738574
O   O13       1.0  0.28764  0.01459  0.99264  1.0000 -0.6499454801
O   O14       1.0  0.26647  0.95986  0.87747  1.0000 -0.658629996
O   O15       1.0  0.03590  0.12870  0.41530  1.0000 -0.4515296419
O   O16       1.0  0.21160  0.18896  0.42170  1.0000 -0.4955782269
O   O17       1.0  0.52183  0.59276  0.53933  1.0000 -0.7204153363
O   O18       1.0  0.56358  0.54771  0.66308  1.0000 -0.6191193287
O   O19       1.0  0.28615  0.87402  0.75535  1.0000 -0.463802797
O   O20       1.0  0.34760  0.80413  0.86610  1.0000 -0.4935259942
O   O21       1.0  0.15260  0.77830  0.73280  1.0000 -0.3796850566
O   O22       1.0  0.65990  0.82325  0.96910  1.0000 -0.7425857608
O   O23       1.0  0.57313  0.57835  0.32393  1.0000 -0.7541738574
O   O24       1.0  0.28764  0.48541  0.49264  1.0000 -0.6499454801
O   O25       1.0  0.26647  0.54014  0.37747  1.0000 -0.658629996
O   O26       1.0  0.03590  0.37130  0.91530  1.0000 -0.4515296419
O   O27       1.0  0.21160  0.31104  0.92170  1.0000 -0.4955782269
O   O28       1.0  0.52183  0.90724  0.03933  1.0000 -0.7204153363
O   O29       1.0  0.56358  0.95229  0.16308  1.0000 -0.6191193287
O   O30       1.0  0.28615  0.62598  0.25535  1.0000 -0.463802797
O   O31       1.0  0.34760  0.69587  0.36610  1.0000 -0.4935259942
O   O32       1.0  0.15260  0.72170  0.23280  1.0000 -0.3796850566
O   O33       1.0  0.65990  0.67675  0.46910  1.0000 -0.7425857608
O   O34       1.0  0.42687  0.07835  0.17607  1.0000 -0.7541738574
O   O35       1.0  0.71236  0.98541  0.00736  1.0000 -0.6499454801
O   O36       1.0  0.73353  0.04014  0.12253  1.0000 -0.658629996
O   O37       1.0  0.96410  0.87130  0.58470  1.0000 -0.4515296419
O   O38       1.0  0.78840  0.81104  0.57830  1.0000 -0.4955782269
O   O39       1.0  0.47817  0.40724  0.46067  1.0000 -0.7204153363
O   O40       1.0  0.43642  0.45229  0.33692  1.0000 -0.6191193287
O   O41       1.0  0.71385  0.12598  0.24465  1.0000 -0.463802797
O   O42       1.0  0.65240  0.19587  0.13390  1.0000 -0.4935259942
O   O43       1.0  0.84740  0.22170  0.26720  1.0000 -0.3796850566
O   O44       1.0  0.34010  0.17675  0.03090  1.0000 -0.7425857608
