# DDEC6 charges by PACMAN v1.1 (https://github.com/mtap-research/PACMAN-charge/)
data_2018[CrMoCo][nan]2[FSR]1
_chemical_formula_sum              "Cr1 Co1 Mo6 H22 C20 N2 O28"
_cell_length_a       10.1292
_cell_length_b       11.3306
_cell_length_c       12.3308
_cell_angle_alpha    114.244
_cell_angle_beta     94.359
_cell_angle_gamma    92.555

_symmetry_space_group_name_H-M    "P 1"
_symmetry_Int_Tables_number       1

loop_
  _symmetry_equiv_pos_as_xyz
  'x, y, z'

loop_
  _atom_site_type_symbol
  _atom_site_label
  _atom_site_symmetry_multiplicity
  _atom_site_fract_x
  _atom_site_fract_y
  _atom_site_fract_z
  _atom_site_occupancy
  _atom_site_charge
Cr  Cr1       1.0  0.00000  0.50000  0.00000  1.0000 1.3292108494
Co  Co1       1.0  0.00000  0.00000  0.00000  1.0000 1.2215333897
Mo  Mo1       1.0  0.18174  0.25612  0.95983  1.0000 2.1371836383
Mo  Mo2       1.0  0.99019  0.35030  0.18067  1.0000 2.1078616101
Mo  Mo3       1.0  0.18891  0.39955  0.77502  1.0000 2.0975213964
Mo  Mo4       1.0  0.81826  0.74388  0.04017  1.0000 2.1371836383
Mo  Mo5       1.0  0.00981  0.64970  0.81933  1.0000 2.1078616101
Mo  Mo6       1.0  0.81109  0.60045  0.22498  1.0000 2.0975213964
H   H1        1.0  0.50709  0.89231  0.12064  1.0000 0.1510309843
H   H2        1.0  0.70034  0.02763  0.14274  1.0000 0.1592775452
H   H3        1.0  0.68420  0.24765  0.19208  1.0000 0.1510309843
H   H4        1.0  0.29387  0.20261  0.19254  1.0000 0.1441984418
H   H5        1.0  0.39785  0.40257  0.20653  1.0000 0.1441984418
H   H6        1.0  0.55668  0.42020  0.21243  1.0000 0.1510309843
H   H7        1.0  0.69443  0.46133  0.40436  1.0000 0.1344810892
H   H8        1.0  0.29273  0.44746  0.38812  1.0000 0.1441984418
H   H9        1.0  0.07967  0.60012  0.21582  1.0000 0.4382966477
H   H10       1.0  0.24538  0.51959  0.02269  1.0000 0.4465428907
H   H11       1.0  0.09851  0.72974  0.03724  1.0000 0.4112661797
H   H12       1.0  0.49291  0.10769  0.87936  1.0000 0.1510309843
H   H13       1.0  0.29966  0.97237  0.85726  1.0000 0.1592775452
H   H14       1.0  0.31580  0.75235  0.80792  1.0000 0.1510309843
H   H15       1.0  0.70613  0.79739  0.80746  1.0000 0.1441984418
H   H16       1.0  0.60215  0.59743  0.79347  1.0000 0.1441984418
H   H17       1.0  0.44332  0.57980  0.78757  1.0000 0.1510309843
H   H18       1.0  0.30557  0.53867  0.59564  1.0000 0.1344810892
H   H19       1.0  0.70727  0.55254  0.61188  1.0000 0.1441984418
H   H20       1.0  0.92033  0.39988  0.78418  1.0000 0.4382966477
H   H21       1.0  0.75462  0.48041  0.97731  1.0000 0.4465428907
H   H22       1.0  0.90149  0.27026  0.96276  1.0000 0.4112661797
C   C1        1.0  0.25070  0.95050  0.12420  1.0000 0.578368755
C   C2        1.0  0.37980  0.03380  0.15120  1.0000 -0.051764818
C   C3        1.0  0.50140  0.98180  0.13880  1.0000 -0.038066594
C   C4        1.0  0.61630  0.06260  0.15330  1.0000 -0.1210476887
C   C5        1.0  0.60690  0.19240  0.18290  1.0000 0.0564752891
C   C6        1.0  0.37670  0.16520  0.18250  1.0000 0.040021317
C   C7        1.0  0.48220  0.38420  0.24030  1.0000 -0.1749086362
C   C8        1.0  0.49150  0.44730  0.37600  1.0000 0.0999193955
C   C9        1.0  0.61550  0.47750  0.44330  1.0000 -0.1384418402
C   C10       1.0  0.37710  0.46930  0.43380  1.0000 -0.1384418402
C   C11       1.0  0.74930  0.04950  0.87580  1.0000 0.578368755
C   C12       1.0  0.62020  0.96620  0.84880  1.0000 -0.051764818
C   C13       1.0  0.49860  0.01820  0.86120  1.0000 -0.038066594
C   C14       1.0  0.38370  0.93740  0.84670  1.0000 -0.1210476887
C   C15       1.0  0.39310  0.80760  0.81710  1.0000 0.0564752891
C   C16       1.0  0.62330  0.83480  0.81750  1.0000 0.040021317
C   C17       1.0  0.51780  0.61580  0.75970  1.0000 -0.1749086362
C   C18       1.0  0.50850  0.55270  0.62400  1.0000 0.0999193955
C   C19       1.0  0.38450  0.52250  0.55670  1.0000 -0.1384418402
C   C20       1.0  0.62290  0.53070  0.56620  1.0000 -0.1384418402
N   N1        1.0  0.48800  0.24080  0.19890  1.0000 0.1232885737
N   N2        1.0  0.51200  0.75920  0.80110  1.0000 0.1232885737
O   O1        1.0  0.01660  0.54610  0.17360  1.0000 -0.9184175314
O   O2        1.0  0.18560  0.46050  0.97710  1.0000 -0.9184175314
O   O3        1.0  0.02850  0.67850  0.01520  1.0000 -0.9184175314
O   O4        1.0  0.81750  0.41550  0.18350  1.0000 -0.8623582007
O   O5        1.0  0.03840  0.40700  0.32950  1.0000 -0.5895978492
O   O6        1.0  0.16710  0.33880  0.12910  1.0000 -0.8653393668
O   O7        1.0  0.94530  0.18510  0.13180  1.0000 -0.7440287751
O   O8        1.0  0.12620  0.09850  0.93530  1.0000 -0.7589688879
O   O9        1.0  0.35080  0.25990  0.96820  1.0000 -0.6372657698
O   O10       1.0  0.13820  0.24730  0.80280  1.0000 -0.8384376448
O   O11       1.0  0.35840  0.39610  0.78830  1.0000 -0.6303226036
O   O12       1.0  0.14060  0.33430  0.62550  1.0000 -0.5895978492
O   O13       1.0  0.14770  0.00950  0.12360  1.0000 -0.5608966034
O   O14       1.0  0.25520  0.83550  0.10630  1.0000 -0.5042232555
O   O15       1.0  0.98340  0.45390  0.82640  1.0000 -0.9184175314
O   O16       1.0  0.81440  0.53950  0.02290  1.0000 -0.9184175314
O   O17       1.0  0.97150  0.32150  0.98480  1.0000 -0.9184175314
O   O18       1.0  0.18250  0.58450  0.81650  1.0000 -0.8623582007
O   O19       1.0  0.96160  0.59300  0.67050  1.0000 -0.5895978492
O   O20       1.0  0.83290  0.66120  0.87090  1.0000 -0.8623582007
O   O21       1.0  0.05470  0.81490  0.86820  1.0000 -0.7440287751
O   O22       1.0  0.87380  0.90150  0.06470  1.0000 -0.7589688879
O   O23       1.0  0.64920  0.74010  0.03180  1.0000 -0.6303226036
O   O24       1.0  0.86180  0.75270  0.19720  1.0000 -0.8384376448
O   O25       1.0  0.64160  0.60390  0.21170  1.0000 -0.6303226036
O   O26       1.0  0.85940  0.66570  0.37450  1.0000 -0.5847299975
O   O27       1.0  0.85230  0.99050  0.87640  1.0000 -0.5608966034
O   O28       1.0  0.74480  0.16450  0.89370  1.0000 -0.5042232555
