# DDEC6 charges by PACMAN v1.1 (https://github.com/mtap-research/PACMAN-charge/)
data_2018[Co][nan]3[FSR]8
_chemical_formula_sum              "Co4 H72 C92 S4 N12 O26"
_cell_length_a       12.171
_cell_length_b       13.199
_cell_length_c       19.633
_cell_angle_alpha    82.572
_cell_angle_beta     72.417
_cell_angle_gamma    64.969

_symmetry_space_group_name_H-M    "P 1"
_symmetry_Int_Tables_number       1

loop_
  _symmetry_equiv_pos_as_xyz
  'x, y, z'

loop_
  _atom_site_type_symbol
  _atom_site_label
  _atom_site_symmetry_multiplicity
  _atom_site_fract_x
  _atom_site_fract_y
  _atom_site_fract_z
  _atom_site_occupancy
  _atom_site_charge
Co  Co1       1.0  0.79431  0.94022  0.37822  1.0000 0.8475826338
Co  Co2       1.0  0.20569  0.05978  0.62178  1.0000 0.8475826338
Co  Co3       1.0  0.50000  0.00000  0.50000  1.0000 1.0788737292
Co  Co4       1.0  0.00000  0.00000  0.00000  1.0000 0.8475826338
H   H1        1.0  0.79900  0.05400  0.07800  1.0000 0.3551662917
H   H2        1.0  0.82700  0.15500  0.08500  1.0000 0.380985176
H   H3        1.0  0.93839  0.62850  0.52652  1.0000 0.1209463098
H   H4        1.0  0.91603  0.48749  0.60565  1.0000 0.1292225492
H   H5        1.0  0.55163  0.59515  0.60224  1.0000 0.1209463098
H   H6        1.0  0.57736  0.73508  0.52180  1.0000 0.1292225492
H   H7        1.0  0.51826  0.36559  0.66989  1.0000 0.1209463098
H   H8        1.0  0.51245  0.23422  0.60365  1.0000 0.1292225492
H   H9        1.0  0.88546  0.13336  0.50771  1.0000 0.1209463098
H   H10       1.0  0.89376  0.26220  0.57459  1.0000 0.1381072486
H   H11       1.0  0.31031  0.19282  0.34211  1.0000 0.1209463098
H   H12       1.0  0.22751  0.31136  0.25414  1.0000 0.1209463098
H   H13       1.0  0.57922  0.27359  0.13771  1.0000 0.1209463098
H   H14       1.0  0.65920  0.16349  0.22915  1.0000 0.1209463098
H   H15       1.0  0.11403  0.36135  0.13102  1.0000 0.1292225492
H   H16       1.0  0.06395  0.23780  0.08515  1.0000 0.1209463098
H   H17       1.0  0.42859  0.07813  0.97630  1.0000 0.1209463098
H   H18       1.0  0.47988  0.19970  0.02377  1.0000 0.1292225492
H   H19       1.0  0.95270  0.82821  0.13397  1.0000 0.1209463098
H   H20       1.0  0.11480  0.68700  0.18641  1.0000 0.1381072486
H   H21       1.0  0.27826  0.83909  0.02569  1.0000 0.1036732065
H   H22       1.0  0.43059  0.64702  0.07963  1.0000 0.1292225492
H   H23       1.0  0.36126  0.61321  0.15653  1.0000 0.1381072486
H   H24       1.0  0.21783  0.85101  0.21164  1.0000 0.1209463098
H   H25       1.0  0.47718  0.94310  0.23942  1.0000 0.1292225492
H   H26       1.0  0.58678  0.67244  0.12136  1.0000 0.1292225492
H   H27       1.0  0.74141  0.72358  0.13075  1.0000 0.1209463098
H   H28       1.0  0.69450  0.85624  0.12927  1.0000 0.1209463098
H   H29       1.0  0.84499  0.61659  0.23119  1.0000 0.1292225492
H   H30       1.0  0.90504  0.67639  0.32298  1.0000 0.1292225492
H   H31       1.0  0.68263  0.94859  0.24322  1.0000 0.1121971562
H   H32       1.0  0.23529  0.01452  0.32085  1.0000 0.1381072486
H   H33       1.0  0.23613  0.08465  0.24794  1.0000 0.1292225492
H   H34       1.0  0.07626  0.07717  0.17514  1.0000 0.1292225492
H   H35       1.0  0.88677  0.03652  0.21911  1.0000 0.1292225492
H   H36       1.0  0.04756  0.96540  0.37521  1.0000 0.1121971562
H   H37       1.0  0.20100  0.94600  0.92200  1.0000 0.3551662917
H   H38       1.0  0.17300  0.84500  0.91500  1.0000 0.380985176
H   H39       1.0  0.06161  0.37150  0.47348  1.0000 0.1209463098
H   H40       1.0  0.08397  0.51251  0.39435  1.0000 0.1292225492
H   H41       1.0  0.44837  0.40485  0.39776  1.0000 0.1209463098
H   H42       1.0  0.42264  0.26492  0.47820  1.0000 0.1292225492
H   H43       1.0  0.48174  0.63441  0.33011  1.0000 0.1209463098
H   H44       1.0  0.48755  0.76578  0.39635  1.0000 0.1292225492
H   H45       1.0  0.11454  0.86664  0.49229  1.0000 0.1209463098
H   H46       1.0  0.10624  0.73780  0.42541  1.0000 0.1381072486
H   H47       1.0  0.68969  0.80718  0.65789  1.0000 0.1209463098
H   H48       1.0  0.77249  0.68864  0.74586  1.0000 0.1209463098
H   H49       1.0  0.42078  0.72641  0.86229  1.0000 0.1209463098
H   H50       1.0  0.34080  0.83651  0.77085  1.0000 0.1209463098
H   H51       1.0  0.88597  0.63865  0.86898  1.0000 0.1292225492
H   H52       1.0  0.93605  0.76220  0.91485  1.0000 0.1209463098
H   H53       1.0  0.57141  0.92187  0.02370  1.0000 0.1209463098
H   H54       1.0  0.52012  0.80030  0.97623  1.0000 0.1292225492
H   H55       1.0  0.04730  0.17179  0.86603  1.0000 0.1209463098
H   H56       1.0  0.88520  0.31300  0.81359  1.0000 0.1381072486
H   H57       1.0  0.72174  0.16091  0.97431  1.0000 0.1036732065
H   H58       1.0  0.56941  0.35298  0.92037  1.0000 0.1292225492
H   H59       1.0  0.63874  0.38679  0.84347  1.0000 0.1381072486
H   H60       1.0  0.78217  0.14899  0.78836  1.0000 0.1209463098
H   H61       1.0  0.52282  0.05690  0.76058  1.0000 0.1292225492
H   H62       1.0  0.41322  0.32756  0.87864  1.0000 0.1292225492
H   H63       1.0  0.25859  0.27642  0.86925  1.0000 0.1209463098
H   H64       1.0  0.30550  0.14376  0.87073  1.0000 0.1209463098
H   H65       1.0  0.15501  0.38341  0.76881  1.0000 0.1292225492
H   H66       1.0  0.09496  0.32361  0.67702  1.0000 0.1292225492
H   H67       1.0  0.31737  0.05141  0.75678  1.0000 0.1121971562
H   H68       1.0  0.76471  0.98548  0.67915  1.0000 0.1381072486
H   H69       1.0  0.76387  0.91535  0.75206  1.0000 0.1292225492
H   H70       1.0  0.92374  0.92283  0.82486  1.0000 0.1292225492
H   H71       1.0  0.11323  0.96348  0.78089  1.0000 0.1292225492
H   H72       1.0  0.95244  0.03460  0.62479  1.0000 0.1121971562
C   C1        1.0  0.77400  0.78780  0.46740  1.0000 0.5618699545
C   C2        1.0  0.75920  0.69680  0.51650  1.0000 -0.0214423959
C   C3        1.0  0.85990  0.62180  0.54190  1.0000 -0.1000928957
C   C4        1.0  0.84690  0.53860  0.58880  1.0000 -0.1105162816
C   C5        1.0  0.73160  0.52960  0.61160  1.0000 -0.0749645328
C   C6        1.0  0.63000  0.60210  0.58690  1.0000 -0.1105162816
C   C7        1.0  0.64600  0.68490  0.53930  1.0000 -0.0792788399
C   C8        1.0  0.70670  0.32680  0.62700  1.0000 -0.08742903
C   C9        1.0  0.59270  0.31860  0.63670  1.0000 -0.1105162816
C   C10       1.0  0.58970  0.24090  0.59710  1.0000 -0.1000928957
C   C11       1.0  0.69770  0.17260  0.54810  1.0000 -0.0214423959
C   C12       1.0  0.81070  0.18090  0.54050  1.0000 -0.1105162816
C   C13       1.0  0.81590  0.25740  0.57990  1.0000 -0.1105162816
C   C14       1.0  0.69000  0.09280  0.50360  1.0000 0.583290791
C   C15       1.0  0.54710  0.09790  0.35170  1.0000 0.5686112399
C   C16       1.0  0.49180  0.17060  0.29400  1.0000 -0.0214423959
C   C17       1.0  0.36430  0.21160  0.30130  1.0000 -0.1000928957
C   C18       1.0  0.31570  0.28010  0.24900  1.0000 -0.1105162816
C   C19       1.0  0.39770  0.30280  0.18840  1.0000 -0.0792788399
C   C20       1.0  0.52420  0.25910  0.17990  1.0000 -0.08742903
C   C21       1.0  0.57130  0.19330  0.23380  1.0000 -0.1000928957
C   C22       1.0  0.30110  0.29160  0.08120  1.0000 -0.08742903
C   C23       1.0  0.17820  0.30330  0.09950  1.0000 -0.1105162816
C   C24       1.0  0.14860  0.23080  0.07210  1.0000 -0.1105162816
C   C25       1.0  0.24220  0.14700  0.02540  1.0000 -0.0214423959
C   C26       1.0  0.36430  0.13590  0.00790  1.0000 -0.1000928957
C   C27       1.0  0.39490  0.20780  0.03580  1.0000 -0.1105162816
C   C28       1.0  0.20690  0.07000  0.99410  1.0000 0.5484792346
C   C29       1.0  0.04020  0.81250  0.11830  1.0000 -0.0434686636
C   C30       1.0  0.12840  0.73470  0.14720  1.0000 -0.08742903
C   C31       1.0  0.21620  0.81870  0.05920  1.0000 0.0798589865
C   C32       1.0  0.36400  0.67710  0.12460  1.0000 -0.1647173708
C   C33       1.0  0.39620  0.75200  0.15980  1.0000 0.1381072486
C   C34       1.0  0.30330  0.84030  0.20210  1.0000 -0.2134235186
C   C35       1.0  0.33100  0.91370  0.23100  1.0000 0.1209463098
C   C36       1.0  0.45670  0.89380  0.21930  1.0000 -0.2164027338
C   C37       1.0  0.55160  0.80510  0.17960  1.0000 0.1209463098
C   C38       1.0  0.52120  0.73400  0.14940  1.0000 -0.2134235186
C   C39       1.0  0.68790  0.79210  0.15990  1.0000 -0.170651911
C   C40       1.0  0.81860  0.69140  0.24520  1.0000 -0.1175106746
C   C41       1.0  0.85180  0.72490  0.29500  1.0000 -0.0214423959
C   C42       1.0  0.73090  0.87250  0.25230  1.0000 0.0798589865
C   C43       1.0  0.22670  0.01700  0.27200  1.0000 -0.170651911
C   C44       1.0  0.04740  0.04950  0.22110  1.0000 -0.1175106746
C   C45       1.0  0.94450  0.02640  0.24550  1.0000 -0.0214423959
C   C46       1.0  0.03090  0.98800  0.33010  1.0000 0.1121971562
C   C47       1.0  0.22600  0.21220  0.53260  1.0000 0.5618699545
C   C48       1.0  0.24080  0.30320  0.48350  1.0000 -0.0214423959
C   C49       1.0  0.14010  0.37820  0.45810  1.0000 -0.1000928957
C   C50       1.0  0.15310  0.46140  0.41120  1.0000 -0.1105162816
C   C51       1.0  0.26840  0.47040  0.38840  1.0000 -0.0749645328
C   C52       1.0  0.37000  0.39790  0.41310  1.0000 -0.1105162816
C   C53       1.0  0.35400  0.31510  0.46070  1.0000 -0.0792788399
C   C54       1.0  0.29330  0.67320  0.37300  1.0000 -0.08742903
C   C55       1.0  0.40730  0.68140  0.36330  1.0000 -0.1105162816
C   C56       1.0  0.41030  0.75910  0.40290  1.0000 -0.1000928957
C   C57       1.0  0.30230  0.82740  0.45190  1.0000 -0.0214423959
C   C58       1.0  0.18930  0.81910  0.45950  1.0000 -0.1105162816
C   C59       1.0  0.18410  0.74260  0.42010  1.0000 -0.1105162816
C   C60       1.0  0.31000  0.90720  0.49640  1.0000 0.583290791
C   C61       1.0  0.45290  0.90210  0.64830  1.0000 0.5686112399
C   C62       1.0  0.50820  0.82940  0.70600  1.0000 -0.0214423959
C   C63       1.0  0.63570  0.78840  0.69870  1.0000 -0.1000928957
C   C64       1.0  0.68430  0.71990  0.75100  1.0000 -0.1105162816
C   C65       1.0  0.60230  0.69720  0.81160  1.0000 -0.0792788399
C   C66       1.0  0.47580  0.74090  0.82010  1.0000 -0.08742903
C   C67       1.0  0.42870  0.80670  0.76620  1.0000 -0.1000928957
C   C68       1.0  0.69890  0.70840  0.91880  1.0000 -0.08742903
C   C69       1.0  0.82180  0.69670  0.90050  1.0000 -0.1105162816
C   C70       1.0  0.85140  0.76920  0.92790  1.0000 -0.1105162816
C   C71       1.0  0.75780  0.85300  0.97460  1.0000 -0.0214423959
C   C72       1.0  0.63570  0.86410  0.99210  1.0000 -0.1105162816
C   C73       1.0  0.60510  0.79220  0.96420  1.0000 -0.1105162816
C   C74       1.0  0.79310  0.93000  0.00590  1.0000 0.5484792346
C   C75       1.0  0.95980  0.18750  0.88170  1.0000 -0.0434686636
C   C76       1.0  0.87160  0.26530  0.85280  1.0000 -0.08742903
C   C77       1.0  0.78380  0.18130  0.94080  1.0000 0.0798589865
C   C78       1.0  0.63600  0.32290  0.87540  1.0000 -0.1647173708
C   C79       1.0  0.60380  0.24800  0.84020  1.0000 0.1381072486
C   C80       1.0  0.69670  0.15970  0.79790  1.0000 -0.2134235186
C   C81       1.0  0.66900  0.08630  0.76900  1.0000 0.1209463098
C   C82       1.0  0.54330  0.10620  0.78070  1.0000 -0.2164027338
C   C83       1.0  0.44840  0.19490  0.82040  1.0000 0.1209463098
C   C84       1.0  0.47880  0.26600  0.85060  1.0000 -0.2134235186
C   C85       1.0  0.31210  0.20790  0.84010  1.0000 -0.170651911
C   C86       1.0  0.18140  0.30860  0.75480  1.0000 -0.1175106746
C   C87       1.0  0.14820  0.27510  0.70500  1.0000 -0.0214423959
C   C88       1.0  0.26910  0.12750  0.74770  1.0000 0.0798589865
C   C89       1.0  0.77330  0.98300  0.72800  1.0000 -0.170651911
C   C90       1.0  0.95260  0.95050  0.77890  1.0000 -0.1175106746
C   C91       1.0  0.05550  0.97360  0.75450  1.0000 -0.0214423959
C   C92       1.0  0.96910  0.01200  0.66990  1.0000 0.1121971562
S   S1        1.0  0.71139  0.42694  0.67644  1.0000 0.9584023709
S   S2        1.0  0.33800  0.38408  0.11854  1.0000 0.9673909897
S   S3        1.0  0.28861  0.57306  0.32356  1.0000 0.9584023709
S   S4        1.0  0.66200  0.61592  0.88146  1.0000 0.9673909897
N   N1        1.0  0.09560  0.86620  0.06250  1.0000 -0.3286769038
N   N2        1.0  0.24190  0.73790  0.10890  1.0000 0.0397548516
N   N3        1.0  0.73970  0.78560  0.21860  1.0000 0.0453073213
N   N4        1.0  0.79710  0.83980  0.29940  1.0000 -0.3004337793
N   N5        1.0  0.10210  0.02450  0.27670  1.0000 0.0397548516
N   N6        1.0  0.93520  0.98650  0.31380  1.0000 -0.2905998176
N   N7        1.0  0.90440  0.13380  0.93750  1.0000 -0.3286769038
N   N8        1.0  0.75810  0.26210  0.89110  1.0000 0.0397548516
N   N9        1.0  0.26030  0.21440  0.78140  1.0000 0.0453073213
N   N10       1.0  0.20290  0.16020  0.70060  1.0000 -0.3004337793
N   N11       1.0  0.89790  0.97550  0.72330  1.0000 0.0397548516
N   N12       1.0  0.06480  0.01350  0.68620  1.0000 -0.2905998176
O   O1        1.0  0.67790  0.86590  0.45290  1.0000 -0.5742902999
O   O2        1.0  0.88180  0.78580  0.43750  1.0000 -0.5333161598
O   O3        1.0  0.59000  0.47740  0.72740  1.0000 -0.5181885605
O   O4        1.0  0.82270  0.37550  0.70060  1.0000 -0.5126449858
O   O5        1.0  0.58120  0.10170  0.50850  1.0000 -0.5623193925
O   O6        1.0  0.79120  0.02610  0.46330  1.0000 -0.5519604231
O   O7        1.0  0.66100  0.07430  0.34430  1.0000 -0.5449420457
O   O8        1.0  0.47610  0.06510  0.40120  1.0000 -0.5623193925
O   O9        1.0  0.43730  0.40530  0.06670  1.0000 -0.5181885605
O   O10       1.0  0.22200  0.47550  0.14880  1.0000 -0.5126449858
O   O11       1.0  0.09230  0.08920  0.01450  1.0000 -0.5519604231
O   O12       1.0  0.29230  0.99620  0.95110  1.0000 -0.5519604231
O   O13       1.0  0.84840  0.07840  0.09470  1.0000 -0.7109543329
O   O14       1.0  0.32210  0.13410  0.54710  1.0000 -0.5742902999
O   O15       1.0  0.11820  0.21420  0.56250  1.0000 -0.5333161598
O   O16       1.0  0.41000  0.52260  0.27260  1.0000 -0.5181885605
O   O17       1.0  0.17730  0.62450  0.29940  1.0000 -0.5126449858
O   O18       1.0  0.41880  0.89830  0.49150  1.0000 -0.5623193925
O   O19       1.0  0.20880  0.97390  0.53670  1.0000 -0.5519604231
O   O20       1.0  0.33900  0.92570  0.65570  1.0000 -0.5449420457
O   O21       1.0  0.52390  0.93490  0.59880  1.0000 -0.5623193925
O   O22       1.0  0.56270  0.59470  0.93330  1.0000 -0.5181885605
O   O23       1.0  0.77800  0.52450  0.85120  1.0000 -0.5126449858
O   O24       1.0  0.90770  0.91080  0.98550  1.0000 -0.5519604231
O   O25       1.0  0.70770  0.00380  0.04890  1.0000 -0.5519604231
O   O26       1.0  0.15160  0.92160  0.90530  1.0000 -0.7109543329
