# DDEC6 charges by PACMAN v1.1 (https://github.com/mtap-research/PACMAN-charge/)
data_2018[Zn][ith]3[FSR]2
_chemical_formula_sum              "Zn24 H132 C282 N24 O78"
_cell_length_a       29.8226
_cell_length_b       29.8226
_cell_length_c       29.8226
_cell_angle_alpha    90
_cell_angle_beta     90
_cell_angle_gamma    90

_symmetry_space_group_name_H-M    "P 1"
_symmetry_Int_Tables_number       1

loop_
  _symmetry_equiv_pos_as_xyz
  'x, y, z'

loop_
  _atom_site_type_symbol
  _atom_site_label
  _atom_site_symmetry_multiplicity
  _atom_site_fract_x
  _atom_site_fract_y
  _atom_site_fract_z
  _atom_site_occupancy
  _atom_site_charge
Zn  Zn1       1.0  0.44607  0.00000  0.25018  1.0000 0.9530005763
Zn  Zn2       1.0  0.55393  0.00000  0.25018  1.0000 0.9530005763
Zn  Zn3       1.0  0.55393  0.00000  0.74982  1.0000 0.9530005763
Zn  Zn4       1.0  0.44607  0.00000  0.74982  1.0000 0.9530005763
Zn  Zn5       1.0  0.25018  0.44607  0.00000  1.0000 0.9530005763
Zn  Zn6       1.0  0.25018  0.55393  0.00000  1.0000 0.9530005763
Zn  Zn7       1.0  0.74982  0.55393  0.00000  1.0000 0.9530005763
Zn  Zn8       1.0  0.74982  0.44607  0.00000  1.0000 0.9530005763
Zn  Zn9       1.0  0.00000  0.25018  0.44607  1.0000 0.9530005763
Zn  Zn10      1.0  0.00000  0.25018  0.55393  1.0000 0.9530005763
Zn  Zn11      1.0  0.00000  0.74982  0.55393  1.0000 0.9530005763
Zn  Zn12      1.0  0.00000  0.74982  0.44607  1.0000 0.9530005763
Zn  Zn13      1.0  0.50000  0.94564  0.17721  1.0000 0.9588377585
Zn  Zn14      1.0  0.50000  0.05436  0.17721  1.0000 0.9588377585
Zn  Zn15      1.0  0.50000  0.94564  0.82279  1.0000 0.9588377585
Zn  Zn16      1.0  0.50000  0.05436  0.82279  1.0000 0.9588377585
Zn  Zn17      1.0  0.17721  0.50000  0.94564  1.0000 0.9588377585
Zn  Zn18      1.0  0.17721  0.50000  0.05436  1.0000 0.9588377585
Zn  Zn19      1.0  0.82279  0.50000  0.94564  1.0000 0.9588377585
Zn  Zn20      1.0  0.82279  0.50000  0.05436  1.0000 0.9588377585
Zn  Zn21      1.0  0.94564  0.17721  0.50000  1.0000 0.9588377585
Zn  Zn22      1.0  0.05436  0.17721  0.50000  1.0000 0.9588377585
Zn  Zn23      1.0  0.94564  0.82279  0.50000  1.0000 0.9588377585
Zn  Zn24      1.0  0.05436  0.82279  0.50000  1.0000 0.9588377585
H   H1        1.0  0.27090  0.85420  0.29540  1.0000 0.2999893138
H   H2        1.0  0.34370  0.90310  0.26700  1.0000 0.137972475
H   H3        1.0  0.40190  0.84730  0.15860  1.0000 0.1283034005
H   H4        1.0  0.35130  0.79020  0.15780  1.0000 0.1283034005
H   H5        1.0  0.72910  0.14580  0.29540  1.0000 0.2999893138
H   H6        1.0  0.65630  0.09690  0.26700  1.0000 0.137972475
H   H7        1.0  0.59810  0.15270  0.15860  1.0000 0.1283034005
H   H8        1.0  0.64870  0.20980  0.15780  1.0000 0.1283034005
H   H9        1.0  0.72910  0.85420  0.70460  1.0000 0.2999893138
H   H10       1.0  0.65630  0.90310  0.73300  1.0000 0.137972475
H   H11       1.0  0.59810  0.84730  0.84140  1.0000 0.1283034005
H   H12       1.0  0.64870  0.79020  0.84220  1.0000 0.1283034005
H   H13       1.0  0.27090  0.14580  0.70460  1.0000 0.2999893138
H   H14       1.0  0.34370  0.09690  0.73300  1.0000 0.137972475
H   H15       1.0  0.40190  0.15270  0.84140  1.0000 0.1283034005
H   H16       1.0  0.35130  0.20980  0.84220  1.0000 0.1283034005
H   H17       1.0  0.29540  0.27090  0.85420  1.0000 0.2999893138
H   H18       1.0  0.26700  0.34370  0.90310  1.0000 0.137972475
H   H19       1.0  0.15860  0.40190  0.84730  1.0000 0.1283034005
H   H20       1.0  0.15780  0.35130  0.79020  1.0000 0.1283034005
H   H21       1.0  0.29540  0.72910  0.14580  1.0000 0.2999893138
H   H22       1.0  0.26700  0.65630  0.09690  1.0000 0.137972475
H   H23       1.0  0.15860  0.59810  0.15270  1.0000 0.1283034005
H   H24       1.0  0.15780  0.64870  0.20980  1.0000 0.1283034005
H   H25       1.0  0.70460  0.72910  0.85420  1.0000 0.2999893138
H   H26       1.0  0.73300  0.65630  0.90310  1.0000 0.137972475
H   H27       1.0  0.84140  0.59810  0.84730  1.0000 0.1283034005
H   H28       1.0  0.84220  0.64870  0.79020  1.0000 0.1283034005
H   H29       1.0  0.70460  0.27090  0.14580  1.0000 0.2999893138
H   H30       1.0  0.73300  0.34370  0.09690  1.0000 0.137972475
H   H31       1.0  0.84140  0.40190  0.15270  1.0000 0.1283034005
H   H32       1.0  0.84220  0.35130  0.20980  1.0000 0.1283034005
H   H33       1.0  0.85420  0.29540  0.27090  1.0000 0.2999893138
H   H34       1.0  0.90310  0.26700  0.34370  1.0000 0.137972475
H   H35       1.0  0.84730  0.15860  0.40190  1.0000 0.1283034005
H   H36       1.0  0.79020  0.15780  0.35130  1.0000 0.1283034005
H   H37       1.0  0.14580  0.29540  0.72910  1.0000 0.2999893138
H   H38       1.0  0.09690  0.26700  0.65630  1.0000 0.137972475
H   H39       1.0  0.15270  0.15860  0.59810  1.0000 0.1283034005
H   H40       1.0  0.20980  0.15780  0.64870  1.0000 0.1283034005
H   H41       1.0  0.85420  0.70460  0.72910  1.0000 0.2999893138
H   H42       1.0  0.90310  0.73300  0.65630  1.0000 0.137972475
H   H43       1.0  0.84730  0.84140  0.59810  1.0000 0.1283034005
H   H44       1.0  0.79020  0.84220  0.64870  1.0000 0.1283034005
H   H45       1.0  0.14580  0.70460  0.27090  1.0000 0.2999893138
H   H46       1.0  0.09690  0.73300  0.34370  1.0000 0.137972475
H   H47       1.0  0.15270  0.84140  0.40190  1.0000 0.1283034005
H   H48       1.0  0.20980  0.84220  0.35130  1.0000 0.1283034005
H   H49       1.0  0.72910  0.14580  0.70460  1.0000 0.2999893138
H   H50       1.0  0.65630  0.09690  0.73300  1.0000 0.137972475
H   H51       1.0  0.59810  0.15270  0.84140  1.0000 0.1283034005
H   H52       1.0  0.64870  0.20980  0.84220  1.0000 0.1283034005
H   H53       1.0  0.27090  0.85420  0.70460  1.0000 0.2999893138
H   H54       1.0  0.34370  0.90310  0.73300  1.0000 0.137972475
H   H55       1.0  0.40190  0.84730  0.84140  1.0000 0.1283034005
H   H56       1.0  0.35130  0.79020  0.84220  1.0000 0.1283034005
H   H57       1.0  0.27090  0.14580  0.29540  1.0000 0.2999893138
H   H58       1.0  0.34370  0.09690  0.26700  1.0000 0.137972475
H   H59       1.0  0.40190  0.15270  0.15860  1.0000 0.1283034005
H   H60       1.0  0.35130  0.20980  0.15780  1.0000 0.1283034005
H   H61       1.0  0.72910  0.85420  0.29540  1.0000 0.2999893138
H   H62       1.0  0.65630  0.90310  0.26700  1.0000 0.137972475
H   H63       1.0  0.59810  0.84730  0.15860  1.0000 0.1283034005
H   H64       1.0  0.64870  0.79020  0.15780  1.0000 0.1283034005
H   H65       1.0  0.70460  0.72910  0.14580  1.0000 0.2999893138
H   H66       1.0  0.73300  0.65630  0.09690  1.0000 0.137972475
H   H67       1.0  0.84140  0.59810  0.15270  1.0000 0.1283034005
H   H68       1.0  0.84220  0.64870  0.20980  1.0000 0.1283034005
H   H69       1.0  0.70460  0.27090  0.85420  1.0000 0.2999893138
H   H70       1.0  0.73300  0.34370  0.90310  1.0000 0.137972475
H   H71       1.0  0.84140  0.40190  0.84730  1.0000 0.1283034005
H   H72       1.0  0.84220  0.35130  0.79020  1.0000 0.1283034005
H   H73       1.0  0.29540  0.27090  0.14580  1.0000 0.2999893138
H   H74       1.0  0.26700  0.34370  0.09690  1.0000 0.137972475
H   H75       1.0  0.15860  0.40190  0.15270  1.0000 0.1283034005
H   H76       1.0  0.15780  0.35130  0.20980  1.0000 0.1283034005
H   H77       1.0  0.29540  0.72910  0.85420  1.0000 0.2999893138
H   H78       1.0  0.26700  0.65630  0.90310  1.0000 0.137972475
H   H79       1.0  0.15860  0.59810  0.84730  1.0000 0.1283034005
H   H80       1.0  0.15780  0.64870  0.79020  1.0000 0.1283034005
H   H81       1.0  0.14580  0.70460  0.72910  1.0000 0.2999893138
H   H82       1.0  0.09690  0.73300  0.65630  1.0000 0.137972475
H   H83       1.0  0.15270  0.84140  0.59810  1.0000 0.1283034005
H   H84       1.0  0.20980  0.84220  0.64870  1.0000 0.1283034005
H   H85       1.0  0.85420  0.70460  0.27090  1.0000 0.2999893138
H   H86       1.0  0.90310  0.73300  0.34370  1.0000 0.137972475
H   H87       1.0  0.84730  0.84140  0.40190  1.0000 0.1283034005
H   H88       1.0  0.79020  0.84220  0.35130  1.0000 0.1283034005
H   H89       1.0  0.14580  0.29540  0.27090  1.0000 0.2999893138
H   H90       1.0  0.09690  0.26700  0.34370  1.0000 0.137972475
H   H91       1.0  0.15270  0.15860  0.40190  1.0000 0.1283034005
H   H92       1.0  0.20980  0.15780  0.35130  1.0000 0.1283034005
H   H93       1.0  0.85420  0.29540  0.72910  1.0000 0.2999893138
H   H94       1.0  0.90310  0.26700  0.65630  1.0000 0.137972475
H   H95       1.0  0.84730  0.15860  0.59810  1.0000 0.1283034005
H   H96       1.0  0.79020  0.15780  0.64870  1.0000 0.1283034005
H   H97       1.0  0.56680  0.00000  0.39090  1.0000 0.1283034005
H   H98       1.0  0.56630  0.00000  0.46610  1.0000 0.1211254841
H   H99       1.0  0.43320  0.00000  0.39090  1.0000 0.1283034005
H   H100      1.0  0.43370  0.00000  0.46610  1.0000 0.1211254841
H   H101      1.0  0.43320  0.00000  0.60910  1.0000 0.1283034005
H   H102      1.0  0.43370  0.00000  0.53390  1.0000 0.1211254841
H   H103      1.0  0.56680  0.00000  0.60910  1.0000 0.1283034005
H   H104      1.0  0.56630  0.00000  0.53390  1.0000 0.1211254841
H   H105      1.0  0.39090  0.56680  0.00000  1.0000 0.1283034005
H   H106      1.0  0.46610  0.56630  0.00000  1.0000 0.1211254841
H   H107      1.0  0.39090  0.43320  0.00000  1.0000 0.1283034005
H   H108      1.0  0.46610  0.43370  0.00000  1.0000 0.1211254841
H   H109      1.0  0.60910  0.43320  0.00000  1.0000 0.1283034005
H   H110      1.0  0.53390  0.43370  0.00000  1.0000 0.1211254841
H   H111      1.0  0.60910  0.56680  0.00000  1.0000 0.1283034005
H   H112      1.0  0.53390  0.56630  0.00000  1.0000 0.1211254841
H   H113      1.0  0.00000  0.39090  0.56680  1.0000 0.1283034005
H   H114      1.0  0.00000  0.46610  0.56630  1.0000 0.1211254841
H   H115      1.0  0.00000  0.39090  0.43320  1.0000 0.1283034005
H   H116      1.0  0.00000  0.46610  0.43370  1.0000 0.1211254841
H   H117      1.0  0.00000  0.60910  0.43320  1.0000 0.1283034005
H   H118      1.0  0.00000  0.53390  0.43370  1.0000 0.1211254841
H   H119      1.0  0.00000  0.60910  0.56680  1.0000 0.1283034005
H   H120      1.0  0.00000  0.53390  0.56630  1.0000 0.1211254841
H   H121      1.0  0.50000  0.93330  0.03650  1.0000 0.1283034005
H   H122      1.0  0.50000  0.06670  0.03650  1.0000 0.1283034005
H   H123      1.0  0.50000  0.93330  0.96350  1.0000 0.1283034005
H   H124      1.0  0.50000  0.06670  0.96350  1.0000 0.1283034005
H   H125      1.0  0.03650  0.50000  0.93330  1.0000 0.1283034005
H   H126      1.0  0.03650  0.50000  0.06670  1.0000 0.1283034005
H   H127      1.0  0.96350  0.50000  0.93330  1.0000 0.1283034005
H   H128      1.0  0.96350  0.50000  0.06670  1.0000 0.1283034005
H   H129      1.0  0.93330  0.03650  0.50000  1.0000 0.1283034005
H   H130      1.0  0.06670  0.03650  0.50000  1.0000 0.1283034005
H   H131      1.0  0.93330  0.96350  0.50000  1.0000 0.1283034005
H   H132      1.0  0.06670  0.96350  0.50000  1.0000 0.1283034005
C   C1        1.0  0.41340  0.91480  0.21520  1.0000 0.5994680533
C   C2        1.0  0.27720  0.78350  0.21880  1.0000 -0.131565252
C   C3        1.0  0.37920  0.87940  0.21430  1.0000 -0.0532104524
C   C4        1.0  0.34540  0.88050  0.24550  1.0000 -0.1813645074
C   C5        1.0  0.31390  0.81140  0.21070  1.0000 -0.0161097408
C   C6        1.0  0.31320  0.84550  0.24320  1.0000 0.1211254841
C   C7        1.0  0.25510  0.80040  0.25830  1.0000 0.10341035
C   C8        1.0  0.37980  0.84620  0.18060  1.0000 -0.0865770845
C   C9        1.0  0.34910  0.81260  0.17940  1.0000 -0.1626637246
C   C10       1.0  0.58660  0.08520  0.21520  1.0000 0.5994680533
C   C11       1.0  0.72280  0.21650  0.21880  1.0000 -0.131565252
C   C12       1.0  0.62080  0.12060  0.21430  1.0000 -0.0532104524
C   C13       1.0  0.65460  0.11950  0.24550  1.0000 -0.1813645074
C   C14       1.0  0.68610  0.18860  0.21070  1.0000 -0.0161097408
C   C15       1.0  0.68680  0.15450  0.24320  1.0000 0.1211254841
C   C16       1.0  0.74490  0.19960  0.25830  1.0000 0.10341035
C   C17       1.0  0.62020  0.15380  0.18060  1.0000 -0.0865770845
C   C18       1.0  0.65090  0.18740  0.17940  1.0000 -0.1626637246
C   C19       1.0  0.58660  0.91480  0.78480  1.0000 0.5994680533
C   C20       1.0  0.72280  0.78350  0.78120  1.0000 -0.131565252
C   C21       1.0  0.62080  0.87940  0.78570  1.0000 -0.0532104524
C   C22       1.0  0.65460  0.88050  0.75450  1.0000 -0.1813645074
C   C23       1.0  0.68610  0.81140  0.78930  1.0000 -0.0161097408
C   C24       1.0  0.68680  0.84550  0.75680  1.0000 0.1211254841
C   C25       1.0  0.74490  0.80040  0.74170  1.0000 0.1058691883
C   C26       1.0  0.62020  0.84620  0.81940  1.0000 -0.0865770845
C   C27       1.0  0.65090  0.81260  0.82060  1.0000 -0.1626637246
C   C28       1.0  0.41340  0.08520  0.78480  1.0000 0.5994680533
C   C29       1.0  0.27720  0.21650  0.78120  1.0000 -0.131565252
C   C30       1.0  0.37920  0.12060  0.78570  1.0000 -0.0532104524
C   C31       1.0  0.34540  0.11950  0.75450  1.0000 -0.1813645074
C   C32       1.0  0.31390  0.18860  0.78930  1.0000 -0.0161097408
C   C33       1.0  0.31320  0.15450  0.75680  1.0000 0.1211254841
C   C34       1.0  0.25510  0.19960  0.74170  1.0000 0.10341035
C   C35       1.0  0.37980  0.15380  0.81940  1.0000 -0.0865770845
C   C36       1.0  0.34910  0.18740  0.82060  1.0000 -0.1626637246
C   C37       1.0  0.21520  0.41340  0.91480  1.0000 0.5994680533
C   C38       1.0  0.21880  0.27720  0.78350  1.0000 -0.131565252
C   C39       1.0  0.21430  0.37920  0.87940  1.0000 -0.0532104524
C   C40       1.0  0.24550  0.34540  0.88050  1.0000 -0.1813645074
C   C41       1.0  0.21070  0.31390  0.81140  1.0000 -0.0161097408
C   C42       1.0  0.24320  0.31320  0.84550  1.0000 0.1211254841
C   C43       1.0  0.25830  0.25510  0.80040  1.0000 0.10341035
C   C44       1.0  0.18060  0.37980  0.84620  1.0000 -0.0865770845
C   C45       1.0  0.17940  0.34910  0.81260  1.0000 -0.1626637246
C   C46       1.0  0.21520  0.58660  0.08520  1.0000 0.5994680533
C   C47       1.0  0.21880  0.72280  0.21650  1.0000 -0.131565252
C   C48       1.0  0.21430  0.62080  0.12060  1.0000 -0.0532104524
C   C49       1.0  0.24550  0.65460  0.11950  1.0000 -0.1813645074
C   C50       1.0  0.21070  0.68610  0.18860  1.0000 -0.0161097408
C   C51       1.0  0.24320  0.68680  0.15450  1.0000 0.1211254841
C   C52       1.0  0.25830  0.74490  0.19960  1.0000 0.10341035
C   C53       1.0  0.18060  0.62020  0.15380  1.0000 -0.0865770845
C   C54       1.0  0.17940  0.65090  0.18740  1.0000 -0.1626637246
C   C55       1.0  0.78480  0.58660  0.91480  1.0000 0.5994680533
C   C56       1.0  0.78120  0.72280  0.78350  1.0000 -0.131565252
C   C57       1.0  0.78570  0.62080  0.87940  1.0000 -0.0532104524
C   C58       1.0  0.75450  0.65460  0.88050  1.0000 -0.1813645074
C   C59       1.0  0.78930  0.68610  0.81140  1.0000 -0.0161097408
C   C60       1.0  0.75680  0.68680  0.84550  1.0000 0.1211254841
C   C61       1.0  0.74170  0.74490  0.80040  1.0000 0.1058691883
C   C62       1.0  0.81940  0.62020  0.84620  1.0000 -0.0865770845
C   C63       1.0  0.82060  0.65090  0.81260  1.0000 -0.1626637246
C   C64       1.0  0.78480  0.41340  0.08520  1.0000 0.5994680533
C   C65       1.0  0.78120  0.27720  0.21650  1.0000 -0.131565252
C   C66       1.0  0.78570  0.37920  0.12060  1.0000 -0.0532104524
C   C67       1.0  0.75450  0.34540  0.11950  1.0000 -0.1813645074
C   C68       1.0  0.78930  0.31390  0.18860  1.0000 -0.0161097408
C   C69       1.0  0.75680  0.31320  0.15450  1.0000 0.1211254841
C   C70       1.0  0.74170  0.25510  0.19960  1.0000 0.10341035
C   C71       1.0  0.81940  0.37980  0.15380  1.0000 -0.0865770845
C   C72       1.0  0.82060  0.34910  0.18740  1.0000 -0.1626637246
C   C73       1.0  0.91480  0.21520  0.41340  1.0000 0.5994680533
C   C74       1.0  0.78350  0.21880  0.27720  1.0000 -0.131565252
C   C75       1.0  0.87940  0.21430  0.37920  1.0000 -0.0532104524
C   C76       1.0  0.88050  0.24550  0.34540  1.0000 -0.1813645074
C   C77       1.0  0.81140  0.21070  0.31390  1.0000 -0.0161097408
C   C78       1.0  0.84550  0.24320  0.31320  1.0000 0.1211254841
C   C79       1.0  0.80040  0.25830  0.25510  1.0000 0.10341035
C   C80       1.0  0.84620  0.18060  0.37980  1.0000 -0.0865770845
C   C81       1.0  0.81260  0.17940  0.34910  1.0000 -0.1626637246
C   C82       1.0  0.08520  0.21520  0.58660  1.0000 0.5994680533
C   C83       1.0  0.21650  0.21880  0.72280  1.0000 -0.131565252
C   C84       1.0  0.12060  0.21430  0.62080  1.0000 -0.0532104524
C   C85       1.0  0.11950  0.24550  0.65460  1.0000 -0.1813645074
C   C86       1.0  0.18860  0.21070  0.68610  1.0000 -0.0161097408
C   C87       1.0  0.15450  0.24320  0.68680  1.0000 0.1211254841
C   C88       1.0  0.19960  0.25830  0.74490  1.0000 0.10341035
C   C89       1.0  0.15380  0.18060  0.62020  1.0000 -0.0865770845
C   C90       1.0  0.18740  0.17940  0.65090  1.0000 -0.1626637246
C   C91       1.0  0.91480  0.78480  0.58660  1.0000 0.5994680533
C   C92       1.0  0.78350  0.78120  0.72280  1.0000 -0.131565252
C   C93       1.0  0.87940  0.78570  0.62080  1.0000 -0.0532104524
C   C94       1.0  0.88050  0.75450  0.65460  1.0000 -0.1813645074
C   C95       1.0  0.81140  0.78930  0.68610  1.0000 -0.0161097408
C   C96       1.0  0.84550  0.75680  0.68680  1.0000 0.1211254841
C   C97       1.0  0.80040  0.74170  0.74490  1.0000 0.1058691883
C   C98       1.0  0.84620  0.81940  0.62020  1.0000 -0.0865770845
C   C99       1.0  0.81260  0.82060  0.65090  1.0000 -0.1626637246
C   C100      1.0  0.08520  0.78480  0.41340  1.0000 0.5994680533
C   C101      1.0  0.21650  0.78120  0.27720  1.0000 -0.131565252
C   C102      1.0  0.12060  0.78570  0.37920  1.0000 -0.0532104524
C   C103      1.0  0.11950  0.75450  0.34540  1.0000 -0.1813645074
C   C104      1.0  0.18860  0.78930  0.31390  1.0000 -0.0161097408
C   C105      1.0  0.15450  0.75680  0.31320  1.0000 0.1211254841
C   C106      1.0  0.19960  0.74170  0.25510  1.0000 0.10341035
C   C107      1.0  0.15380  0.81940  0.37980  1.0000 -0.0865770845
C   C108      1.0  0.18740  0.82060  0.34910  1.0000 -0.1626637246
C   C109      1.0  0.58660  0.08520  0.78480  1.0000 0.5994680533
C   C110      1.0  0.72280  0.21650  0.78120  1.0000 -0.131565252
C   C111      1.0  0.62080  0.12060  0.78570  1.0000 -0.0532104524
C   C112      1.0  0.65460  0.11950  0.75450  1.0000 -0.1813645074
C   C113      1.0  0.68610  0.18860  0.78930  1.0000 -0.0161097408
C   C114      1.0  0.68680  0.15450  0.75680  1.0000 0.1283034005
C   C115      1.0  0.74490  0.19960  0.74170  1.0000 0.1058691883
C   C116      1.0  0.62020  0.15380  0.81940  1.0000 -0.0865770845
C   C117      1.0  0.65090  0.18740  0.82060  1.0000 -0.1626637246
C   C118      1.0  0.41340  0.91480  0.78480  1.0000 0.5994680533
C   C119      1.0  0.27720  0.78350  0.78120  1.0000 -0.131565252
C   C120      1.0  0.37920  0.87940  0.78570  1.0000 -0.0532104524
C   C121      1.0  0.34540  0.88050  0.75450  1.0000 -0.1813645074
C   C122      1.0  0.31390  0.81140  0.78930  1.0000 -0.0161097408
C   C123      1.0  0.31320  0.84550  0.75680  1.0000 0.1211254841
C   C124      1.0  0.25510  0.80040  0.74170  1.0000 0.10341035
C   C125      1.0  0.37980  0.84620  0.81940  1.0000 -0.0865770845
C   C126      1.0  0.34910  0.81260  0.82060  1.0000 -0.1626637246
C   C127      1.0  0.41340  0.08520  0.21520  1.0000 0.5994680533
C   C128      1.0  0.27720  0.21650  0.21880  1.0000 -0.131565252
C   C129      1.0  0.37920  0.12060  0.21430  1.0000 -0.0532104524
C   C130      1.0  0.34540  0.11950  0.24550  1.0000 -0.1813645074
C   C131      1.0  0.31390  0.18860  0.21070  1.0000 -0.0161097408
C   C132      1.0  0.31320  0.15450  0.24320  1.0000 0.1211254841
C   C133      1.0  0.25510  0.19960  0.25830  1.0000 0.10341035
C   C134      1.0  0.37980  0.15380  0.18060  1.0000 -0.0865770845
C   C135      1.0  0.34910  0.18740  0.17940  1.0000 -0.1626637246
C   C136      1.0  0.58660  0.91480  0.21520  1.0000 0.5994680533
C   C137      1.0  0.72280  0.78350  0.21880  1.0000 -0.131565252
C   C138      1.0  0.62080  0.87940  0.21430  1.0000 -0.0532104524
C   C139      1.0  0.65460  0.88050  0.24550  1.0000 -0.1813645074
C   C140      1.0  0.68610  0.81140  0.21070  1.0000 -0.0161097408
C   C141      1.0  0.68680  0.84550  0.24320  1.0000 0.1211254841
C   C142      1.0  0.74490  0.80040  0.25830  1.0000 0.10341035
C   C143      1.0  0.62020  0.84620  0.18060  1.0000 -0.0865770845
C   C144      1.0  0.65090  0.81260  0.17940  1.0000 -0.1626637246
C   C145      1.0  0.78480  0.58660  0.08520  1.0000 0.5994680533
C   C146      1.0  0.78120  0.72280  0.21650  1.0000 -0.131565252
C   C147      1.0  0.78570  0.62080  0.12060  1.0000 -0.0532104524
C   C148      1.0  0.75450  0.65460  0.11950  1.0000 -0.1813645074
C   C149      1.0  0.78930  0.68610  0.18860  1.0000 -0.0161097408
C   C150      1.0  0.75680  0.68680  0.15450  1.0000 0.1283034005
C   C151      1.0  0.74170  0.74490  0.19960  1.0000 0.10341035
C   C152      1.0  0.81940  0.62020  0.15380  1.0000 -0.0865770845
C   C153      1.0  0.82060  0.65090  0.18740  1.0000 -0.1626637246
C   C154      1.0  0.78480  0.41340  0.91480  1.0000 0.5994680533
C   C155      1.0  0.78120  0.27720  0.78350  1.0000 -0.131565252
C   C156      1.0  0.78570  0.37920  0.87940  1.0000 -0.0532104524
C   C157      1.0  0.75450  0.34540  0.88050  1.0000 -0.1813645074
C   C158      1.0  0.78930  0.31390  0.81140  1.0000 -0.0161097408
C   C159      1.0  0.75680  0.31320  0.84550  1.0000 0.1211254841
C   C160      1.0  0.74170  0.25510  0.80040  1.0000 0.10341035
C   C161      1.0  0.81940  0.37980  0.84620  1.0000 -0.0865770845
C   C162      1.0  0.82060  0.34910  0.81260  1.0000 -0.1626637246
C   C163      1.0  0.21520  0.41340  0.08520  1.0000 0.5994680533
C   C164      1.0  0.21880  0.27720  0.21650  1.0000 -0.131565252
C   C165      1.0  0.21430  0.37920  0.12060  1.0000 -0.0532104524
C   C166      1.0  0.24550  0.34540  0.11950  1.0000 -0.1813645074
C   C167      1.0  0.21070  0.31390  0.18860  1.0000 -0.0161097408
C   C168      1.0  0.24320  0.31320  0.15450  1.0000 0.1211254841
C   C169      1.0  0.25830  0.25510  0.19960  1.0000 0.10341035
C   C170      1.0  0.18060  0.37980  0.15380  1.0000 -0.0865770845
C   C171      1.0  0.17940  0.34910  0.18740  1.0000 -0.1626637246
C   C172      1.0  0.21520  0.58660  0.91480  1.0000 0.5994680533
C   C173      1.0  0.21880  0.72280  0.78350  1.0000 -0.131565252
C   C174      1.0  0.21430  0.62080  0.87940  1.0000 -0.0532104524
C   C175      1.0  0.24550  0.65460  0.88050  1.0000 -0.1813645074
C   C176      1.0  0.21070  0.68610  0.81140  1.0000 -0.0161097408
C   C177      1.0  0.24320  0.68680  0.84550  1.0000 0.1211254841
C   C178      1.0  0.25830  0.74490  0.80040  1.0000 0.10341035
C   C179      1.0  0.18060  0.62020  0.84620  1.0000 -0.0865770845
C   C180      1.0  0.17940  0.65090  0.81260  1.0000 -0.1626637246
C   C181      1.0  0.08520  0.78480  0.58660  1.0000 0.5994680533
C   C182      1.0  0.21650  0.78120  0.72280  1.0000 -0.131565252
C   C183      1.0  0.12060  0.78570  0.62080  1.0000 -0.0532104524
C   C184      1.0  0.11950  0.75450  0.65460  1.0000 -0.1813645074
C   C185      1.0  0.18860  0.78930  0.68610  1.0000 -0.0161097408
C   C186      1.0  0.15450  0.75680  0.68680  1.0000 0.1211254841
C   C187      1.0  0.19960  0.74170  0.74490  1.0000 0.10341035
C   C188      1.0  0.15380  0.81940  0.62020  1.0000 -0.0865770845
C   C189      1.0  0.18740  0.82060  0.65090  1.0000 -0.1626637246
C   C190      1.0  0.91480  0.78480  0.41340  1.0000 0.5994680533
C   C191      1.0  0.78350  0.78120  0.27720  1.0000 -0.131565252
C   C192      1.0  0.87940  0.78570  0.37920  1.0000 -0.0532104524
C   C193      1.0  0.88050  0.75450  0.34540  1.0000 -0.1813645074
C   C194      1.0  0.81140  0.78930  0.31390  1.0000 -0.0161097408
C   C195      1.0  0.84550  0.75680  0.31320  1.0000 0.1211254841
C   C196      1.0  0.80040  0.74170  0.25510  1.0000 0.10341035
C   C197      1.0  0.84620  0.81940  0.37980  1.0000 -0.0865770845
C   C198      1.0  0.81260  0.82060  0.34910  1.0000 -0.1626637246
C   C199      1.0  0.08520  0.21520  0.41340  1.0000 0.5994680533
C   C200      1.0  0.21650  0.21880  0.27720  1.0000 -0.131565252
C   C201      1.0  0.12060  0.21430  0.37920  1.0000 -0.0532104524
C   C202      1.0  0.11950  0.24550  0.34540  1.0000 -0.1813645074
C   C203      1.0  0.18860  0.21070  0.31390  1.0000 -0.0161097408
C   C204      1.0  0.15450  0.24320  0.31320  1.0000 0.1211254841
C   C205      1.0  0.19960  0.25830  0.25510  1.0000 0.10341035
C   C206      1.0  0.15380  0.18060  0.37980  1.0000 -0.0865770845
C   C207      1.0  0.18740  0.17940  0.34910  1.0000 -0.1626637246
C   C208      1.0  0.91480  0.21520  0.58660  1.0000 0.5994680533
C   C209      1.0  0.78350  0.21880  0.72280  1.0000 -0.131565252
C   C210      1.0  0.87940  0.21430  0.62080  1.0000 -0.0532104524
C   C211      1.0  0.88050  0.24550  0.65460  1.0000 -0.1813645074
C   C212      1.0  0.81140  0.21070  0.68610  1.0000 -0.0161097408
C   C213      1.0  0.84550  0.24320  0.68680  1.0000 0.1211254841
C   C214      1.0  0.80040  0.25830  0.74490  1.0000 0.1058691883
C   C215      1.0  0.84620  0.18060  0.62020  1.0000 -0.0865770845
C   C216      1.0  0.81260  0.17940  0.65090  1.0000 -0.1626637246
C   C217      1.0  0.53940  0.00000  0.40580  1.0000 -0.0737391533
C   C218      1.0  0.53930  0.00000  0.45060  1.0000 -0.1442797572
C   C219      1.0  0.46060  0.00000  0.40580  1.0000 -0.0737391533
C   C220      1.0  0.46070  0.00000  0.45060  1.0000 -0.1442797572
C   C221      1.0  0.46060  0.00000  0.59420  1.0000 -0.0737391533
C   C222      1.0  0.46070  0.00000  0.54940  1.0000 -0.1442797572
C   C223      1.0  0.53940  0.00000  0.59420  1.0000 -0.0737391533
C   C224      1.0  0.53930  0.00000  0.54940  1.0000 -0.1442797572
C   C225      1.0  0.40580  0.53940  0.00000  1.0000 -0.0737391533
C   C226      1.0  0.45060  0.53930  0.00000  1.0000 -0.1442797572
C   C227      1.0  0.40580  0.46060  0.00000  1.0000 -0.0737391533
C   C228      1.0  0.45060  0.46070  0.00000  1.0000 -0.1442797572
C   C229      1.0  0.59420  0.46060  0.00000  1.0000 -0.0737391533
C   C230      1.0  0.54940  0.46070  0.00000  1.0000 -0.1442797572
C   C231      1.0  0.59420  0.53940  0.00000  1.0000 -0.0737391533
C   C232      1.0  0.54940  0.53930  0.00000  1.0000 -0.1442797572
C   C233      1.0  0.00000  0.40580  0.53940  1.0000 -0.0737391533
C   C234      1.0  0.00000  0.45060  0.53930  1.0000 -0.1442797572
C   C235      1.0  0.00000  0.40580  0.46060  1.0000 -0.0737391533
C   C236      1.0  0.00000  0.45060  0.46070  1.0000 -0.1442797572
C   C237      1.0  0.00000  0.59420  0.46060  1.0000 -0.0737391533
C   C238      1.0  0.00000  0.54940  0.46070  1.0000 -0.1442797572
C   C239      1.0  0.00000  0.59420  0.53940  1.0000 -0.0737391533
C   C240      1.0  0.00000  0.54940  0.53930  1.0000 -0.1442797572
C   C241      1.0  0.50000  0.96070  0.02150  1.0000 -0.079472313
C   C242      1.0  0.50000  0.03930  0.02150  1.0000 -0.079472313
C   C243      1.0  0.50000  0.96070  0.97850  1.0000 -0.079472313
C   C244      1.0  0.50000  0.03930  0.97850  1.0000 -0.079472313
C   C245      1.0  0.02150  0.50000  0.96070  1.0000 -0.079472313
C   C246      1.0  0.02150  0.50000  0.03930  1.0000 -0.079472313
C   C247      1.0  0.97850  0.50000  0.96070  1.0000 -0.079472313
C   C248      1.0  0.97850  0.50000  0.03930  1.0000 -0.079472313
C   C249      1.0  0.96070  0.02150  0.50000  1.0000 -0.079472313
C   C250      1.0  0.03930  0.02150  0.50000  1.0000 -0.079472313
C   C251      1.0  0.96070  0.97850  0.50000  1.0000 -0.079472313
C   C252      1.0  0.03930  0.97850  0.50000  1.0000 -0.079472313
C   C253      1.0  0.50000  0.00000  0.33270  1.0000 0.5843817005
C   C254      1.0  0.50000  0.00000  0.04650  1.0000 -0.0532104524
C   C255      1.0  0.50000  0.00000  0.38040  1.0000 -0.112432238
C   C256      1.0  0.50000  0.00000  0.09670  1.0000 0.5994680533
C   C257      1.0  0.50000  0.00000  0.47370  1.0000 0.0705868611
C   C258      1.0  0.50000  0.00000  0.66730  1.0000 0.5843817005
C   C259      1.0  0.50000  0.00000  0.95350  1.0000 -0.0532104524
C   C260      1.0  0.50000  0.00000  0.61960  1.0000 -0.112432238
C   C261      1.0  0.50000  0.00000  0.90330  1.0000 0.5994680533
C   C262      1.0  0.50000  0.00000  0.52630  1.0000 0.0705868611
C   C263      1.0  0.33270  0.50000  0.00000  1.0000 0.5843817005
C   C264      1.0  0.04650  0.50000  0.00000  1.0000 -0.0532104524
C   C265      1.0  0.38040  0.50000  0.00000  1.0000 -0.112432238
C   C266      1.0  0.09670  0.50000  0.00000  1.0000 0.5994680533
C   C267      1.0  0.47370  0.50000  0.00000  1.0000 0.0705868611
C   C268      1.0  0.66730  0.50000  0.00000  1.0000 0.5843817005
C   C269      1.0  0.95350  0.50000  0.00000  1.0000 -0.0532104524
C   C270      1.0  0.61960  0.50000  0.00000  1.0000 -0.112432238
C   C271      1.0  0.90330  0.50000  0.00000  1.0000 0.5994680533
C   C272      1.0  0.52630  0.50000  0.00000  1.0000 0.0705868611
C   C273      1.0  0.00000  0.33270  0.50000  1.0000 0.5843817005
C   C274      1.0  0.00000  0.04650  0.50000  1.0000 -0.0532104524
C   C275      1.0  0.00000  0.38040  0.50000  1.0000 -0.112432238
C   C276      1.0  0.00000  0.09670  0.50000  1.0000 0.5994680533
C   C277      1.0  0.00000  0.47370  0.50000  1.0000 0.0705868611
C   C278      1.0  0.00000  0.66730  0.50000  1.0000 0.5843817005
C   C279      1.0  0.00000  0.95350  0.50000  1.0000 -0.0532104524
C   C280      1.0  0.00000  0.61960  0.50000  1.0000 -0.112432238
C   C281      1.0  0.00000  0.90330  0.50000  1.0000 0.5994680533
C   C282      1.0  0.00000  0.52630  0.50000  1.0000 0.0705868611
N   N1        1.0  0.27760  0.83810  0.27250  1.0000 -0.2798418666
N   N2        1.0  0.72240  0.16190  0.27250  1.0000 -0.2798418666
N   N3        1.0  0.72240  0.83810  0.72750  1.0000 -0.2798418666
N   N4        1.0  0.27760  0.16190  0.72750  1.0000 -0.2798418666
N   N5        1.0  0.27250  0.27760  0.83810  1.0000 -0.2798418666
N   N6        1.0  0.27250  0.72240  0.16190  1.0000 -0.2798418666
N   N7        1.0  0.72750  0.72240  0.83810  1.0000 -0.2798418666
N   N8        1.0  0.72750  0.27760  0.16190  1.0000 -0.2798418666
N   N9        1.0  0.83810  0.27250  0.27760  1.0000 -0.2798418666
N   N10       1.0  0.16190  0.27250  0.72240  1.0000 -0.2798418666
N   N11       1.0  0.83810  0.72750  0.72240  1.0000 -0.2798418666
N   N12       1.0  0.16190  0.72750  0.27760  1.0000 -0.2798418666
N   N13       1.0  0.72240  0.16190  0.72750  1.0000 -0.2798418666
N   N14       1.0  0.27760  0.83810  0.72750  1.0000 -0.2798418666
N   N15       1.0  0.27760  0.16190  0.27250  1.0000 -0.2798418666
N   N16       1.0  0.72240  0.83810  0.27250  1.0000 -0.2798418666
N   N17       1.0  0.72750  0.72240  0.16190  1.0000 -0.2798418666
N   N18       1.0  0.72750  0.27760  0.83810  1.0000 -0.2798418666
N   N19       1.0  0.27250  0.27760  0.16190  1.0000 -0.2798418666
N   N20       1.0  0.27250  0.72240  0.83810  1.0000 -0.2798418666
N   N21       1.0  0.16190  0.72750  0.72240  1.0000 -0.2798418666
N   N22       1.0  0.83810  0.72750  0.27760  1.0000 -0.2798418666
N   N23       1.0  0.16190  0.27250  0.27760  1.0000 -0.2798418666
N   N24       1.0  0.83810  0.27250  0.72240  1.0000 -0.2798418666
O   O1        1.0  0.40910  0.94726  0.24229  1.0000 -0.5344414304
O   O2        1.0  0.44641  0.91088  0.18820  1.0000 -0.5384520283
O   O3        1.0  0.59090  0.05274  0.24229  1.0000 -0.5344414304
O   O4        1.0  0.55359  0.08912  0.18820  1.0000 -0.5454930303
O   O5        1.0  0.59090  0.94726  0.75771  1.0000 -0.5344414304
O   O6        1.0  0.55359  0.91088  0.81180  1.0000 -0.5454930303
O   O7        1.0  0.40910  0.05274  0.75771  1.0000 -0.5344414304
O   O8        1.0  0.44641  0.08912  0.81180  1.0000 -0.5454930303
O   O9        1.0  0.24229  0.40910  0.94726  1.0000 -0.5344414304
O   O10       1.0  0.18820  0.44641  0.91088  1.0000 -0.5454930303
O   O11       1.0  0.24229  0.59090  0.05274  1.0000 -0.5344414304
O   O12       1.0  0.18820  0.55359  0.08912  1.0000 -0.5454930303
O   O13       1.0  0.75771  0.59090  0.94726  1.0000 -0.5344414304
O   O14       1.0  0.81180  0.55359  0.91088  1.0000 -0.5454930303
O   O15       1.0  0.75771  0.40910  0.05274  1.0000 -0.5344414304
O   O16       1.0  0.81180  0.44641  0.08912  1.0000 -0.5454930303
O   O17       1.0  0.94726  0.24229  0.40910  1.0000 -0.5344414304
O   O18       1.0  0.91088  0.18820  0.44641  1.0000 -0.5454930303
O   O19       1.0  0.05274  0.24229  0.59090  1.0000 -0.5344414304
O   O20       1.0  0.08912  0.18820  0.55359  1.0000 -0.5454930303
O   O21       1.0  0.94726  0.75771  0.59090  1.0000 -0.5344414304
O   O22       1.0  0.91088  0.81180  0.55359  1.0000 -0.5454930303
O   O23       1.0  0.05274  0.75771  0.40910  1.0000 -0.5344414304
O   O24       1.0  0.08912  0.81180  0.44641  1.0000 -0.5454930303
O   O25       1.0  0.59090  0.05274  0.75771  1.0000 -0.5344414304
O   O26       1.0  0.55359  0.08912  0.81180  1.0000 -0.5454930303
O   O27       1.0  0.40910  0.94726  0.75771  1.0000 -0.5344414304
O   O28       1.0  0.44641  0.91088  0.81180  1.0000 -0.5454930303
O   O29       1.0  0.40910  0.05274  0.24229  1.0000 -0.5344414304
O   O30       1.0  0.44641  0.08912  0.18820  1.0000 -0.5454930303
O   O31       1.0  0.59090  0.94726  0.24229  1.0000 -0.5344414304
O   O32       1.0  0.55359  0.91088  0.18820  1.0000 -0.5454930303
O   O33       1.0  0.75771  0.59090  0.05274  1.0000 -0.5344414304
O   O34       1.0  0.81180  0.55359  0.08912  1.0000 -0.5454930303
O   O35       1.0  0.75771  0.40910  0.94726  1.0000 -0.5344414304
O   O36       1.0  0.81180  0.44641  0.91088  1.0000 -0.5454930303
O   O37       1.0  0.24229  0.40910  0.05274  1.0000 -0.5344414304
O   O38       1.0  0.18820  0.44641  0.08912  1.0000 -0.5384520283
O   O39       1.0  0.24229  0.59090  0.94726  1.0000 -0.5344414304
O   O40       1.0  0.18820  0.55359  0.91088  1.0000 -0.5454930303
O   O41       1.0  0.05274  0.75771  0.59090  1.0000 -0.5344414304
O   O42       1.0  0.08912  0.81180  0.55359  1.0000 -0.5454930303
O   O43       1.0  0.94726  0.75771  0.40910  1.0000 -0.5344414304
O   O44       1.0  0.91088  0.81180  0.44641  1.0000 -0.5454930303
O   O45       1.0  0.05274  0.24229  0.40910  1.0000 -0.5344414304
O   O46       1.0  0.08912  0.18820  0.44641  1.0000 -0.5454930303
O   O47       1.0  0.94726  0.24229  0.59090  1.0000 -0.5344414304
O   O48       1.0  0.91088  0.18820  0.55359  1.0000 -0.5454930303
O   O49       1.0  0.46160  0.00000  0.31290  1.0000 -0.5384520283
O   O50       1.0  0.53840  0.00000  0.31290  1.0000 -0.5344414304
O   O51       1.0  0.53840  0.00000  0.68710  1.0000 -0.5344414304
O   O52       1.0  0.46160  0.00000  0.68710  1.0000 -0.5384520283
O   O53       1.0  0.31290  0.46160  0.00000  1.0000 -0.5384520283
O   O54       1.0  0.31290  0.53840  0.00000  1.0000 -0.5344414304
O   O55       1.0  0.68710  0.53840  0.00000  1.0000 -0.5344414304
O   O56       1.0  0.68710  0.46160  0.00000  1.0000 -0.5384520283
O   O57       1.0  0.00000  0.31290  0.46160  1.0000 -0.5384520283
O   O58       1.0  0.00000  0.31290  0.53840  1.0000 -0.5344414304
O   O59       1.0  0.00000  0.68710  0.53840  1.0000 -0.5344414304
O   O60       1.0  0.00000  0.68710  0.46160  1.0000 -0.5384520283
O   O61       1.0  0.50000  0.96180  0.11550  1.0000 -0.5454930303
O   O62       1.0  0.50000  0.03820  0.11550  1.0000 -0.5454930303
O   O63       1.0  0.50000  0.96180  0.88450  1.0000 -0.5454930303
O   O64       1.0  0.50000  0.03820  0.88450  1.0000 -0.5454930303
O   O65       1.0  0.11550  0.50000  0.96180  1.0000 -0.5454930303
O   O66       1.0  0.11550  0.50000  0.03820  1.0000 -0.5454930303
O   O67       1.0  0.88450  0.50000  0.96180  1.0000 -0.5454930303
O   O68       1.0  0.88450  0.50000  0.03820  1.0000 -0.5454930303
O   O69       1.0  0.96180  0.11550  0.50000  1.0000 -0.5454930303
O   O70       1.0  0.03820  0.11550  0.50000  1.0000 -0.5454930303
O   O71       1.0  0.96180  0.88450  0.50000  1.0000 -0.5454930303
O   O72       1.0  0.03820  0.88450  0.50000  1.0000 -0.5454930303
O   O73       1.0  0.50000  0.00000  0.21360  1.0000 -1.0250834217
O   O74       1.0  0.50000  0.00000  0.78640  1.0000 -1.0250834217
O   O75       1.0  0.21360  0.50000  0.00000  1.0000 -1.0250834217
O   O76       1.0  0.78640  0.50000  0.00000  1.0000 -1.0250834217
O   O77       1.0  0.00000  0.21360  0.50000  1.0000 -1.0250834217
O   O78       1.0  0.00000  0.78640  0.50000  1.0000 -1.0250834217
