# DDEC6 charges by PACMAN v1.1 (https://github.com/mtap-research/PACMAN-charge/)
data_2018[Zn][sod]3[FSR]19
_chemical_formula_sum              "Zn6 H60 C48 N24"
_cell_length_a       14.5904
_cell_length_b       14.5904
_cell_length_c       14.5904
_cell_angle_alpha    109.471
_cell_angle_beta     109.471
_cell_angle_gamma    109.471

_symmetry_space_group_name_H-M    "P 1"
_symmetry_Int_Tables_number       1

loop_
  _symmetry_equiv_pos_as_xyz
  'x, y, z'

loop_
  _atom_site_type_symbol
  _atom_site_label
  _atom_site_symmetry_multiplicity
  _atom_site_fract_x
  _atom_site_fract_y
  _atom_site_fract_z
  _atom_site_occupancy
  _atom_site_charge
Zn  Zn1       1.0  0.75000  0.25000  0.50000  1.0000 0.6688490985
Zn  Zn2       1.0  0.25000  0.75000  0.50000  1.0000 0.6688490985
Zn  Zn3       1.0  0.50000  0.75000  0.25000  1.0000 0.6688490985
Zn  Zn4       1.0  0.50000  0.25000  0.75000  1.0000 0.6688490985
Zn  Zn5       1.0  0.25000  0.50000  0.75000  1.0000 0.6688490985
Zn  Zn6       1.0  0.75000  0.50000  0.25000  1.0000 0.6688490985
H   H1        1.0  0.72870  0.93420  0.43130  1.0000 0.1447743937
H   H2        1.0  0.52430  0.10220  0.25610  1.0000 0.1189028962
H   H3        1.0  0.50290  0.29740  0.56870  1.0000 0.1447743937
H   H4        1.0  0.84610  0.26820  0.74390  1.0000 0.1189028962
H   H5        1.0  0.49710  0.06580  0.79450  1.0000 0.1447743937
H   H6        1.0  0.15390  0.89780  0.42210  1.0000 0.1189028962
H   H7        1.0  0.27130  0.70260  0.20550  1.0000 0.1447743937
H   H8        1.0  0.47570  0.73180  0.57790  1.0000 0.1189028962
H   H9        1.0  0.43130  0.72870  0.93420  1.0000 0.1447743937
H   H10       1.0  0.25610  0.52430  0.10220  1.0000 0.1189028962
H   H11       1.0  0.56870  0.50290  0.29740  1.0000 0.1447743937
H   H12       1.0  0.74390  0.84610  0.26820  1.0000 0.1189028962
H   H13       1.0  0.79450  0.49710  0.06580  1.0000 0.1447743937
H   H14       1.0  0.42210  0.15390  0.89780  1.0000 0.1189028962
H   H15       1.0  0.20550  0.27130  0.70260  1.0000 0.1447743937
H   H16       1.0  0.57790  0.47570  0.73180  1.0000 0.1189028962
H   H17       1.0  0.93420  0.43130  0.72870  1.0000 0.1447743937
H   H18       1.0  0.10220  0.25610  0.52430  1.0000 0.1189028962
H   H19       1.0  0.29740  0.56870  0.50290  1.0000 0.1447743937
H   H20       1.0  0.26820  0.74390  0.84610  1.0000 0.1189028962
H   H21       1.0  0.06580  0.79450  0.49710  1.0000 0.1447743937
H   H22       1.0  0.89780  0.42210  0.15390  1.0000 0.1189028962
H   H23       1.0  0.70260  0.20550  0.27130  1.0000 0.1447743937
H   H24       1.0  0.73180  0.57790  0.47570  1.0000 0.1189028962
H   H25       1.0  0.93420  0.72870  0.43130  1.0000 0.1447743937
H   H26       1.0  0.10220  0.52430  0.25610  1.0000 0.1189028962
H   H27       1.0  0.29740  0.50290  0.56870  1.0000 0.1447743937
H   H28       1.0  0.26820  0.84610  0.74390  1.0000 0.1189028962
H   H29       1.0  0.06580  0.49710  0.79450  1.0000 0.1447743937
H   H30       1.0  0.89780  0.15390  0.42210  1.0000 0.1189028962
H   H31       1.0  0.70260  0.27130  0.20550  1.0000 0.1447743937
H   H32       1.0  0.73180  0.47570  0.57790  1.0000 0.1189028962
H   H33       1.0  0.72870  0.43130  0.93420  1.0000 0.1447743937
H   H34       1.0  0.52430  0.25610  0.10220  1.0000 0.1189028962
H   H35       1.0  0.50290  0.56870  0.29740  1.0000 0.1447743937
H   H36       1.0  0.84610  0.74390  0.26820  1.0000 0.1189028962
H   H37       1.0  0.49710  0.79450  0.06580  1.0000 0.1447743937
H   H38       1.0  0.15390  0.42210  0.89780  1.0000 0.1189028962
H   H39       1.0  0.27130  0.20550  0.70260  1.0000 0.1447743937
H   H40       1.0  0.47570  0.57790  0.73180  1.0000 0.1189028962
H   H41       1.0  0.43130  0.93420  0.72870  1.0000 0.1447743937
H   H42       1.0  0.25610  0.10220  0.52430  1.0000 0.1189028962
H   H43       1.0  0.56870  0.29740  0.50290  1.0000 0.1447743937
H   H44       1.0  0.74390  0.26820  0.84610  1.0000 0.1189028962
H   H45       1.0  0.79450  0.06580  0.49710  1.0000 0.1447743937
H   H46       1.0  0.42210  0.89780  0.15390  1.0000 0.1189028962
H   H47       1.0  0.20550  0.70260  0.27130  1.0000 0.1447743937
H   H48       1.0  0.57790  0.73180  0.47570  1.0000 0.1189028962
H   H49       1.0  0.70350  0.00000  0.51990  1.0000 0.1620139656
H   H50       1.0  0.48010  0.18360  0.48010  1.0000 0.1620139656
H   H51       1.0  0.51990  0.00000  0.70350  1.0000 0.1620139656
H   H52       1.0  0.29650  0.81640  0.29650  1.0000 0.1620139656
H   H53       1.0  0.51990  0.70350  0.00000  1.0000 0.1620139656
H   H54       1.0  0.48010  0.48010  0.18360  1.0000 0.1620139656
H   H55       1.0  0.70350  0.51990  0.00000  1.0000 0.1620139656
H   H56       1.0  0.29650  0.29650  0.81640  1.0000 0.1620139656
H   H57       1.0  0.00000  0.51990  0.70350  1.0000 0.1620139656
H   H58       1.0  0.18360  0.48010  0.48010  1.0000 0.1620139656
H   H59       1.0  0.00000  0.70350  0.51990  1.0000 0.1620139656
H   H60       1.0  0.81640  0.29650  0.29650  1.0000 0.1620139656
C   C1        1.0  0.54670  0.05590  0.27920  1.0000 -0.0745943488
C   C2        1.0  0.77670  0.26750  0.72080  1.0000 -0.0745943488
C   C3        1.0  0.22330  0.94410  0.49080  1.0000 -0.0745943488
C   C4        1.0  0.45330  0.73250  0.50920  1.0000 -0.0745943488
C   C5        1.0  0.27920  0.54670  0.05590  1.0000 -0.0745943488
C   C6        1.0  0.72080  0.77670  0.26750  1.0000 -0.0745943488
C   C7        1.0  0.49080  0.22330  0.94410  1.0000 -0.0745943488
C   C8        1.0  0.50920  0.45330  0.73250  1.0000 -0.0745943488
C   C9        1.0  0.05590  0.27920  0.54670  1.0000 -0.0745943488
C   C10       1.0  0.26750  0.72080  0.77670  1.0000 -0.0745943488
C   C11       1.0  0.94410  0.49080  0.22330  1.0000 -0.0745943488
C   C12       1.0  0.73250  0.50920  0.45330  1.0000 -0.0745943488
C   C13       1.0  0.05590  0.54670  0.27920  1.0000 -0.0745943488
C   C14       1.0  0.26750  0.77670  0.72080  1.0000 -0.0745943488
C   C15       1.0  0.94410  0.22330  0.49080  1.0000 -0.0745943488
C   C16       1.0  0.73250  0.45330  0.50920  1.0000 -0.0753777819
C   C17       1.0  0.54670  0.27920  0.05590  1.0000 -0.0745943488
C   C18       1.0  0.77670  0.72080  0.26750  1.0000 -0.0745943488
C   C19       1.0  0.22330  0.49080  0.94410  1.0000 -0.0745943488
C   C20       1.0  0.45330  0.50920  0.73250  1.0000 -0.0745943488
C   C21       1.0  0.27920  0.05590  0.54670  1.0000 -0.0745943488
C   C22       1.0  0.72080  0.26750  0.77670  1.0000 -0.0745943488
C   C23       1.0  0.49080  0.94410  0.22330  1.0000 -0.0745943488
C   C24       1.0  0.50920  0.73250  0.45330  1.0000 -0.0745943488
C   C25       1.0  0.63760  0.00000  0.37440  1.0000 0.3678969843
C   C26       1.0  0.72290  0.00000  0.46310  1.0000 -0.5366651538
C   C27       1.0  0.62560  0.26320  0.62560  1.0000 0.3678969843
C   C28       1.0  0.53690  0.25980  0.53690  1.0000 -0.5366651538
C   C29       1.0  0.37440  0.00000  0.63760  1.0000 0.3678969843
C   C30       1.0  0.46310  0.00000  0.72290  1.0000 -0.5366651538
C   C31       1.0  0.36240  0.73680  0.36240  1.0000 0.3678969843
C   C32       1.0  0.27710  0.74020  0.27710  1.0000 -0.5366651538
C   C33       1.0  0.37440  0.63760  0.00000  1.0000 0.3678969843
C   C34       1.0  0.46310  0.72290  0.00000  1.0000 -0.5366651538
C   C35       1.0  0.62560  0.62560  0.26320  1.0000 0.3678969843
C   C36       1.0  0.53690  0.53690  0.25980  1.0000 -0.5366651538
C   C37       1.0  0.63760  0.37440  0.00000  1.0000 0.3678969843
C   C38       1.0  0.72290  0.46310  0.00000  1.0000 -0.5366651538
C   C39       1.0  0.36240  0.36240  0.73680  1.0000 0.3678969843
C   C40       1.0  0.27710  0.27710  0.74020  1.0000 -0.5366651538
C   C41       1.0  0.00000  0.37440  0.63760  1.0000 0.3678969843
C   C42       1.0  0.00000  0.46310  0.72290  1.0000 -0.5366651538
C   C43       1.0  0.26320  0.62560  0.62560  1.0000 0.3678969843
C   C44       1.0  0.25980  0.53690  0.53690  1.0000 -0.5366651538
C   C45       1.0  0.00000  0.63760  0.37440  1.0000 0.3678969843
C   C46       1.0  0.00000  0.72290  0.46310  1.0000 -0.5366651538
C   C47       1.0  0.73680  0.36240  0.36240  1.0000 0.3678969843
C   C48       1.0  0.74020  0.27710  0.27710  1.0000 -0.5366651538
N   N1        1.0  0.64160  0.09340  0.37520  1.0000 -0.3528854707
N   N2        1.0  0.71820  0.26640  0.62480  1.0000 -0.3528854707
N   N3        1.0  0.28180  0.90660  0.54820  1.0000 -0.3528854707
N   N4        1.0  0.35840  0.73360  0.45180  1.0000 -0.3528854707
N   N5        1.0  0.37520  0.64160  0.09340  1.0000 -0.3528854707
N   N6        1.0  0.62480  0.71820  0.26640  1.0000 -0.3528854707
N   N7        1.0  0.54820  0.28180  0.90660  1.0000 -0.3528854707
N   N8        1.0  0.45180  0.35840  0.73360  1.0000 -0.3528854707
N   N9        1.0  0.09340  0.37520  0.64160  1.0000 -0.3528854707
N   N10       1.0  0.26640  0.62480  0.71820  1.0000 -0.3528854707
N   N11       1.0  0.90660  0.54820  0.28180  1.0000 -0.3528854707
N   N12       1.0  0.73360  0.45180  0.35840  1.0000 -0.3528854707
N   N13       1.0  0.09340  0.64160  0.37520  1.0000 -0.3528854707
N   N14       1.0  0.26640  0.71820  0.62480  1.0000 -0.3528854707
N   N15       1.0  0.90660  0.28180  0.54820  1.0000 -0.3528854707
N   N16       1.0  0.73360  0.35840  0.45180  1.0000 -0.3528854707
N   N17       1.0  0.64160  0.37520  0.09340  1.0000 -0.3528854707
N   N18       1.0  0.71820  0.62480  0.26640  1.0000 -0.3528854707
N   N19       1.0  0.28180  0.54820  0.90660  1.0000 -0.3528854707
N   N20       1.0  0.35840  0.45180  0.73360  1.0000 -0.3528854707
N   N21       1.0  0.37520  0.09340  0.64160  1.0000 -0.3528854707
N   N22       1.0  0.62480  0.26640  0.71820  1.0000 -0.3528854707
N   N23       1.0  0.54820  0.90660  0.28180  1.0000 -0.3528854707
N   N24       1.0  0.45180  0.73360  0.35840  1.0000 -0.3528854707
