# DDEC6 charges by PACMAN v1.1 (https://github.com/mtap-research/PACMAN-charge/)
data_2018[Zr][pcu]3[FSR]6
_chemical_formula_sum              "Zr6 H72 C120 O32"
_cell_length_a       18.2173
_cell_length_b       18.2173
_cell_length_c       18.2173
_cell_angle_alpha    112.831
_cell_angle_beta     112.831
_cell_angle_gamma    112.831

_symmetry_space_group_name_H-M    "P 1"
_symmetry_Int_Tables_number       1

loop_
  _symmetry_equiv_pos_as_xyz
  'x, y, z'

loop_
  _atom_site_type_symbol
  _atom_site_label
  _atom_site_symmetry_multiplicity
  _atom_site_fract_x
  _atom_site_fract_y
  _atom_site_fract_z
  _atom_site_occupancy
  _atom_site_charge
Zr  Zr1       1.0  0.53851  0.58002  0.66895  1.0000 2.4033965017
Zr  Zr2       1.0  0.58002  0.66895  0.53851  1.0000 2.4033965017
Zr  Zr3       1.0  0.66895  0.53851  0.58002  1.0000 2.4033965017
Zr  Zr4       1.0  0.46149  0.41998  0.33105  1.0000 2.4033965017
Zr  Zr5       1.0  0.41998  0.33105  0.46149  1.0000 2.4033965017
Zr  Zr6       1.0  0.33105  0.46149  0.41998  1.0000 2.4033965017
H   H1        1.0  0.48540  0.48620  0.84240  1.0000 0.1221102641
H   H2        1.0  0.45090  0.42890  0.92850  1.0000 0.1107176524
H   H3        1.0  0.31950  0.14210  0.69720  1.0000 0.1221102641
H   H4        1.0  0.35430  0.19930  0.61180  1.0000 0.1265787305
H   H5        1.0  0.49110  0.36600  0.02050  1.0000 0.1107176524
H   H6        1.0  0.44420  0.31380  0.10400  1.0000 0.1221102641
H   H7        1.0  0.28110  0.16150  0.00960  1.0000 0.1107176524
H   H8        1.0  0.21010  0.11240  0.74630  1.0000 0.1107176524
H   H9        1.0  0.16130  0.99090  0.90220  1.0000 0.1107176524
H   H10       1.0  0.99560  0.84390  0.81080  1.0000 0.1221102641
H   H11       1.0  0.88140  0.89060  0.61040  1.0000 0.1265787305
H   H12       1.0  0.04870  0.03010  0.69390  1.0000 0.1221102641
H   H13       1.0  0.48620  0.84240  0.48540  1.0000 0.1221102641
H   H14       1.0  0.42890  0.92850  0.45090  1.0000 0.1107176524
H   H15       1.0  0.14210  0.69720  0.31950  1.0000 0.1221102641
H   H16       1.0  0.19930  0.61180  0.35430  1.0000 0.1265787305
H   H17       1.0  0.36600  0.02050  0.49110  1.0000 0.1107176524
H   H18       1.0  0.31380  0.10400  0.44420  1.0000 0.1221102641
H   H19       1.0  0.16150  0.00960  0.28110  1.0000 0.1107176524
H   H20       1.0  0.11240  0.74630  0.21010  1.0000 0.1107176524
H   H21       1.0  0.99090  0.90220  0.16130  1.0000 0.1107176524
H   H22       1.0  0.84390  0.81080  0.99560  1.0000 0.1221102641
H   H23       1.0  0.89060  0.61040  0.88140  1.0000 0.1265787305
H   H24       1.0  0.03010  0.69390  0.04870  1.0000 0.1221102641
H   H25       1.0  0.84240  0.48540  0.48620  1.0000 0.1221102641
H   H26       1.0  0.92850  0.45090  0.42890  1.0000 0.1107176524
H   H27       1.0  0.69720  0.31950  0.14210  1.0000 0.1221102641
H   H28       1.0  0.61180  0.35430  0.19930  1.0000 0.1265787305
H   H29       1.0  0.02050  0.49110  0.36600  1.0000 0.1107176524
H   H30       1.0  0.10400  0.44420  0.31380  1.0000 0.1221102641
H   H31       1.0  0.00960  0.28110  0.16150  1.0000 0.1107176524
H   H32       1.0  0.74630  0.21010  0.11240  1.0000 0.1107176524
H   H33       1.0  0.90220  0.16130  0.99090  1.0000 0.1107176524
H   H34       1.0  0.81080  0.99560  0.84390  1.0000 0.1221102641
H   H35       1.0  0.61040  0.88140  0.89060  1.0000 0.1265787305
H   H36       1.0  0.69390  0.04870  0.03010  1.0000 0.1221102641
H   H37       1.0  0.51460  0.51380  0.15760  1.0000 0.1221102641
H   H38       1.0  0.54910  0.57110  0.07150  1.0000 0.1107176524
H   H39       1.0  0.68050  0.85790  0.30280  1.0000 0.1221102641
H   H40       1.0  0.64570  0.80070  0.38820  1.0000 0.1265787305
H   H41       1.0  0.50890  0.63400  0.97950  1.0000 0.1107176524
H   H42       1.0  0.55580  0.68620  0.89600  1.0000 0.1221102641
H   H43       1.0  0.71890  0.83850  0.99040  1.0000 0.1107176524
H   H44       1.0  0.78990  0.88760  0.25370  1.0000 0.1107176524
H   H45       1.0  0.83870  0.00910  0.09780  1.0000 0.1107176524
H   H46       1.0  0.00440  0.15610  0.18920  1.0000 0.1221102641
H   H47       1.0  0.11860  0.10940  0.38960  1.0000 0.1265787305
H   H48       1.0  0.95130  0.96990  0.30610  1.0000 0.1221102641
H   H49       1.0  0.51380  0.15760  0.51460  1.0000 0.1221102641
H   H50       1.0  0.57110  0.07150  0.54910  1.0000 0.1107176524
H   H51       1.0  0.85790  0.30280  0.68050  1.0000 0.1221102641
H   H52       1.0  0.80070  0.38820  0.64570  1.0000 0.1265787305
H   H53       1.0  0.63400  0.97950  0.50890  1.0000 0.1107176524
H   H54       1.0  0.68620  0.89600  0.55580  1.0000 0.1221102641
H   H55       1.0  0.83850  0.99040  0.71890  1.0000 0.1107176524
H   H56       1.0  0.88760  0.25370  0.78990  1.0000 0.1107176524
H   H57       1.0  0.00910  0.09780  0.83870  1.0000 0.1107176524
H   H58       1.0  0.15610  0.18920  0.00440  1.0000 0.1221102641
H   H59       1.0  0.10940  0.38960  0.11860  1.0000 0.1265787305
H   H60       1.0  0.96990  0.30610  0.95130  1.0000 0.1221102641
H   H61       1.0  0.15760  0.51460  0.51380  1.0000 0.1221102641
H   H62       1.0  0.07150  0.54910  0.57110  1.0000 0.1107176524
H   H63       1.0  0.30280  0.68050  0.85790  1.0000 0.1221102641
H   H64       1.0  0.38820  0.64570  0.80070  1.0000 0.1265787305
H   H65       1.0  0.97950  0.50890  0.63400  1.0000 0.1107176524
H   H66       1.0  0.89600  0.55580  0.68620  1.0000 0.1221102641
H   H67       1.0  0.99040  0.71890  0.83850  1.0000 0.1107176524
H   H68       1.0  0.25370  0.78990  0.88760  1.0000 0.1107176524
H   H69       1.0  0.09780  0.83870  0.00910  1.0000 0.1107176524
H   H70       1.0  0.18920  0.00440  0.15610  1.0000 0.1221102641
H   H71       1.0  0.38960  0.11860  0.10940  1.0000 0.1265787305
H   H72       1.0  0.30610  0.95130  0.96990  1.0000 0.1221102641
C   C1        1.0  0.44628  0.38618  0.66474  1.0000 0.6380506253
C   C2        1.0  0.42437  0.34854  0.71919  1.0000 -0.0331937467
C   C3        1.0  0.45190  0.41600  0.81260  1.0000 -0.0887618533
C   C4        1.0  0.43080  0.38160  0.86360  1.0000 -0.1494829096
C   C5        1.0  0.38132  0.27978  0.82110  1.0000 0.0815308233
C   C6        1.0  0.35340  0.21250  0.72730  1.0000 -0.1494829096
C   C7        1.0  0.37450  0.24672  0.67678  1.0000 -0.0887618533
C   C8        1.0  0.35503  0.24484  0.87513  1.0000 0.0815308233
C   C9        1.0  0.42423  0.30385  0.98152  1.0000 -0.1595662538
C   C10       1.0  0.39662  0.27291  0.03137  1.0000 -0.0679259627
C   C11       1.0  0.29945  0.18231  0.97494  1.0000 -0.1439920395
C   C12       1.0  0.22779  0.12090  0.86771  1.0000 0.0815308233
C   C13       1.0  0.25743  0.15341  0.81906  1.0000 -0.1926375036
C   C14       1.0  0.12264  0.02685  0.80831  1.0000 0.0815308233
C   C15       1.0  0.10500  0.97013  0.84187  1.0000 -0.1494829096
C   C16       1.0  0.00590  0.88331  0.78839  1.0000 -0.0887618533
C   C17       1.0  0.92302  0.85409  0.70339  1.0000 -0.0331937467
C   C18       1.0  0.93837  0.90980  0.66863  1.0000 -0.0974468692
C   C19       1.0  0.03806  0.99410  0.71984  1.0000 -0.1595662538
C   C20       1.0  0.81644  0.76431  0.65045  1.0000 0.6380506253
C   C21       1.0  0.38618  0.66474  0.44628  1.0000 0.6380506253
C   C22       1.0  0.34854  0.71919  0.42437  1.0000 -0.0331937467
C   C23       1.0  0.41600  0.81260  0.45190  1.0000 -0.0887618533
C   C24       1.0  0.38160  0.86360  0.43080  1.0000 -0.1494829096
C   C25       1.0  0.27978  0.82110  0.38132  1.0000 0.0815308233
C   C26       1.0  0.21250  0.72730  0.35340  1.0000 -0.1494829096
C   C27       1.0  0.24672  0.67678  0.37450  1.0000 -0.0887618533
C   C28       1.0  0.24484  0.87513  0.35503  1.0000 0.0815308233
C   C29       1.0  0.30385  0.98152  0.42423  1.0000 -0.1595662538
C   C30       1.0  0.27291  0.03137  0.39662  1.0000 -0.0679259627
C   C31       1.0  0.18231  0.97494  0.29945  1.0000 -0.1439920395
C   C32       1.0  0.12090  0.86771  0.22779  1.0000 0.0815308233
C   C33       1.0  0.15341  0.81906  0.25743  1.0000 -0.1926375036
C   C34       1.0  0.02685  0.80831  0.12264  1.0000 0.0815308233
C   C35       1.0  0.97013  0.84187  0.10500  1.0000 -0.1494829096
C   C36       1.0  0.88331  0.78839  0.00590  1.0000 -0.0887618533
C   C37       1.0  0.85409  0.70339  0.92302  1.0000 -0.0331937467
C   C38       1.0  0.90980  0.66863  0.93837  1.0000 -0.0974468692
C   C39       1.0  0.99410  0.71984  0.03806  1.0000 -0.1595662538
C   C40       1.0  0.76431  0.65045  0.81644  1.0000 0.6380506253
C   C41       1.0  0.66474  0.44628  0.38618  1.0000 0.6380506253
C   C42       1.0  0.71919  0.42437  0.34854  1.0000 -0.0331937467
C   C43       1.0  0.81260  0.45190  0.41600  1.0000 -0.0887618533
C   C44       1.0  0.86360  0.43080  0.38160  1.0000 -0.1494829096
C   C45       1.0  0.82110  0.38132  0.27978  1.0000 0.0815308233
C   C46       1.0  0.72730  0.35340  0.21250  1.0000 -0.1494829096
C   C47       1.0  0.67678  0.37450  0.24672  1.0000 -0.0887618533
C   C48       1.0  0.87513  0.35503  0.24484  1.0000 0.0815308233
C   C49       1.0  0.98152  0.42423  0.30385  1.0000 -0.1595662538
C   C50       1.0  0.03137  0.39662  0.27291  1.0000 -0.0679259627
C   C51       1.0  0.97494  0.29945  0.18231  1.0000 -0.1439920395
C   C52       1.0  0.86771  0.22779  0.12090  1.0000 0.0815308233
C   C53       1.0  0.81906  0.25743  0.15341  1.0000 -0.1926375036
C   C54       1.0  0.80831  0.12264  0.02685  1.0000 0.0815308233
C   C55       1.0  0.84187  0.10500  0.97013  1.0000 -0.1494829096
C   C56       1.0  0.78839  0.00590  0.88331  1.0000 -0.0887618533
C   C57       1.0  0.70339  0.92302  0.85409  1.0000 -0.0331937467
C   C58       1.0  0.66863  0.93837  0.90980  1.0000 -0.0974468692
C   C59       1.0  0.71984  0.03806  0.99410  1.0000 -0.1595662538
C   C60       1.0  0.65045  0.81644  0.76431  1.0000 0.6380506253
C   C61       1.0  0.55372  0.61382  0.33526  1.0000 0.6380506253
C   C62       1.0  0.57563  0.65146  0.28081  1.0000 -0.0331937467
C   C63       1.0  0.54810  0.58400  0.18740  1.0000 -0.0887618533
C   C64       1.0  0.56920  0.61840  0.13640  1.0000 -0.1494829096
C   C65       1.0  0.61868  0.72022  0.17890  1.0000 0.0815308233
C   C66       1.0  0.64660  0.78750  0.27270  1.0000 -0.1494829096
C   C67       1.0  0.62550  0.75328  0.32322  1.0000 -0.0887618533
C   C68       1.0  0.64497  0.75516  0.12487  1.0000 0.0815308233
C   C69       1.0  0.57577  0.69615  0.01848  1.0000 -0.1595662538
C   C70       1.0  0.60338  0.72709  0.96863  1.0000 -0.0679259627
C   C71       1.0  0.70055  0.81769  0.02506  1.0000 -0.1439920395
C   C72       1.0  0.77221  0.87910  0.13229  1.0000 0.0815308233
C   C73       1.0  0.74257  0.84659  0.18094  1.0000 -0.1926375036
C   C74       1.0  0.87736  0.97315  0.19169  1.0000 0.0815308233
C   C75       1.0  0.89500  0.02987  0.15813  1.0000 -0.1494829096
C   C76       1.0  0.99410  0.11669  0.21161  1.0000 -0.0887618533
C   C77       1.0  0.07698  0.14591  0.29661  1.0000 -0.0331937467
C   C78       1.0  0.06163  0.09020  0.33137  1.0000 -0.0974468692
C   C79       1.0  0.96194  0.00590  0.28016  1.0000 -0.1595662538
C   C80       1.0  0.18356  0.23569  0.34955  1.0000 0.6380506253
C   C81       1.0  0.61382  0.33526  0.55372  1.0000 0.6380506253
C   C82       1.0  0.65146  0.28081  0.57563  1.0000 -0.0331937467
C   C83       1.0  0.58400  0.18740  0.54810  1.0000 -0.0887618533
C   C84       1.0  0.61840  0.13640  0.56920  1.0000 -0.1494829096
C   C85       1.0  0.72022  0.17890  0.61868  1.0000 0.0815308233
C   C86       1.0  0.78750  0.27270  0.64660  1.0000 -0.1494829096
C   C87       1.0  0.75328  0.32322  0.62550  1.0000 -0.0887618533
C   C88       1.0  0.75516  0.12487  0.64497  1.0000 0.0815308233
C   C89       1.0  0.69615  0.01848  0.57577  1.0000 -0.1595662538
C   C90       1.0  0.72709  0.96863  0.60338  1.0000 -0.0679259627
C   C91       1.0  0.81769  0.02506  0.70055  1.0000 -0.1439920395
C   C92       1.0  0.87910  0.13229  0.77221  1.0000 0.0815308233
C   C93       1.0  0.84659  0.18094  0.74257  1.0000 -0.1926375036
C   C94       1.0  0.97315  0.19169  0.87736  1.0000 0.0815308233
C   C95       1.0  0.02987  0.15813  0.89500  1.0000 -0.1494829096
C   C96       1.0  0.11669  0.21161  0.99410  1.0000 -0.0887618533
C   C97       1.0  0.14591  0.29661  0.07698  1.0000 -0.0331937467
C   C98       1.0  0.09020  0.33137  0.06163  1.0000 -0.0974468692
C   C99       1.0  0.00590  0.28016  0.96194  1.0000 -0.1595662538
C   C100      1.0  0.23569  0.34955  0.18356  1.0000 0.6380506253
C   C101      1.0  0.33526  0.55372  0.61382  1.0000 0.6380506253
C   C102      1.0  0.28081  0.57563  0.65146  1.0000 -0.0331937467
C   C103      1.0  0.18740  0.54810  0.58400  1.0000 -0.0887618533
C   C104      1.0  0.13640  0.56920  0.61840  1.0000 -0.1494829096
C   C105      1.0  0.17890  0.61868  0.72022  1.0000 0.0815308233
C   C106      1.0  0.27270  0.64660  0.78750  1.0000 -0.1494829096
C   C107      1.0  0.32322  0.62550  0.75328  1.0000 -0.0887618533
C   C108      1.0  0.12487  0.64497  0.75516  1.0000 0.0815308233
C   C109      1.0  0.01848  0.57577  0.69615  1.0000 -0.1595662538
C   C110      1.0  0.96863  0.60338  0.72709  1.0000 -0.0679259627
C   C111      1.0  0.02506  0.70055  0.81769  1.0000 -0.1439920395
C   C112      1.0  0.13229  0.77221  0.87910  1.0000 0.0815308233
C   C113      1.0  0.18094  0.74257  0.84659  1.0000 -0.1926375036
C   C114      1.0  0.19169  0.87736  0.97315  1.0000 0.0815308233
C   C115      1.0  0.15813  0.89500  0.02987  1.0000 -0.1494829096
C   C116      1.0  0.21161  0.99410  0.11669  1.0000 -0.0887618533
C   C117      1.0  0.29661  0.07698  0.14591  1.0000 -0.0331937467
C   C118      1.0  0.33137  0.06163  0.09020  1.0000 -0.0974468692
C   C119      1.0  0.28016  0.96194  0.00590  1.0000 -0.1595662538
C   C120      1.0  0.34955  0.18356  0.23569  1.0000 0.6380506253
O   O1        1.0  0.49291  0.48178  0.71100  1.0000 -0.5915793267
O   O2        1.0  0.41638  0.31982  0.57755  1.0000 -0.5915793267
O   O3        1.0  0.80499  0.68955  0.64753  1.0000 -0.5915793267
O   O4        1.0  0.74600  0.77104  0.61384  1.0000 -0.5974023197
O   O5        1.0  0.39575  0.43645  0.52430  1.0000 -1.0914809956
O   O6        1.0  0.48178  0.71100  0.49291  1.0000 -0.5915793267
O   O7        1.0  0.31982  0.57755  0.41638  1.0000 -0.5915793267
O   O8        1.0  0.68955  0.64753  0.80499  1.0000 -0.5915793267
O   O9        1.0  0.77104  0.61384  0.74600  1.0000 -0.5974023197
O   O10       1.0  0.43645  0.52430  0.39575  1.0000 -1.0914809956
O   O11       1.0  0.71100  0.49291  0.48178  1.0000 -0.5915793267
O   O12       1.0  0.57755  0.41638  0.31982  1.0000 -0.5915793267
O   O13       1.0  0.64753  0.80499  0.68955  1.0000 -0.5915793267
O   O14       1.0  0.61384  0.74600  0.77104  1.0000 -0.5974023197
O   O15       1.0  0.52430  0.39575  0.43645  1.0000 -1.0914809956
O   O16       1.0  0.50709  0.51822  0.28900  1.0000 -0.5915793267
O   O17       1.0  0.58362  0.68018  0.42245  1.0000 -0.5915793267
O   O18       1.0  0.19501  0.31045  0.35247  1.0000 -0.5915793267
O   O19       1.0  0.25400  0.22896  0.38616  1.0000 -0.5974023197
O   O20       1.0  0.60425  0.56355  0.47570  1.0000 -1.0914809956
O   O21       1.0  0.51822  0.28900  0.50709  1.0000 -0.5915793267
O   O22       1.0  0.68018  0.42245  0.58362  1.0000 -0.5915793267
O   O23       1.0  0.31045  0.35247  0.19501  1.0000 -0.5915793267
O   O24       1.0  0.22896  0.38616  0.25400  1.0000 -0.5974023197
O   O25       1.0  0.56355  0.47570  0.60425  1.0000 -1.0914809956
O   O26       1.0  0.28900  0.50709  0.51822  1.0000 -0.5915793267
O   O27       1.0  0.42245  0.58362  0.68018  1.0000 -0.5915793267
O   O28       1.0  0.35247  0.19501  0.31045  1.0000 -0.5915793267
O   O29       1.0  0.38616  0.25400  0.22896  1.0000 -0.5974023197
O   O30       1.0  0.47570  0.60425  0.56355  1.0000 -1.0914809956
O   O31       1.0  0.64207  0.64207  0.64207  1.0000 -1.0711203868
O   O32       1.0  0.35793  0.35793  0.35793  1.0000 -1.0711203868
