# DDEC6 charges by PACMAN v1.1 (https://github.com/mtap-research/PACMAN-charge/)
data_2018[Zn][nan]3[FSR]8
_chemical_formula_sum              "Zn8 H72 C60 O32"
_cell_length_a       10.3517
_cell_length_b       10.8998
_cell_length_c       20.4702
_cell_angle_alpha    90
_cell_angle_beta     90
_cell_angle_gamma    90

_symmetry_space_group_name_H-M    "P 1"
_symmetry_Int_Tables_number       1

loop_
  _symmetry_equiv_pos_as_xyz
  'x, y, z'

loop_
  _atom_site_type_symbol
  _atom_site_label
  _atom_site_symmetry_multiplicity
  _atom_site_fract_x
  _atom_site_fract_y
  _atom_site_fract_z
  _atom_site_occupancy
  _atom_site_charge
Zn  Zn1       1.0  0.44884  0.56765  0.49671  1.0000 0.9513870656
Zn  Zn2       1.0  0.13646  0.66771  0.49006  1.0000 0.9415789425
Zn  Zn3       1.0  0.05116  0.43235  0.99671  1.0000 0.9513870656
Zn  Zn4       1.0  0.36354  0.33229  0.99006  1.0000 0.9415789425
Zn  Zn5       1.0  0.55116  0.06765  0.00329  1.0000 0.9513870656
Zn  Zn6       1.0  0.86354  0.16771  0.00994  1.0000 0.9415789425
Zn  Zn7       1.0  0.94884  0.93235  0.50329  1.0000 0.9513870656
Zn  Zn8       1.0  0.63646  0.83229  0.50994  1.0000 0.9415789425
H   H1        1.0  0.07200  0.52200  0.30760  1.0000 0.1279082961
H   H2        1.0  0.05900  0.48980  0.19490  1.0000 0.1197398297
H   H3        1.0  0.44190  0.41490  0.18900  1.0000 0.1279082961
H   H4        1.0  0.45620  0.45020  0.30140  1.0000 0.1279082961
H   H5        1.0  0.73330  0.50910  0.49160  1.0000 0.0862985804
H   H6        1.0  0.78690  0.54650  0.38090  1.0000 0.1428754471
H   H7        1.0  0.63340  0.53750  0.38890  1.0000 0.1428754471
H   H8        1.0  0.70110  0.66870  0.38140  1.0000 0.1428754471
H   H9        1.0  0.58800  0.39400  0.55290  1.0000 0.3599943101
H   H10       1.0  0.41080  0.14380  0.57650  1.0000 0.1575758487
H   H11       1.0  0.53560  0.21560  0.60230  1.0000 0.148273851
H   H12       1.0  0.39720  0.28100  0.60350  1.0000 0.148273851
H   H13       1.0  0.39100  0.28470  0.48910  1.0000 0.0698952853
H   H14       1.0  0.51130  0.10770  0.46650  1.0000 0.1126064185
H   H15       1.0  0.64020  0.17280  0.49200  1.0000 0.1022889048
H   H16       1.0  0.63460  0.17550  0.37760  1.0000 0.1197398297
H   H17       1.0  0.50030  0.24810  0.37910  1.0000 0.1279082961
H   H18       1.0  0.62930  0.31320  0.40460  1.0000 0.1279082961
H   H19       1.0  0.42800  0.47800  0.80760  1.0000 0.1279082961
H   H20       1.0  0.44100  0.51020  0.69490  1.0000 0.1197398297
H   H21       1.0  0.05810  0.58510  0.68900  1.0000 0.1279082961
H   H22       1.0  0.04380  0.54980  0.80140  1.0000 0.1279082961
H   H23       1.0  0.76670  0.49090  0.99160  1.0000 0.0862985804
H   H24       1.0  0.71310  0.45350  0.88090  1.0000 0.1428754471
H   H25       1.0  0.86660  0.46250  0.88890  1.0000 0.1428754471
H   H26       1.0  0.79890  0.33130  0.88140  1.0000 0.1428754471
H   H27       1.0  0.91200  0.60600  0.05290  1.0000 0.3599943101
H   H28       1.0  0.08920  0.85620  0.07650  1.0000 0.1575758487
H   H29       1.0  0.96440  0.78440  0.10230  1.0000 0.148273851
H   H30       1.0  0.10280  0.71900  0.10350  1.0000 0.148273851
H   H31       1.0  0.10900  0.71530  0.98910  1.0000 0.0698952853
H   H32       1.0  0.98870  0.89230  0.96650  1.0000 0.1126064185
H   H33       1.0  0.85980  0.82720  0.99200  1.0000 0.1022889048
H   H34       1.0  0.86540  0.82450  0.87760  1.0000 0.1197398297
H   H35       1.0  0.99970  0.75190  0.87910  1.0000 0.1279082961
H   H36       1.0  0.87070  0.68680  0.90460  1.0000 0.1279082961
H   H37       1.0  0.92800  0.02200  0.19240  1.0000 0.1279082961
H   H38       1.0  0.94100  0.98980  0.30510  1.0000 0.1197398297
H   H39       1.0  0.55810  0.91490  0.31100  1.0000 0.1279082961
H   H40       1.0  0.54380  0.95020  0.19860  1.0000 0.1279082961
H   H41       1.0  0.26670  0.00910  0.00840  1.0000 0.0862985804
H   H42       1.0  0.21310  0.04650  0.11910  1.0000 0.1428754471
H   H43       1.0  0.36660  0.03750  0.11110  1.0000 0.1428754471
H   H44       1.0  0.29890  0.16870  0.11860  1.0000 0.1428754471
H   H45       1.0  0.41200  0.89400  0.94710  1.0000 0.3599943101
H   H46       1.0  0.58920  0.64380  0.92350  1.0000 0.1575758487
H   H47       1.0  0.46440  0.71560  0.89770  1.0000 0.148273851
H   H48       1.0  0.60280  0.78100  0.89650  1.0000 0.148273851
H   H49       1.0  0.60900  0.78470  0.01090  1.0000 0.0698952853
H   H50       1.0  0.48870  0.60770  0.03350  1.0000 0.1126064185
H   H51       1.0  0.35980  0.67280  0.00800  1.0000 0.1022889048
H   H52       1.0  0.36540  0.67550  0.12240  1.0000 0.1197398297
H   H53       1.0  0.49970  0.74810  0.12090  1.0000 0.1279082961
H   H54       1.0  0.37070  0.81320  0.09540  1.0000 0.1279082961
H   H55       1.0  0.57200  0.97800  0.69240  1.0000 0.1279082961
H   H56       1.0  0.55900  0.01020  0.80510  1.0000 0.1197398297
H   H57       1.0  0.94190  0.08510  0.81100  1.0000 0.1279082961
H   H58       1.0  0.95620  0.04980  0.69860  1.0000 0.1279082961
H   H59       1.0  0.23330  0.99090  0.50840  1.0000 0.0862985804
H   H60       1.0  0.28690  0.95350  0.61910  1.0000 0.1428754471
H   H61       1.0  0.13340  0.96250  0.61110  1.0000 0.1428754471
H   H62       1.0  0.20110  0.83130  0.61860  1.0000 0.1428754471
H   H63       1.0  0.08800  0.10600  0.44710  1.0000 0.3599943101
H   H64       1.0  0.91080  0.35620  0.42350  1.0000 0.1575758487
H   H65       1.0  0.03560  0.28440  0.39770  1.0000 0.148273851
H   H66       1.0  0.89720  0.21900  0.39650  1.0000 0.148273851
H   H67       1.0  0.89100  0.21530  0.51090  1.0000 0.0698952853
H   H68       1.0  0.01130  0.39230  0.53350  1.0000 0.1126064185
H   H69       1.0  0.14020  0.32720  0.50800  1.0000 0.1022889048
H   H70       1.0  0.13460  0.32450  0.62240  1.0000 0.1197398297
H   H71       1.0  0.00030  0.25190  0.62090  1.0000 0.1279082961
H   H72       1.0  0.12930  0.18680  0.59540  1.0000 0.1279082961
C   C1        1.0  0.27580  0.52260  0.38649  1.0000 0.5828537076
C   C2        1.0  0.26630  0.49150  0.31518  1.0000 -0.0203147464
C   C3        1.0  0.14740  0.50170  0.28351  1.0000 -0.1121712708
C   C4        1.0  0.13980  0.48200  0.21658  1.0000 -0.1121712708
C   C5        1.0  0.24930  0.45090  0.18119  1.0000 -0.030107329
C   C6        1.0  0.36710  0.43790  0.21298  1.0000 -0.1048700706
C   C7        1.0  0.37550  0.45860  0.27980  1.0000 -0.1121712708
C   C8        1.0  0.23960  0.43260  0.10866  1.0000 0.5867954671
C   C9        1.0  0.72480  0.59420  0.47382  1.0000 0.1022889048
C   C10       1.0  0.84790  0.66510  0.48999  1.0000 0.5828537076
C   C11       1.0  0.71020  0.58600  0.39957  1.0000 -0.4847233713
C   C12       1.0  0.45300  0.22410  0.57940  1.0000 -0.5279983819
C   C13       1.0  0.47660  0.27370  0.51100  1.0000 0.2413890838
C   C14       1.0  0.55660  0.18740  0.46980  1.0000 -0.2057052933
C   C15       1.0  0.58250  0.23530  0.40180  1.0000 -0.3709193513
C   C16       1.0  0.22420  0.47740  0.88649  1.0000 0.5828537076
C   C17       1.0  0.23370  0.50850  0.81518  1.0000 -0.0203147464
C   C18       1.0  0.35260  0.49830  0.78351  1.0000 -0.1121712708
C   C19       1.0  0.36020  0.51800  0.71658  1.0000 -0.1121712708
C   C20       1.0  0.25070  0.54910  0.68119  1.0000 -0.030107329
C   C21       1.0  0.13290  0.56210  0.71298  1.0000 -0.1048700706
C   C22       1.0  0.12450  0.54140  0.77980  1.0000 -0.1121712708
C   C23       1.0  0.26040  0.56740  0.60866  1.0000 0.5867954671
C   C24       1.0  0.77520  0.40580  0.97382  1.0000 0.1022889048
C   C25       1.0  0.65210  0.33490  0.98999  1.0000 0.5828537076
C   C26       1.0  0.78980  0.41400  0.89957  1.0000 -0.4847233713
C   C27       1.0  0.04700  0.77590  0.07940  1.0000 -0.5279983819
C   C28       1.0  0.02340  0.72630  0.01100  1.0000 0.2413890838
C   C29       1.0  0.94340  0.81260  0.96980  1.0000 -0.2057052933
C   C30       1.0  0.91750  0.76470  0.90180  1.0000 -0.3709193513
C   C31       1.0  0.72420  0.02260  0.11351  1.0000 0.5828537076
C   C32       1.0  0.73370  0.99150  0.18482  1.0000 -0.0203147464
C   C33       1.0  0.85260  0.00170  0.21649  1.0000 -0.1121712708
C   C34       1.0  0.86020  0.98200  0.28342  1.0000 -0.1121712708
C   C35       1.0  0.75070  0.95090  0.31881  1.0000 -0.030107329
C   C36       1.0  0.63290  0.93790  0.28702  1.0000 -0.1048700706
C   C37       1.0  0.62450  0.95860  0.22020  1.0000 -0.1121712708
C   C38       1.0  0.76040  0.93260  0.39134  1.0000 0.5867954671
C   C39       1.0  0.27520  0.09420  0.02618  1.0000 0.1022889048
C   C40       1.0  0.15210  0.16510  0.01001  1.0000 0.5828537076
C   C41       1.0  0.28980  0.08600  0.10043  1.0000 -0.4847233713
C   C42       1.0  0.54700  0.72410  0.92060  1.0000 -0.5279983819
C   C43       1.0  0.52340  0.77370  0.98900  1.0000 0.2413890838
C   C44       1.0  0.44340  0.68740  0.03020  1.0000 -0.2057052933
C   C45       1.0  0.41750  0.73530  0.09820  1.0000 -0.3709193513
C   C46       1.0  0.77580  0.97740  0.61351  1.0000 0.5828537076
C   C47       1.0  0.76630  0.00850  0.68482  1.0000 -0.0203147464
C   C48       1.0  0.64740  0.99830  0.71649  1.0000 -0.1121712708
C   C49       1.0  0.63980  0.01800  0.78342  1.0000 -0.1121712708
C   C50       1.0  0.74930  0.04910  0.81881  1.0000 -0.030107329
C   C51       1.0  0.86710  0.06210  0.78702  1.0000 -0.1048700706
C   C52       1.0  0.87550  0.04140  0.72020  1.0000 -0.1121712708
C   C53       1.0  0.73960  0.06740  0.89134  1.0000 0.5867954671
C   C54       1.0  0.22480  0.90580  0.52618  1.0000 0.1022889048
C   C55       1.0  0.34790  0.83490  0.51001  1.0000 0.5828537076
C   C56       1.0  0.21020  0.91400  0.60043  1.0000 -0.4847233713
C   C57       1.0  0.95300  0.27590  0.42060  1.0000 -0.5279983819
C   C58       1.0  0.97660  0.22630  0.48900  1.0000 0.2413890838
C   C59       1.0  0.05660  0.31260  0.53020  1.0000 -0.2057052933
C   C60       1.0  0.08250  0.26470  0.59820  1.0000 -0.3709193513
O   O1        1.0  0.38390  0.50457  0.41337  1.0000 -0.5483460471
O   O2        1.0  0.17720  0.56440  0.41301  1.0000 -0.5249891699
O   O3        1.0  0.34140  0.40190  0.07896  1.0000 -0.5418343962
O   O4        1.0  0.13150  0.45120  0.08347  1.0000 -0.5483460471
O   O5        1.0  0.95228  0.61448  0.47661  1.0000 -0.5118770421
O   O6        1.0  0.83487  0.77096  0.51470  1.0000 -0.5803763688
O   O7        1.0  0.61618  0.65080  0.50371  1.0000 -0.6324506373
O   O8        1.0  0.53900  0.39259  0.51483  1.0000 -0.5118770421
O   O9        1.0  0.11610  0.49543  0.91337  1.0000 -0.5483460471
O   O10       1.0  0.32280  0.43560  0.91301  1.0000 -0.5279983819
O   O11       1.0  0.15860  0.59810  0.57896  1.0000 -0.5418343962
O   O12       1.0  0.36850  0.54880  0.58347  1.0000 -0.5483460471
O   O13       1.0  0.54772  0.38552  0.97661  1.0000 -0.5118770421
O   O14       1.0  0.66513  0.22904  0.01470  1.0000 -0.5803763688
O   O15       1.0  0.88382  0.34920  0.00371  1.0000 -0.6324506373
O   O16       1.0  0.96100  0.60741  0.01483  1.0000 -0.5118770421
O   O17       1.0  0.61610  0.00457  0.08663  1.0000 -0.5483460471
O   O18       1.0  0.82280  0.06440  0.08699  1.0000 -0.5249891699
O   O19       1.0  0.65860  0.90190  0.42104  1.0000 -0.5418343962
O   O20       1.0  0.86850  0.95120  0.41653  1.0000 -0.5483460471
O   O21       1.0  0.04772  0.11448  0.02339  1.0000 -0.5118770421
O   O22       1.0  0.16513  0.27096  0.98530  1.0000 -0.5803763688
O   O23       1.0  0.38382  0.15080  0.99629  1.0000 -0.6324506373
O   O24       1.0  0.46100  0.89259  0.98517  1.0000 -0.5118770421
O   O25       1.0  0.88390  0.99543  0.58663  1.0000 -0.5483460471
O   O26       1.0  0.67720  0.93560  0.58699  1.0000 -0.5249891699
O   O27       1.0  0.84140  0.09810  0.92104  1.0000 -0.5418343962
O   O28       1.0  0.63150  0.04880  0.91653  1.0000 -0.5483460471
O   O29       1.0  0.45228  0.88552  0.52339  1.0000 -0.5118770421
O   O30       1.0  0.33487  0.72904  0.48530  1.0000 -0.5803763688
O   O31       1.0  0.11618  0.84920  0.49629  1.0000 -0.6324506373
O   O32       1.0  0.03900  0.10741  0.48517  1.0000 -0.5118770421
