# DDEC6 charges by PACMAN v1.1 (https://github.com/mtap-research/PACMAN-charge/)
data_2018[Zn][dia]3[FSR]5
_chemical_formula_sum              "Zn8 H184 C256 N40 O32"
_cell_length_a       11.1578
_cell_length_b       21.078
_cell_length_c       27.014
_cell_angle_alpha    90
_cell_angle_beta     90
_cell_angle_gamma    90

_symmetry_space_group_name_H-M    "P 1"
_symmetry_Int_Tables_number       1

loop_
  _symmetry_equiv_pos_as_xyz
  'x, y, z'

loop_
  _atom_site_type_symbol
  _atom_site_label
  _atom_site_symmetry_multiplicity
  _atom_site_fract_x
  _atom_site_fract_y
  _atom_site_fract_z
  _atom_site_occupancy
  _atom_site_charge
Zn  Zn1       1.0  0.08557  0.16361  0.89648  1.0000 0.7736148566
Zn  Zn2       1.0  0.41443  0.66361  0.60352  1.0000 0.7736148566
Zn  Zn3       1.0  0.08557  0.33639  0.10352  1.0000 0.7736148566
Zn  Zn4       1.0  0.41443  0.83639  0.39648  1.0000 0.7736148566
Zn  Zn5       1.0  0.91443  0.83639  0.10352  1.0000 0.7736148566
Zn  Zn6       1.0  0.58557  0.33639  0.39648  1.0000 0.7736148566
Zn  Zn7       1.0  0.91443  0.66361  0.89648  1.0000 0.7736148566
Zn  Zn8       1.0  0.58557  0.16361  0.60352  1.0000 0.7736148566
H   H1        1.0  0.74740  0.89880  0.74600  1.0000 0.121584925
H   H2        1.0  0.72290  0.83180  0.67990  1.0000 0.1108570049
H   H3        1.0  0.44010  0.75340  0.74570  1.0000 0.121584925
H   H4        1.0  0.46460  0.81950  0.81280  1.0000 0.121584925
H   H5        1.0  0.42770  0.00910  0.94710  1.0000 0.1108570049
H   H6        1.0  0.58120  0.94710  0.91680  1.0000 0.121584925
H   H7        1.0  0.42500  0.94580  0.78320  1.0000 0.121584925
H   H8        1.0  0.27520  0.01050  0.81290  1.0000 0.121584925
H   H9        1.0  0.69940  0.02470  0.83800  1.0000 0.121584925
H   H10       1.0  0.89050  0.06100  0.85630  1.0000 0.1108570049
H   H11       1.0  0.04390  0.98980  0.86970  1.0000 0.1108570049
H   H12       1.0  0.00840  0.88340  0.86280  1.0000 0.1108570049
H   H13       1.0  0.81740  0.84570  0.84470  1.0000 0.121584925
H   H14       1.0  0.06180  0.29580  0.95110  1.0000 0.1289920501
H   H15       1.0  0.22520  0.36190  0.98100  1.0000 0.1377741476
H   H16       1.0  0.35930  0.21440  0.90800  1.0000 0.1108570049
H   H17       1.0  0.40690  0.36390  0.02200  1.0000 0.121584925
H   H18       1.0  0.59850  0.39430  0.04530  1.0000 0.1289920501
H   H19       1.0  0.54210  0.27410  0.90340  1.0000 0.1289920501
H   H20       1.0  0.73340  0.30500  0.92680  1.0000 0.1377741476
H   H21       1.0  0.82760  0.30680  0.06260  1.0000 0.121584925
H   H22       1.0  0.86410  0.43760  0.95980  1.0000 0.1377741476
H   H23       1.0  0.04480  0.43560  0.01140  1.0000 0.1289920501
H   H24       1.0  0.75260  0.39880  0.75400  1.0000 0.121584925
H   H25       1.0  0.77710  0.33180  0.82010  1.0000 0.1108570049
H   H26       1.0  0.05990  0.25340  0.75430  1.0000 0.121584925
H   H27       1.0  0.03540  0.31950  0.68720  1.0000 0.121584925
H   H28       1.0  0.07230  0.50910  0.55290  1.0000 0.1108570049
H   H29       1.0  0.91880  0.44710  0.58320  1.0000 0.121584925
H   H30       1.0  0.07500  0.44580  0.71680  1.0000 0.121584925
H   H31       1.0  0.22480  0.51050  0.68710  1.0000 0.121584925
H   H32       1.0  0.80060  0.52470  0.66200  1.0000 0.121584925
H   H33       1.0  0.60950  0.56100  0.64370  1.0000 0.1108570049
H   H34       1.0  0.45610  0.48980  0.63030  1.0000 0.1108570049
H   H35       1.0  0.49160  0.38340  0.63720  1.0000 0.1108570049
H   H36       1.0  0.68260  0.34570  0.65530  1.0000 0.121584925
H   H37       1.0  0.43820  0.79580  0.54890  1.0000 0.1289920501
H   H38       1.0  0.27480  0.86190  0.51900  1.0000 0.1377741476
H   H39       1.0  0.14070  0.71440  0.59200  1.0000 0.1108570049
H   H40       1.0  0.09310  0.86390  0.47800  1.0000 0.121584925
H   H41       1.0  0.90150  0.89430  0.45470  1.0000 0.1289920501
H   H42       1.0  0.95790  0.77410  0.59660  1.0000 0.1289920501
H   H43       1.0  0.76660  0.80500  0.57320  1.0000 0.1377741476
H   H44       1.0  0.67240  0.80680  0.43740  1.0000 0.121584925
H   H45       1.0  0.63590  0.93760  0.54020  1.0000 0.1377741476
H   H46       1.0  0.45520  0.93560  0.48860  1.0000 0.1289920501
H   H47       1.0  0.74740  0.60120  0.25400  1.0000 0.121584925
H   H48       1.0  0.72290  0.66820  0.32010  1.0000 0.1108570049
H   H49       1.0  0.44010  0.74660  0.25430  1.0000 0.121584925
H   H50       1.0  0.46460  0.68050  0.18720  1.0000 0.121584925
H   H51       1.0  0.42770  0.49090  0.05290  1.0000 0.1108570049
H   H52       1.0  0.58120  0.55290  0.08320  1.0000 0.121584925
H   H53       1.0  0.42500  0.55420  0.21680  1.0000 0.121584925
H   H54       1.0  0.27520  0.48950  0.18710  1.0000 0.121584925
H   H55       1.0  0.69940  0.47530  0.16200  1.0000 0.121584925
H   H56       1.0  0.89050  0.43900  0.14370  1.0000 0.1108570049
H   H57       1.0  0.04390  0.51020  0.13030  1.0000 0.1108570049
H   H58       1.0  0.00840  0.61660  0.13720  1.0000 0.1108570049
H   H59       1.0  0.81740  0.65430  0.15530  1.0000 0.121584925
H   H60       1.0  0.06180  0.20420  0.04890  1.0000 0.1289920501
H   H61       1.0  0.22520  0.13810  0.01900  1.0000 0.1377741476
H   H62       1.0  0.35930  0.28560  0.09200  1.0000 0.1108570049
H   H63       1.0  0.40690  0.13610  0.97800  1.0000 0.121584925
H   H64       1.0  0.59850  0.10570  0.95470  1.0000 0.1289920501
H   H65       1.0  0.54210  0.22590  0.09660  1.0000 0.1289920501
H   H66       1.0  0.73340  0.19500  0.07320  1.0000 0.1377741476
H   H67       1.0  0.82760  0.19320  0.93740  1.0000 0.121584925
H   H68       1.0  0.86410  0.06240  0.04020  1.0000 0.1377741476
H   H69       1.0  0.04480  0.06440  0.98860  1.0000 0.1289920501
H   H70       1.0  0.75260  0.10120  0.24600  1.0000 0.121584925
H   H71       1.0  0.77710  0.16820  0.17990  1.0000 0.1108570049
H   H72       1.0  0.05990  0.24660  0.24570  1.0000 0.121584925
H   H73       1.0  0.03540  0.18050  0.31280  1.0000 0.121584925
H   H74       1.0  0.07230  0.99090  0.44710  1.0000 0.1108570049
H   H75       1.0  0.91880  0.05290  0.41680  1.0000 0.121584925
H   H76       1.0  0.07500  0.05420  0.28320  1.0000 0.121584925
H   H77       1.0  0.22480  0.98950  0.31290  1.0000 0.121584925
H   H78       1.0  0.80060  0.97530  0.33800  1.0000 0.121584925
H   H79       1.0  0.60950  0.93900  0.35630  1.0000 0.1108570049
H   H80       1.0  0.45610  0.01020  0.36970  1.0000 0.1108570049
H   H81       1.0  0.49160  0.11660  0.36280  1.0000 0.1108570049
H   H82       1.0  0.68260  0.15430  0.34470  1.0000 0.121584925
H   H83       1.0  0.43820  0.70420  0.45110  1.0000 0.1289920501
H   H84       1.0  0.27480  0.63810  0.48100  1.0000 0.1377741476
H   H85       1.0  0.14070  0.78560  0.40800  1.0000 0.1108570049
H   H86       1.0  0.09310  0.63610  0.52200  1.0000 0.121584925
H   H87       1.0  0.90150  0.60570  0.54530  1.0000 0.1289920501
H   H88       1.0  0.95790  0.72590  0.40340  1.0000 0.1289920501
H   H89       1.0  0.76660  0.69500  0.42680  1.0000 0.1377741476
H   H90       1.0  0.67240  0.69320  0.56260  1.0000 0.121584925
H   H91       1.0  0.63590  0.56240  0.45980  1.0000 0.1377741476
H   H92       1.0  0.45520  0.56440  0.51140  1.0000 0.1289920501
H   H93       1.0  0.25260  0.10120  0.25400  1.0000 0.121584925
H   H94       1.0  0.27710  0.16820  0.32010  1.0000 0.1108570049
H   H95       1.0  0.55990  0.24660  0.25430  1.0000 0.121584925
H   H96       1.0  0.53540  0.18050  0.18720  1.0000 0.121584925
H   H97       1.0  0.57230  0.99090  0.05290  1.0000 0.1108570049
H   H98       1.0  0.41880  0.05290  0.08320  1.0000 0.121584925
H   H99       1.0  0.57500  0.05420  0.21680  1.0000 0.121584925
H   H100      1.0  0.72480  0.98950  0.18710  1.0000 0.121584925
H   H101      1.0  0.30060  0.97530  0.16200  1.0000 0.121584925
H   H102      1.0  0.10950  0.93900  0.14370  1.0000 0.1108570049
H   H103      1.0  0.95610  0.01020  0.13030  1.0000 0.1108570049
H   H104      1.0  0.99160  0.11660  0.13720  1.0000 0.1108570049
H   H105      1.0  0.18260  0.15430  0.15530  1.0000 0.121584925
H   H106      1.0  0.93820  0.70420  0.04890  1.0000 0.1289920501
H   H107      1.0  0.77480  0.63810  0.01900  1.0000 0.1377741476
H   H108      1.0  0.64070  0.78560  0.09200  1.0000 0.1108570049
H   H109      1.0  0.59310  0.63610  0.97800  1.0000 0.121584925
H   H110      1.0  0.40150  0.60570  0.95470  1.0000 0.1289920501
H   H111      1.0  0.45790  0.72590  0.09660  1.0000 0.1289920501
H   H112      1.0  0.26660  0.69500  0.07320  1.0000 0.1377741476
H   H113      1.0  0.17240  0.69320  0.93740  1.0000 0.121584925
H   H114      1.0  0.13590  0.56240  0.04020  1.0000 0.1377741476
H   H115      1.0  0.95520  0.56440  0.98860  1.0000 0.1289920501
H   H116      1.0  0.24740  0.60120  0.24600  1.0000 0.121584925
H   H117      1.0  0.22290  0.66820  0.17990  1.0000 0.1108570049
H   H118      1.0  0.94010  0.74660  0.24570  1.0000 0.121584925
H   H119      1.0  0.96460  0.68050  0.31280  1.0000 0.121584925
H   H120      1.0  0.92770  0.49090  0.44710  1.0000 0.1108570049
H   H121      1.0  0.08120  0.55290  0.41680  1.0000 0.121584925
H   H122      1.0  0.92500  0.55420  0.28320  1.0000 0.121584925
H   H123      1.0  0.77520  0.48950  0.31290  1.0000 0.121584925
H   H124      1.0  0.19940  0.47530  0.33800  1.0000 0.121584925
H   H125      1.0  0.39050  0.43900  0.35630  1.0000 0.1108570049
H   H126      1.0  0.54390  0.51020  0.36970  1.0000 0.1108570049
H   H127      1.0  0.50840  0.61660  0.36280  1.0000 0.1108570049
H   H128      1.0  0.31740  0.65430  0.34470  1.0000 0.121584925
H   H129      1.0  0.56180  0.20420  0.45110  1.0000 0.1289920501
H   H130      1.0  0.72520  0.13810  0.48100  1.0000 0.1377741476
H   H131      1.0  0.85930  0.28560  0.40800  1.0000 0.1108570049
H   H132      1.0  0.90690  0.13610  0.52200  1.0000 0.121584925
H   H133      1.0  0.09850  0.10570  0.54530  1.0000 0.1289920501
H   H134      1.0  0.04210  0.22590  0.40340  1.0000 0.1289920501
H   H135      1.0  0.23340  0.19500  0.42680  1.0000 0.1377741476
H   H136      1.0  0.32760  0.19320  0.56260  1.0000 0.121584925
H   H137      1.0  0.36410  0.06240  0.45980  1.0000 0.1377741476
H   H138      1.0  0.54480  0.06440  0.51140  1.0000 0.1289920501
H   H139      1.0  0.25260  0.39880  0.74600  1.0000 0.121584925
H   H140      1.0  0.27710  0.33180  0.67990  1.0000 0.1108570049
H   H141      1.0  0.55990  0.25340  0.74570  1.0000 0.121584925
H   H142      1.0  0.53540  0.31950  0.81280  1.0000 0.121584925
H   H143      1.0  0.57230  0.50910  0.94710  1.0000 0.1108570049
H   H144      1.0  0.41880  0.44710  0.91680  1.0000 0.121584925
H   H145      1.0  0.57500  0.44580  0.78320  1.0000 0.121584925
H   H146      1.0  0.72480  0.51050  0.81290  1.0000 0.121584925
H   H147      1.0  0.30060  0.52470  0.83800  1.0000 0.121584925
H   H148      1.0  0.10950  0.56100  0.85630  1.0000 0.1108570049
H   H149      1.0  0.95610  0.48980  0.86970  1.0000 0.1108570049
H   H150      1.0  0.99160  0.38340  0.86280  1.0000 0.1108570049
H   H151      1.0  0.18260  0.34570  0.84470  1.0000 0.121584925
H   H152      1.0  0.93820  0.79580  0.95110  1.0000 0.1289920501
H   H153      1.0  0.77480  0.86190  0.98100  1.0000 0.1377741476
H   H154      1.0  0.64070  0.71440  0.90800  1.0000 0.1108570049
H   H155      1.0  0.59310  0.86390  0.02200  1.0000 0.121584925
H   H156      1.0  0.40150  0.89430  0.04530  1.0000 0.1289920501
H   H157      1.0  0.45790  0.77410  0.90340  1.0000 0.1289920501
H   H158      1.0  0.26660  0.80500  0.92680  1.0000 0.1377741476
H   H159      1.0  0.17240  0.80680  0.06260  1.0000 0.121584925
H   H160      1.0  0.13590  0.93760  0.95980  1.0000 0.1377741476
H   H161      1.0  0.95520  0.93560  0.01140  1.0000 0.1289920501
H   H162      1.0  0.24740  0.89880  0.75400  1.0000 0.121584925
H   H163      1.0  0.22290  0.83180  0.82010  1.0000 0.1108570049
H   H164      1.0  0.94010  0.75340  0.75430  1.0000 0.121584925
H   H165      1.0  0.96460  0.81950  0.68720  1.0000 0.121584925
H   H166      1.0  0.92770  0.00910  0.55290  1.0000 0.1108570049
H   H167      1.0  0.08120  0.94710  0.58320  1.0000 0.121584925
H   H168      1.0  0.92500  0.94580  0.71680  1.0000 0.121584925
H   H169      1.0  0.77520  0.01050  0.68710  1.0000 0.121584925
H   H170      1.0  0.19940  0.02470  0.66200  1.0000 0.121584925
H   H171      1.0  0.39050  0.06100  0.64370  1.0000 0.1108570049
H   H172      1.0  0.54390  0.98980  0.63030  1.0000 0.1108570049
H   H173      1.0  0.50840  0.88340  0.63720  1.0000 0.1108570049
H   H174      1.0  0.31740  0.84570  0.65530  1.0000 0.121584925
H   H175      1.0  0.56180  0.29580  0.54890  1.0000 0.1289920501
H   H176      1.0  0.72520  0.36190  0.51900  1.0000 0.1377741476
H   H177      1.0  0.85930  0.21440  0.59200  1.0000 0.1108570049
H   H178      1.0  0.90690  0.36390  0.47800  1.0000 0.121584925
H   H179      1.0  0.09850  0.39430  0.45470  1.0000 0.1289920501
H   H180      1.0  0.04210  0.27410  0.59660  1.0000 0.1289920501
H   H181      1.0  0.23340  0.30500  0.57320  1.0000 0.1377741476
H   H182      1.0  0.32760  0.30680  0.43740  1.0000 0.121584925
H   H183      1.0  0.36410  0.43760  0.54020  1.0000 0.1377741476
H   H184      1.0  0.54480  0.43560  0.48860  1.0000 0.1289920501
C   C1        1.0  0.60920  0.86640  0.78677  1.0000 0.18679789
C   C2        1.0  0.68520  0.86940  0.74622  1.0000 -0.1909276646
C   C3        1.0  0.66980  0.82960  0.70644  1.0000 -0.0918003734
C   C4        1.0  0.57570  0.78600  0.70520  1.0000 -0.0317055001
C   C5        1.0  0.50200  0.78290  0.74548  1.0000 -0.0918003734
C   C6        1.0  0.51670  0.82250  0.78607  1.0000 -0.1909276646
C   C7        1.0  0.55510  0.74570  0.65947  1.0000 0.5470517009
C   C8        1.0  0.24520  0.06570  0.90119  1.0000 0.5376966923
C   C9        1.0  0.33570  0.01822  0.88306  1.0000 -0.0405621284
C   C10       1.0  0.42810  0.99760  0.91384  1.0000 -0.0955528532
C   C11       1.0  0.52030  0.96040  0.89570  1.0000 -0.196245917
C   C12       1.0  0.52240  0.94272  0.84598  1.0000 0.1823959045
C   C13       1.0  0.42770  0.95990  0.81576  1.0000 -0.1909276646
C   C14       1.0  0.33690  0.99810  0.83393  1.0000 -0.0918003734
C   C15       1.0  0.73970  0.93160  0.83926  1.0000 0.1727212995
C   C16       1.0  0.76140  0.99590  0.84300  1.0000 -0.1909276646
C   C17       1.0  0.87590  0.01770  0.85410  1.0000 -0.0724156339
C   C18       1.0  0.96760  0.97520  0.86190  1.0000 -0.1175211508
C   C19       1.0  0.94590  0.91190  0.85800  1.0000 -0.0811483272
C   C20       1.0  0.83140  0.88910  0.84689  1.0000 -0.1792249957
C   C21       1.0  0.14290  0.28780  0.94621  1.0000 -0.0317055001
C   C22       1.0  0.23230  0.32470  0.96281  1.0000 -0.0918003734
C   C23       1.0  0.30540  0.24268  0.92227  1.0000 0.0924561557
C   C24       1.0  0.45660  0.31633  0.96046  1.0000 0.1564200625
C   C25       1.0  0.47260  0.35200  0.00302  1.0000 -0.1747367502
C   C26       1.0  0.58680  0.36970  0.01712  1.0000 -0.1600005541
C   C27       1.0  0.55350  0.29820  0.93190  1.0000 -0.1792249957
C   C28       1.0  0.66750  0.31620  0.94608  1.0000 -0.1600005541
C   C29       1.0  0.68310  0.35071  0.98894  1.0000 0.1455165159
C   C30       1.0  0.85970  0.33940  0.04360  1.0000 0.099764663
C   C31       1.0  0.87810  0.41130  0.98680  1.0000 -0.0811483272
C   C32       1.0  0.97830  0.40950  0.01546  1.0000 -0.0317055001
C   C33       1.0  0.89080  0.36640  0.71323  1.0000 0.18679789
C   C34       1.0  0.81480  0.36940  0.75378  1.0000 -0.1909276646
C   C35       1.0  0.83020  0.32960  0.79356  1.0000 -0.0918003734
C   C36       1.0  0.92430  0.28600  0.79480  1.0000 -0.0317055001
C   C37       1.0  0.99800  0.28290  0.75452  1.0000 -0.0918003734
C   C38       1.0  0.98330  0.32250  0.71393  1.0000 -0.1909276646
C   C39       1.0  0.94490  0.24570  0.84053  1.0000 0.5470517009
C   C40       1.0  0.25480  0.56570  0.59881  1.0000 0.5376966923
C   C41       1.0  0.16430  0.51822  0.61694  1.0000 -0.0405621284
C   C42       1.0  0.07190  0.49760  0.58616  1.0000 -0.0955528532
C   C43       1.0  0.97970  0.46040  0.60430  1.0000 -0.196245917
C   C44       1.0  0.97760  0.44272  0.65402  1.0000 0.1823959045
C   C45       1.0  0.07230  0.45990  0.68424  1.0000 -0.1909276646
C   C46       1.0  0.16310  0.49810  0.66607  1.0000 -0.0918003734
C   C47       1.0  0.76030  0.43160  0.66074  1.0000 0.1727212995
C   C48       1.0  0.73860  0.49590  0.65700  1.0000 -0.1909276646
C   C49       1.0  0.62410  0.51770  0.64590  1.0000 -0.0724156339
C   C50       1.0  0.53240  0.47520  0.63810  1.0000 -0.1175211508
C   C51       1.0  0.55410  0.41190  0.64200  1.0000 -0.0811483272
C   C52       1.0  0.66860  0.38910  0.65311  1.0000 -0.1792249957
C   C53       1.0  0.35710  0.78780  0.55379  1.0000 -0.0317055001
C   C54       1.0  0.26770  0.82470  0.53719  1.0000 -0.0918003734
C   C55       1.0  0.19460  0.74268  0.57773  1.0000 0.0924561557
C   C56       1.0  0.04340  0.81633  0.53954  1.0000 0.1564200625
C   C57       1.0  0.02740  0.85200  0.49698  1.0000 -0.1747367502
C   C58       1.0  0.91320  0.86970  0.48288  1.0000 -0.1600005541
C   C59       1.0  0.94650  0.79820  0.56810  1.0000 -0.1792249957
C   C60       1.0  0.83250  0.81620  0.55392  1.0000 -0.1600005541
C   C61       1.0  0.81690  0.85071  0.51106  1.0000 0.1455165159
C   C62       1.0  0.64030  0.83940  0.45640  1.0000 0.099764663
C   C63       1.0  0.62190  0.91130  0.51320  1.0000 -0.0811483272
C   C64       1.0  0.52170  0.90950  0.48454  1.0000 -0.0317055001
C   C65       1.0  0.60920  0.63360  0.21323  1.0000 0.18679789
C   C66       1.0  0.68520  0.63060  0.25378  1.0000 -0.1909276646
C   C67       1.0  0.66980  0.67040  0.29356  1.0000 -0.0918003734
C   C68       1.0  0.57570  0.71400  0.29480  1.0000 -0.0317055001
C   C69       1.0  0.50200  0.71710  0.25452  1.0000 -0.0918003734
C   C70       1.0  0.51670  0.67750  0.21393  1.0000 -0.1909276646
C   C71       1.0  0.55510  0.75430  0.34053  1.0000 0.5470517009
C   C72       1.0  0.24520  0.43430  0.09881  1.0000 0.5376966923
C   C73       1.0  0.33570  0.48178  0.11694  1.0000 -0.0405621284
C   C74       1.0  0.42810  0.50240  0.08616  1.0000 -0.0955528532
C   C75       1.0  0.52030  0.53960  0.10430  1.0000 -0.196245917
C   C76       1.0  0.52240  0.55728  0.15402  1.0000 0.1823959045
C   C77       1.0  0.42770  0.54010  0.18424  1.0000 -0.1909276646
C   C78       1.0  0.33690  0.50190  0.16607  1.0000 -0.0918003734
C   C79       1.0  0.73970  0.56840  0.16074  1.0000 0.1727212995
C   C80       1.0  0.76140  0.50410  0.15700  1.0000 -0.1909276646
C   C81       1.0  0.87590  0.48230  0.14590  1.0000 -0.0724156339
C   C82       1.0  0.96760  0.52480  0.13810  1.0000 -0.1175211508
C   C83       1.0  0.94590  0.58810  0.14200  1.0000 -0.0811483272
C   C84       1.0  0.83140  0.61090  0.15311  1.0000 -0.1792249957
C   C85       1.0  0.14290  0.21220  0.05379  1.0000 -0.0317055001
C   C86       1.0  0.23230  0.17530  0.03719  1.0000 -0.0918003734
C   C87       1.0  0.30540  0.25732  0.07773  1.0000 0.0924561557
C   C88       1.0  0.45660  0.18367  0.03954  1.0000 0.1564200625
C   C89       1.0  0.47260  0.14800  0.99698  1.0000 -0.1747367502
C   C90       1.0  0.58680  0.13030  0.98288  1.0000 -0.1600005541
C   C91       1.0  0.55350  0.20180  0.06810  1.0000 -0.1792249957
C   C92       1.0  0.66750  0.18380  0.05392  1.0000 -0.1600005541
C   C93       1.0  0.68310  0.14929  0.01106  1.0000 0.1455165159
C   C94       1.0  0.85970  0.16060  0.95640  1.0000 0.099764663
C   C95       1.0  0.87810  0.08870  0.01320  1.0000 -0.0811483272
C   C96       1.0  0.97830  0.09050  0.98454  1.0000 -0.0317055001
C   C97       1.0  0.89080  0.13360  0.28677  1.0000 0.18679789
C   C98       1.0  0.81480  0.13060  0.24622  1.0000 -0.1909276646
C   C99       1.0  0.83020  0.17040  0.20644  1.0000 -0.0918003734
C   C100      1.0  0.92430  0.21400  0.20520  1.0000 -0.0317055001
C   C101      1.0  0.99800  0.21710  0.24548  1.0000 -0.0918003734
C   C102      1.0  0.98330  0.17750  0.28607  1.0000 -0.1909276646
C   C103      1.0  0.94490  0.25430  0.15947  1.0000 0.5470517009
C   C104      1.0  0.25480  0.93430  0.40119  1.0000 0.5376966923
C   C105      1.0  0.16430  0.98178  0.38306  1.0000 -0.0405621284
C   C106      1.0  0.07190  0.00240  0.41384  1.0000 -0.0955528532
C   C107      1.0  0.97970  0.03960  0.39570  1.0000 -0.196245917
C   C108      1.0  0.97760  0.05728  0.34598  1.0000 0.1823959045
C   C109      1.0  0.07230  0.04010  0.31576  1.0000 -0.1909276646
C   C110      1.0  0.16310  0.00190  0.33393  1.0000 -0.0918003734
C   C111      1.0  0.76030  0.06840  0.33926  1.0000 0.1727212995
C   C112      1.0  0.73860  0.00410  0.34300  1.0000 -0.1909276646
C   C113      1.0  0.62410  0.98230  0.35410  1.0000 -0.0724156339
C   C114      1.0  0.53240  0.02480  0.36190  1.0000 -0.1175211508
C   C115      1.0  0.55410  0.08810  0.35800  1.0000 -0.0811483272
C   C116      1.0  0.66860  0.11090  0.34689  1.0000 -0.1792249957
C   C117      1.0  0.35710  0.71220  0.44621  1.0000 -0.0317055001
C   C118      1.0  0.26770  0.67530  0.46281  1.0000 -0.0918003734
C   C119      1.0  0.19460  0.75732  0.42227  1.0000 0.0924561557
C   C120      1.0  0.04340  0.68367  0.46046  1.0000 0.1564200625
C   C121      1.0  0.02740  0.64800  0.50302  1.0000 -0.1747367502
C   C122      1.0  0.91320  0.63030  0.51712  1.0000 -0.1600005541
C   C123      1.0  0.94650  0.70180  0.43190  1.0000 -0.1792249957
C   C124      1.0  0.83250  0.68380  0.44608  1.0000 -0.1600005541
C   C125      1.0  0.81690  0.64929  0.48894  1.0000 0.1455165159
C   C126      1.0  0.64030  0.66060  0.54360  1.0000 0.099764663
C   C127      1.0  0.62190  0.58870  0.48680  1.0000 -0.0811483272
C   C128      1.0  0.52170  0.59050  0.51546  1.0000 -0.0317055001
C   C129      1.0  0.39080  0.13360  0.21323  1.0000 0.18679789
C   C130      1.0  0.31480  0.13060  0.25378  1.0000 -0.1909276646
C   C131      1.0  0.33020  0.17040  0.29356  1.0000 -0.0918003734
C   C132      1.0  0.42430  0.21400  0.29480  1.0000 -0.0317055001
C   C133      1.0  0.49800  0.21710  0.25452  1.0000 -0.0918003734
C   C134      1.0  0.48330  0.17750  0.21393  1.0000 -0.1909276646
C   C135      1.0  0.44490  0.25430  0.34053  1.0000 0.5470517009
C   C136      1.0  0.75480  0.93430  0.09881  1.0000 0.5376966923
C   C137      1.0  0.66430  0.98178  0.11694  1.0000 -0.0405621284
C   C138      1.0  0.57190  0.00240  0.08616  1.0000 -0.0955528532
C   C139      1.0  0.47970  0.03960  0.10430  1.0000 -0.196245917
C   C140      1.0  0.47760  0.05728  0.15402  1.0000 0.1823959045
C   C141      1.0  0.57230  0.04010  0.18424  1.0000 -0.1909276646
C   C142      1.0  0.66310  0.00190  0.16607  1.0000 -0.0918003734
C   C143      1.0  0.26030  0.06840  0.16074  1.0000 0.1727212995
C   C144      1.0  0.23860  0.00410  0.15700  1.0000 -0.1909276646
C   C145      1.0  0.12410  0.98230  0.14590  1.0000 -0.0724156339
C   C146      1.0  0.03240  0.02480  0.13810  1.0000 -0.1175211508
C   C147      1.0  0.05410  0.08810  0.14200  1.0000 -0.0811483272
C   C148      1.0  0.16860  0.11090  0.15311  1.0000 -0.1792249957
C   C149      1.0  0.85710  0.71220  0.05379  1.0000 -0.0317055001
C   C150      1.0  0.76770  0.67530  0.03719  1.0000 -0.0918003734
C   C151      1.0  0.69460  0.75732  0.07773  1.0000 0.0924561557
C   C152      1.0  0.54340  0.68367  0.03954  1.0000 0.1564200625
C   C153      1.0  0.52740  0.64800  0.99698  1.0000 -0.1747367502
C   C154      1.0  0.41320  0.63030  0.98288  1.0000 -0.1600005541
C   C155      1.0  0.44650  0.70180  0.06810  1.0000 -0.1792249957
C   C156      1.0  0.33250  0.68380  0.05392  1.0000 -0.1600005541
C   C157      1.0  0.31690  0.64929  0.01106  1.0000 0.1455165159
C   C158      1.0  0.14030  0.66060  0.95640  1.0000 0.099764663
C   C159      1.0  0.12190  0.58870  0.01320  1.0000 -0.0811483272
C   C160      1.0  0.02170  0.59050  0.98454  1.0000 -0.0317055001
C   C161      1.0  0.10920  0.63360  0.28677  1.0000 0.18679789
C   C162      1.0  0.18520  0.63060  0.24622  1.0000 -0.1909276646
C   C163      1.0  0.16980  0.67040  0.20644  1.0000 -0.0918003734
C   C164      1.0  0.07570  0.71400  0.20520  1.0000 -0.0317055001
C   C165      1.0  0.00200  0.71710  0.24548  1.0000 -0.0918003734
C   C166      1.0  0.01670  0.67750  0.28607  1.0000 -0.1909276646
C   C167      1.0  0.05510  0.75430  0.15947  1.0000 0.5470517009
C   C168      1.0  0.74520  0.43430  0.40119  1.0000 0.5376966923
C   C169      1.0  0.83570  0.48178  0.38306  1.0000 -0.0405621284
C   C170      1.0  0.92810  0.50240  0.41384  1.0000 -0.0955528532
C   C171      1.0  0.02030  0.53960  0.39570  1.0000 -0.196245917
C   C172      1.0  0.02240  0.55728  0.34598  1.0000 0.1823959045
C   C173      1.0  0.92770  0.54010  0.31576  1.0000 -0.1909276646
C   C174      1.0  0.83690  0.50190  0.33393  1.0000 -0.0918003734
C   C175      1.0  0.23970  0.56840  0.33926  1.0000 0.1727212995
C   C176      1.0  0.26140  0.50410  0.34300  1.0000 -0.1909276646
C   C177      1.0  0.37590  0.48230  0.35410  1.0000 -0.0724156339
C   C178      1.0  0.46760  0.52480  0.36190  1.0000 -0.1175211508
C   C179      1.0  0.44590  0.58810  0.35800  1.0000 -0.0811483272
C   C180      1.0  0.33140  0.61090  0.34689  1.0000 -0.1792249957
C   C181      1.0  0.64290  0.21220  0.44621  1.0000 -0.0317055001
C   C182      1.0  0.73230  0.17530  0.46281  1.0000 -0.0918003734
C   C183      1.0  0.80540  0.25732  0.42227  1.0000 0.0924561557
C   C184      1.0  0.95660  0.18367  0.46046  1.0000 0.1564200625
C   C185      1.0  0.97260  0.14800  0.50302  1.0000 -0.1747367502
C   C186      1.0  0.08680  0.13030  0.51712  1.0000 -0.1600005541
C   C187      1.0  0.05350  0.20180  0.43190  1.0000 -0.1792249957
C   C188      1.0  0.16750  0.18380  0.44608  1.0000 -0.1600005541
C   C189      1.0  0.18310  0.14929  0.48894  1.0000 0.1455165159
C   C190      1.0  0.35970  0.16060  0.54360  1.0000 0.099764663
C   C191      1.0  0.37810  0.08870  0.48680  1.0000 -0.0811483272
C   C192      1.0  0.47830  0.09050  0.51546  1.0000 -0.0317055001
C   C193      1.0  0.39080  0.36640  0.78677  1.0000 0.18679789
C   C194      1.0  0.31480  0.36940  0.74622  1.0000 -0.1909276646
C   C195      1.0  0.33020  0.32960  0.70644  1.0000 -0.0918003734
C   C196      1.0  0.42430  0.28600  0.70520  1.0000 -0.0317055001
C   C197      1.0  0.49800  0.28290  0.74548  1.0000 -0.0918003734
C   C198      1.0  0.48330  0.32250  0.78607  1.0000 -0.1909276646
C   C199      1.0  0.44490  0.24570  0.65947  1.0000 0.5470517009
C   C200      1.0  0.75480  0.56570  0.90119  1.0000 0.5376966923
C   C201      1.0  0.66430  0.51822  0.88306  1.0000 -0.0405621284
C   C202      1.0  0.57190  0.49760  0.91384  1.0000 -0.0955528532
C   C203      1.0  0.47970  0.46040  0.89570  1.0000 -0.196245917
C   C204      1.0  0.47760  0.44272  0.84598  1.0000 0.1823959045
C   C205      1.0  0.57230  0.45990  0.81576  1.0000 -0.1909276646
C   C206      1.0  0.66310  0.49810  0.83393  1.0000 -0.0918003734
C   C207      1.0  0.26030  0.43160  0.83926  1.0000 0.1727212995
C   C208      1.0  0.23860  0.49590  0.84300  1.0000 -0.1909276646
C   C209      1.0  0.12410  0.51770  0.85410  1.0000 -0.0724156339
C   C210      1.0  0.03240  0.47520  0.86190  1.0000 -0.1175211508
C   C211      1.0  0.05410  0.41190  0.85800  1.0000 -0.0811483272
C   C212      1.0  0.16860  0.38910  0.84689  1.0000 -0.1792249957
C   C213      1.0  0.85710  0.78780  0.94621  1.0000 -0.0317055001
C   C214      1.0  0.76770  0.82470  0.96281  1.0000 -0.0918003734
C   C215      1.0  0.69460  0.74268  0.92227  1.0000 0.0924561557
C   C216      1.0  0.54340  0.81633  0.96046  1.0000 0.1564200625
C   C217      1.0  0.52740  0.85200  0.00302  1.0000 -0.1747367502
C   C218      1.0  0.41320  0.86970  0.01712  1.0000 -0.1600005541
C   C219      1.0  0.44650  0.79820  0.93190  1.0000 -0.1792249957
C   C220      1.0  0.33250  0.81620  0.94608  1.0000 -0.1600005541
C   C221      1.0  0.31690  0.85071  0.98894  1.0000 0.1455165159
C   C222      1.0  0.14030  0.83940  0.04360  1.0000 0.099764663
C   C223      1.0  0.12190  0.91130  0.98680  1.0000 -0.0811483272
C   C224      1.0  0.02170  0.90950  0.01546  1.0000 -0.0317055001
C   C225      1.0  0.10920  0.86640  0.71323  1.0000 0.18679789
C   C226      1.0  0.18520  0.86940  0.75378  1.0000 -0.1909276646
C   C227      1.0  0.16980  0.82960  0.79356  1.0000 -0.0918003734
C   C228      1.0  0.07570  0.78600  0.79480  1.0000 -0.0317055001
C   C229      1.0  0.00200  0.78290  0.75452  1.0000 -0.0918003734
C   C230      1.0  0.01670  0.82250  0.71393  1.0000 -0.1909276646
C   C231      1.0  0.05510  0.74570  0.84053  1.0000 0.5470517009
C   C232      1.0  0.74520  0.06570  0.59881  1.0000 0.5376966923
C   C233      1.0  0.83570  0.01822  0.61694  1.0000 -0.0405621284
C   C234      1.0  0.92810  0.99760  0.58616  1.0000 -0.0955528532
C   C235      1.0  0.02030  0.96040  0.60430  1.0000 -0.196245917
C   C236      1.0  0.02240  0.94272  0.65402  1.0000 0.1823959045
C   C237      1.0  0.92770  0.95990  0.68424  1.0000 -0.1909276646
C   C238      1.0  0.83690  0.99810  0.66607  1.0000 -0.0918003734
C   C239      1.0  0.23970  0.93160  0.66074  1.0000 0.1727212995
C   C240      1.0  0.26140  0.99590  0.65700  1.0000 -0.1909276646
C   C241      1.0  0.37590  0.01770  0.64590  1.0000 -0.0724156339
C   C242      1.0  0.46760  0.97520  0.63810  1.0000 -0.1175211508
C   C243      1.0  0.44590  0.91190  0.64200  1.0000 -0.0811483272
C   C244      1.0  0.33140  0.88910  0.65311  1.0000 -0.1792249957
C   C245      1.0  0.64290  0.28780  0.55379  1.0000 -0.0317055001
C   C246      1.0  0.73230  0.32470  0.53719  1.0000 -0.0918003734
C   C247      1.0  0.80540  0.24268  0.57773  1.0000 0.0924561557
C   C248      1.0  0.95660  0.31633  0.53954  1.0000 0.1564200625
C   C249      1.0  0.97260  0.35200  0.49698  1.0000 -0.1747367502
C   C250      1.0  0.08680  0.36970  0.48288  1.0000 -0.1600005541
C   C251      1.0  0.05350  0.29820  0.56810  1.0000 -0.1792249957
C   C252      1.0  0.16750  0.31620  0.55392  1.0000 -0.1600005541
C   C253      1.0  0.18310  0.35071  0.51106  1.0000 0.1455165159
C   C254      1.0  0.35970  0.33940  0.45640  1.0000 0.099764663
C   C255      1.0  0.37810  0.41130  0.51320  1.0000 -0.0811483272
C   C256      1.0  0.47830  0.40950  0.48454  1.0000 -0.0317055001
N   N1        1.0  0.96690  0.36400  0.05085  1.0000 -0.2864916891
N   N2        1.0  0.80260  0.36684  0.00565  1.0000 0.0099740691
N   N3        1.0  0.33680  0.29597  0.94736  1.0000 -0.0030009939
N   N4        1.0  0.18840  0.23657  0.92100  1.0000 -0.282476493
N   N5        1.0  0.62310  0.90853  0.82765  1.0000 -0.1909276646
N   N6        1.0  0.53310  0.86400  0.44915  1.0000 -0.2864916891
N   N7        1.0  0.69740  0.86684  0.49435  1.0000 0.0099740691
N   N8        1.0  0.16320  0.79597  0.55264  1.0000 -0.0030009939
N   N9        1.0  0.31160  0.73657  0.57900  1.0000 -0.282476493
N   N10       1.0  0.87690  0.40853  0.67235  1.0000 -0.1909276646
N   N11       1.0  0.96690  0.13600  0.94915  1.0000 -0.2864916891
N   N12       1.0  0.80260  0.13316  0.99435  1.0000 0.0099740691
N   N13       1.0  0.33680  0.20403  0.05264  1.0000 -0.0030009939
N   N14       1.0  0.18840  0.26343  0.07900  1.0000 -0.282476493
N   N15       1.0  0.62310  0.59147  0.17235  1.0000 -0.1909276646
N   N16       1.0  0.53310  0.63600  0.55085  1.0000 -0.2864916891
N   N17       1.0  0.69740  0.63316  0.50565  1.0000 0.0099740691
N   N18       1.0  0.16320  0.70403  0.44736  1.0000 -0.0030009939
N   N19       1.0  0.31160  0.76343  0.42100  1.0000 -0.282476493
N   N20       1.0  0.87690  0.09147  0.32765  1.0000 -0.1909276646
N   N21       1.0  0.03310  0.63600  0.94915  1.0000 -0.2864916891
N   N22       1.0  0.19740  0.63316  0.99435  1.0000 0.0099740691
N   N23       1.0  0.66320  0.70403  0.05264  1.0000 -0.0030009939
N   N24       1.0  0.81160  0.76343  0.07900  1.0000 -0.282476493
N   N25       1.0  0.37690  0.09147  0.17235  1.0000 -0.1909276646
N   N26       1.0  0.46690  0.13600  0.55085  1.0000 -0.2864916891
N   N27       1.0  0.30260  0.13316  0.50565  1.0000 0.0099740691
N   N28       1.0  0.83680  0.20403  0.44736  1.0000 -0.0030009939
N   N29       1.0  0.68840  0.26343  0.42100  1.0000 -0.282476493
N   N30       1.0  0.12310  0.59147  0.32765  1.0000 -0.1909276646
N   N31       1.0  0.03310  0.86400  0.05085  1.0000 -0.2864916891
N   N32       1.0  0.19740  0.86684  0.00565  1.0000 0.0099740691
N   N33       1.0  0.66320  0.79597  0.94736  1.0000 -0.0030009939
N   N34       1.0  0.81160  0.73657  0.92100  1.0000 -0.282476493
N   N35       1.0  0.37690  0.40853  0.82765  1.0000 -0.1909276646
N   N36       1.0  0.46690  0.36400  0.44915  1.0000 -0.2864916891
N   N37       1.0  0.30260  0.36684  0.49435  1.0000 0.0099740691
N   N38       1.0  0.83680  0.29597  0.55264  1.0000 -0.0030009939
N   N39       1.0  0.68840  0.23657  0.57900  1.0000 -0.282476493
N   N40       1.0  0.12310  0.90853  0.67235  1.0000 -0.1909276646
O   O1        1.0  0.23820  0.07516  0.94656  1.0000 -0.5766444772
O   O2        1.0  0.18340  0.09418  0.86963  1.0000 -0.5138487191
O   O3        1.0  0.60180  0.76269  0.62023  1.0000 -0.5766444772
O   O4        1.0  0.48650  0.69896  0.66412  1.0000 -0.5208463788
O   O5        1.0  0.26180  0.57516  0.55344  1.0000 -0.5766444772
O   O6        1.0  0.31660  0.59418  0.63037  1.0000 -0.5138487191
O   O7        1.0  0.89820  0.26269  0.87977  1.0000 -0.5766444772
O   O8        1.0  0.01350  0.19896  0.83588  1.0000 -0.5208463788
O   O9        1.0  0.23820  0.42484  0.05344  1.0000 -0.5766444772
O   O10       1.0  0.18340  0.40582  0.13037  1.0000 -0.5138487191
O   O11       1.0  0.60180  0.73731  0.37977  1.0000 -0.5766444772
O   O12       1.0  0.48650  0.80104  0.33588  1.0000 -0.5208463788
O   O13       1.0  0.26180  0.92484  0.44656  1.0000 -0.5766444772
O   O14       1.0  0.31660  0.90582  0.36963  1.0000 -0.5138487191
O   O15       1.0  0.89820  0.23731  0.12023  1.0000 -0.5766444772
O   O16       1.0  0.01350  0.30104  0.16412  1.0000 -0.5208463788
O   O17       1.0  0.76180  0.92484  0.05344  1.0000 -0.5766444772
O   O18       1.0  0.81660  0.90582  0.13037  1.0000 -0.5138487191
O   O19       1.0  0.39820  0.23731  0.37977  1.0000 -0.5766444772
O   O20       1.0  0.51350  0.30104  0.33588  1.0000 -0.5208463788
O   O21       1.0  0.73820  0.42484  0.44656  1.0000 -0.5766444772
O   O22       1.0  0.68340  0.40582  0.36963  1.0000 -0.5138487191
O   O23       1.0  0.10180  0.73731  0.12023  1.0000 -0.5766444772
O   O24       1.0  0.98650  0.80104  0.16412  1.0000 -0.5208463788
O   O25       1.0  0.76180  0.57516  0.94656  1.0000 -0.5766444772
O   O26       1.0  0.81660  0.59418  0.86963  1.0000 -0.5138487191
O   O27       1.0  0.39820  0.26269  0.62023  1.0000 -0.5766444772
O   O28       1.0  0.51350  0.19896  0.66412  1.0000 -0.5208463788
O   O29       1.0  0.73820  0.07516  0.55344  1.0000 -0.5766444772
O   O30       1.0  0.68340  0.09418  0.63037  1.0000 -0.5138487191
O   O31       1.0  0.10180  0.76269  0.87977  1.0000 -0.5766444772
O   O32       1.0  0.98650  0.69896  0.83588  1.0000 -0.5208463788
