# DDEC6 charges by PACMAN v1.1 (https://github.com/mtap-research/PACMAN-charge/)
data_2018[NiCo][scu]3[FSR]3
_chemical_formula_sum              "Co4 Ni2 P8 H48 C88 N8 O24"
_cell_length_a       21.98
_cell_length_b       21.98
_cell_length_c       8.96
_cell_angle_alpha    90
_cell_angle_beta     90
_cell_angle_gamma    90

_symmetry_space_group_name_H-M    "P 1"
_symmetry_Int_Tables_number       1

loop_
  _symmetry_equiv_pos_as_xyz
  'x, y, z'

loop_
  _atom_site_type_symbol
  _atom_site_label
  _atom_site_symmetry_multiplicity
  _atom_site_fract_x
  _atom_site_fract_y
  _atom_site_fract_z
  _atom_site_occupancy
  _atom_site_charge
Co  Co1       1.0  0.00000  0.50000  0.92670  1.0000 1.2888334705
Co  Co2       1.0  0.50000  0.00000  0.07330  1.0000 1.2888334705
Co  Co3       1.0  0.00000  0.50000  0.42670  1.0000 1.2888334705
Co  Co4       1.0  0.50000  0.00000  0.57330  1.0000 1.2888334705
Ni  Ni1       1.0  0.50000  0.50000  0.00000  1.0000 0.3705738498
Ni  Ni2       1.0  0.50000  0.50000  0.50000  1.0000 0.3705738498
P   P1        1.0  0.92320  0.58030  0.18120  1.0000 1.3144974126
P   P2        1.0  0.07680  0.41970  0.18120  1.0000 1.3158606602
P   P3        1.0  0.41970  0.92320  0.81880  1.0000 1.3144974126
P   P4        1.0  0.58030  0.07680  0.81880  1.0000 1.3158606602
P   P5        1.0  0.92320  0.41970  0.68120  1.0000 1.3144974126
P   P6        1.0  0.07680  0.58030  0.68120  1.0000 1.3158606602
P   P7        1.0  0.41970  0.07680  0.31880  1.0000 1.3158606602
P   P8        1.0  0.58030  0.92320  0.31880  1.0000 1.3144974126
H   H1        1.0  0.57250  0.71230  0.87720  1.0000 0.1394146285
H   H2        1.0  0.66980  0.65600  0.94040  1.0000 0.1394146285
H   H3        1.0  0.75300  0.49570  0.89960  1.0000 0.1213849275
H   H4        1.0  0.85480  0.51090  0.96340  1.0000 0.1558695598
H   H5        1.0  0.80890  0.63030  0.28260  1.0000 0.1324859871
H   H6        1.0  0.70480  0.61210  0.23430  1.0000 0.1213849275
H   H7        1.0  0.42750  0.28770  0.87720  1.0000 0.1394146285
H   H8        1.0  0.33020  0.34400  0.94040  1.0000 0.1394146285
H   H9        1.0  0.24700  0.50430  0.89960  1.0000 0.1213849275
H   H10       1.0  0.14520  0.48910  0.96340  1.0000 0.1558695598
H   H11       1.0  0.19110  0.36970  0.28260  1.0000 0.1324859871
H   H12       1.0  0.29520  0.38790  0.23430  1.0000 0.1213849275
H   H13       1.0  0.28770  0.57250  0.12280  1.0000 0.1394146285
H   H14       1.0  0.34400  0.66980  0.05960  1.0000 0.1394146285
H   H15       1.0  0.50430  0.75300  0.10040  1.0000 0.1213849275
H   H16       1.0  0.48910  0.85480  0.03660  1.0000 0.1558695598
H   H17       1.0  0.36970  0.80890  0.71740  1.0000 0.1324859871
H   H18       1.0  0.38790  0.70480  0.76570  1.0000 0.1213849275
H   H19       1.0  0.71230  0.42750  0.12280  1.0000 0.1394146285
H   H20       1.0  0.65600  0.33020  0.05960  1.0000 0.1394146285
H   H21       1.0  0.49570  0.24700  0.10040  1.0000 0.1213849275
H   H22       1.0  0.51090  0.14520  0.03660  1.0000 0.1558695598
H   H23       1.0  0.63030  0.19110  0.71740  1.0000 0.1324859871
H   H24       1.0  0.61210  0.29520  0.76570  1.0000 0.1213849275
H   H25       1.0  0.57250  0.28770  0.37720  1.0000 0.1394146285
H   H26       1.0  0.66980  0.34400  0.44040  1.0000 0.1394146285
H   H27       1.0  0.75300  0.50430  0.39960  1.0000 0.1213849275
H   H28       1.0  0.85480  0.48910  0.46340  1.0000 0.1558695598
H   H29       1.0  0.80890  0.36970  0.78260  1.0000 0.1324859871
H   H30       1.0  0.70480  0.38790  0.73430  1.0000 0.1213849275
H   H31       1.0  0.42750  0.71230  0.37720  1.0000 0.1394146285
H   H32       1.0  0.33020  0.65600  0.44040  1.0000 0.1394146285
H   H33       1.0  0.24700  0.49570  0.39960  1.0000 0.1213849275
H   H34       1.0  0.14520  0.51090  0.46340  1.0000 0.1558695598
H   H35       1.0  0.19110  0.63030  0.78260  1.0000 0.1324859871
H   H36       1.0  0.29520  0.61210  0.73430  1.0000 0.1213849275
H   H37       1.0  0.28770  0.42750  0.62280  1.0000 0.1394146285
H   H38       1.0  0.34400  0.33020  0.55960  1.0000 0.1394146285
H   H39       1.0  0.50430  0.24700  0.60040  1.0000 0.1213849275
H   H40       1.0  0.48910  0.14520  0.53660  1.0000 0.1558695598
H   H41       1.0  0.36970  0.19110  0.21740  1.0000 0.1324859871
H   H42       1.0  0.38790  0.29520  0.26570  1.0000 0.1213849275
H   H43       1.0  0.71230  0.57250  0.62280  1.0000 0.1394146285
H   H44       1.0  0.65600  0.66980  0.55960  1.0000 0.1394146285
H   H45       1.0  0.49570  0.75300  0.60040  1.0000 0.1213849275
H   H46       1.0  0.51090  0.85480  0.53660  1.0000 0.1558695598
H   H47       1.0  0.63030  0.80890  0.21740  1.0000 0.1324859871
H   H48       1.0  0.61210  0.70480  0.26570  1.0000 0.1213849275
C   C1        1.0  0.52720  0.63130  0.94880  1.0000 0.1931154182
C   C2        1.0  0.57580  0.67200  0.91500  1.0000 -0.1719194563
C   C3        1.0  0.62940  0.64090  0.94840  1.0000 -0.1719194563
C   C4        1.0  0.61080  0.57990  0.99900  1.0000 0.1931154182
C   C5        1.0  0.65100  0.53520  0.04500  1.0000 -0.0545984382
C   C6        1.0  0.71710  0.54980  0.06980  1.0000 0.1028776257
C   C7        1.0  0.76350  0.52130  0.98120  1.0000 -0.1231036769
C   C8        1.0  0.82440  0.53200  0.01800  1.0000 -0.0554174958
C   C9        1.0  0.84270  0.57050  0.12620  1.0000 -0.1475803
C   C10       1.0  0.79740  0.60190  0.20790  1.0000 -0.071197881
C   C11       1.0  0.73480  0.59100  0.17860  1.0000 -0.1475803
C   C12       1.0  0.47280  0.36870  0.94880  1.0000 0.1931154182
C   C13       1.0  0.42420  0.32800  0.91500  1.0000 -0.1719194563
C   C14       1.0  0.37060  0.35910  0.94840  1.0000 -0.1719194563
C   C15       1.0  0.38920  0.42010  0.99900  1.0000 0.1931154182
C   C16       1.0  0.34900  0.46480  0.04500  1.0000 -0.0545984382
C   C17       1.0  0.28290  0.45020  0.06980  1.0000 0.1028776257
C   C18       1.0  0.23650  0.47870  0.98120  1.0000 -0.1231036769
C   C19       1.0  0.17560  0.46800  0.01800  1.0000 -0.0554174958
C   C20       1.0  0.15730  0.42950  0.12620  1.0000 -0.1475803
C   C21       1.0  0.20260  0.39810  0.20790  1.0000 -0.071197881
C   C22       1.0  0.26520  0.40900  0.17860  1.0000 -0.1475803
C   C23       1.0  0.36870  0.52720  0.05120  1.0000 0.1931154182
C   C24       1.0  0.32800  0.57580  0.08500  1.0000 -0.1719194563
C   C25       1.0  0.35910  0.62940  0.05160  1.0000 -0.1719194563
C   C26       1.0  0.42010  0.61080  0.00100  1.0000 0.1931154182
C   C27       1.0  0.46480  0.65100  0.95500  1.0000 -0.0554174958
C   C28       1.0  0.45020  0.71710  0.93020  1.0000 0.1028776257
C   C29       1.0  0.47870  0.76350  0.01880  1.0000 -0.1231036769
C   C30       1.0  0.46800  0.82440  0.98200  1.0000 -0.0554174958
C   C31       1.0  0.42950  0.84270  0.87380  1.0000 -0.1475803
C   C32       1.0  0.39810  0.79740  0.79210  1.0000 -0.071197881
C   C33       1.0  0.40900  0.73480  0.82140  1.0000 -0.1475803
C   C34       1.0  0.63130  0.47280  0.05120  1.0000 0.1931154182
C   C35       1.0  0.67200  0.42420  0.08500  1.0000 -0.1719194563
C   C36       1.0  0.64090  0.37060  0.05160  1.0000 -0.1719194563
C   C37       1.0  0.57990  0.38920  0.00100  1.0000 0.1931154182
C   C38       1.0  0.53520  0.34900  0.95500  1.0000 -0.0545984382
C   C39       1.0  0.54980  0.28290  0.93020  1.0000 0.1028776257
C   C40       1.0  0.52130  0.23650  0.01880  1.0000 -0.1231036769
C   C41       1.0  0.53200  0.17560  0.98200  1.0000 -0.0554174958
C   C42       1.0  0.57050  0.15730  0.87380  1.0000 -0.1475803
C   C43       1.0  0.60190  0.20260  0.79210  1.0000 -0.071197881
C   C44       1.0  0.59100  0.26520  0.82140  1.0000 -0.1475803
C   C45       1.0  0.52720  0.36870  0.44880  1.0000 0.1931154182
C   C46       1.0  0.57580  0.32800  0.41500  1.0000 -0.1719194563
C   C47       1.0  0.62940  0.35910  0.44840  1.0000 -0.1719194563
C   C48       1.0  0.61080  0.42010  0.49900  1.0000 0.1931154182
C   C49       1.0  0.65100  0.46480  0.54500  1.0000 -0.0545984382
C   C50       1.0  0.71710  0.45020  0.56980  1.0000 0.1028776257
C   C51       1.0  0.76350  0.47870  0.48120  1.0000 -0.1231036769
C   C52       1.0  0.82440  0.46800  0.51800  1.0000 -0.0554174958
C   C53       1.0  0.84270  0.42950  0.62620  1.0000 -0.1475803
C   C54       1.0  0.79740  0.39810  0.70790  1.0000 -0.071197881
C   C55       1.0  0.73480  0.40900  0.67860  1.0000 -0.1475803
C   C56       1.0  0.47280  0.63130  0.44880  1.0000 0.1931154182
C   C57       1.0  0.42420  0.67200  0.41500  1.0000 -0.1719194563
C   C58       1.0  0.37060  0.64090  0.44840  1.0000 -0.1719194563
C   C59       1.0  0.38920  0.57990  0.49900  1.0000 0.1931154182
C   C60       1.0  0.34900  0.53520  0.54500  1.0000 -0.0545984382
C   C61       1.0  0.28290  0.54980  0.56980  1.0000 0.1028776257
C   C62       1.0  0.23650  0.52130  0.48120  1.0000 -0.1231036769
C   C63       1.0  0.17560  0.53200  0.51800  1.0000 -0.0554174958
C   C64       1.0  0.15730  0.57050  0.62620  1.0000 -0.1475803
C   C65       1.0  0.20260  0.60190  0.70790  1.0000 -0.071197881
C   C66       1.0  0.26520  0.59100  0.67860  1.0000 -0.1475803
C   C67       1.0  0.36870  0.47280  0.55120  1.0000 0.1931154182
C   C68       1.0  0.32800  0.42420  0.58500  1.0000 -0.1719194563
C   C69       1.0  0.35910  0.37060  0.55160  1.0000 -0.1719194563
C   C70       1.0  0.42010  0.38920  0.50100  1.0000 0.1931154182
C   C71       1.0  0.46480  0.34900  0.45500  1.0000 -0.0545984382
C   C72       1.0  0.45020  0.28290  0.43020  1.0000 0.1028776257
C   C73       1.0  0.47870  0.23650  0.51880  1.0000 -0.1231036769
C   C74       1.0  0.46800  0.17560  0.48200  1.0000 -0.0554174958
C   C75       1.0  0.42950  0.15730  0.37380  1.0000 -0.1475803
C   C76       1.0  0.39810  0.20260  0.29210  1.0000 -0.071197881
C   C77       1.0  0.40900  0.26520  0.32140  1.0000 -0.1475803
C   C78       1.0  0.63130  0.52720  0.55120  1.0000 0.1931154182
C   C79       1.0  0.67200  0.57580  0.58500  1.0000 -0.1719194563
C   C80       1.0  0.64090  0.62940  0.55160  1.0000 -0.1719194563
C   C81       1.0  0.57990  0.61080  0.50100  1.0000 0.1931154182
C   C82       1.0  0.53520  0.65100  0.45500  1.0000 -0.0545984382
C   C83       1.0  0.54980  0.71710  0.43020  1.0000 0.1028776257
C   C84       1.0  0.52130  0.76350  0.51880  1.0000 -0.1231036769
C   C85       1.0  0.53200  0.82440  0.48200  1.0000 -0.0554174958
C   C86       1.0  0.57050  0.84270  0.37380  1.0000 -0.1475803
C   C87       1.0  0.60190  0.79740  0.29210  1.0000 -0.071197881
C   C88       1.0  0.59100  0.73480  0.32140  1.0000 -0.1475803
N   N1        1.0  0.54800  0.57420  0.98830  1.0000 -0.2963786037
N   N2        1.0  0.45200  0.42580  0.98830  1.0000 -0.2963786037
N   N3        1.0  0.42580  0.54800  0.01170  1.0000 -0.2963786037
N   N4        1.0  0.57420  0.45200  0.01170  1.0000 -0.2963786037
N   N5        1.0  0.54800  0.42580  0.48830  1.0000 -0.2963786037
N   N6        1.0  0.45200  0.57420  0.48830  1.0000 -0.2963786037
N   N7        1.0  0.42580  0.45200  0.51170  1.0000 -0.2963786037
N   N8        1.0  0.57420  0.54800  0.51170  1.0000 -0.2963786037
O   O1        1.0  0.96240  0.56500  0.03200  1.0000 -0.7568640845
O   O2        1.0  0.93360  0.53300  0.31400  1.0000 -0.7773207562
O   O3        1.0  0.93410  0.64540  0.23300  1.0000 -0.5773195239
O   O4        1.0  0.03760  0.43500  0.03200  1.0000 -0.7568640845
O   O5        1.0  0.06640  0.46700  0.31400  1.0000 -0.7773207562
O   O6        1.0  0.06590  0.35460  0.23300  1.0000 -0.5773195239
O   O7        1.0  0.43500  0.96240  0.96800  1.0000 -0.7568640845
O   O8        1.0  0.46700  0.93360  0.68600  1.0000 -0.7773207562
O   O9        1.0  0.35460  0.93410  0.76700  1.0000 -0.5773195239
O   O10       1.0  0.56500  0.03760  0.96800  1.0000 -0.7568640845
O   O11       1.0  0.53300  0.06640  0.68600  1.0000 -0.7773207562
O   O12       1.0  0.64540  0.06590  0.76700  1.0000 -0.5773195239
O   O13       1.0  0.96240  0.43500  0.53200  1.0000 -0.7568640845
O   O14       1.0  0.93360  0.46700  0.81400  1.0000 -0.7773207562
O   O15       1.0  0.93410  0.35460  0.73300  1.0000 -0.5773195239
O   O16       1.0  0.03760  0.56500  0.53200  1.0000 -0.7568640845
O   O17       1.0  0.06640  0.53300  0.81400  1.0000 -0.7773207562
O   O18       1.0  0.06590  0.64540  0.73300  1.0000 -0.5773195239
O   O19       1.0  0.43500  0.03760  0.46800  1.0000 -0.7568640845
O   O20       1.0  0.46700  0.06640  0.18600  1.0000 -0.7773207562
O   O21       1.0  0.35460  0.06590  0.26700  1.0000 -0.5773195239
O   O22       1.0  0.56500  0.96240  0.46800  1.0000 -0.7568640845
O   O23       1.0  0.53300  0.93360  0.18600  1.0000 -0.7773207562
O   O24       1.0  0.64540  0.93410  0.26700  1.0000 -0.5773195239
