# DDEC6 charges by PACMAN v1.1 (https://github.com/mtap-research/PACMAN-charge/)
data_2018[Ce][nan]3[FSR]1
_chemical_formula_sum              "Ce4 H48 C30 O30"
_cell_length_a       9.009
_cell_length_b       9.8135
_cell_length_c       16.1296
_cell_angle_alpha    103.478
_cell_angle_beta     103.852
_cell_angle_gamma    98.566

_symmetry_space_group_name_H-M    "P 1"
_symmetry_Int_Tables_number       1

loop_
  _symmetry_equiv_pos_as_xyz
  'x, y, z'

loop_
  _atom_site_type_symbol
  _atom_site_label
  _atom_site_symmetry_multiplicity
  _atom_site_fract_x
  _atom_site_fract_y
  _atom_site_fract_z
  _atom_site_occupancy
  _atom_site_charge
Ce  Ce1       1.0  0.19253  0.95143  0.09779  1.0000 1.933873341
Ce  Ce2       1.0  0.34754  0.92543  0.36481  1.0000 1.9809638713
Ce  Ce3       1.0  0.80747  0.04857  0.90221  1.0000 1.933873341
Ce  Ce4       1.0  0.65246  0.07457  0.63519  1.0000 1.9809638713
H   H1        1.0  0.74350  0.93900  0.21330  1.0000 0.1525327568
H   H2        1.0  0.70080  0.97830  0.30540  1.0000 0.1411501136
H   H3        1.0  0.79350  0.19410  0.22260  1.0000 0.0897515967
H   H4        1.0  0.77020  0.22550  0.32020  1.0000 0.0849698787
H   H5        1.0  0.03680  0.25550  0.34200  1.0000 0.1314943289
H   H6        1.0  0.98260  0.10790  0.36320  1.0000 0.1411501136
H   H7        1.0  0.89430  0.55940  0.21670  1.0000 0.1314943289
H   H8        1.0  0.86950  0.52590  0.11170  1.0000 0.1235012547
H   H9        1.0  0.94200  0.32990  0.15990  1.0000 0.0897515967
H   H10       1.0  0.09820  0.43290  0.23040  1.0000 0.1140100961
H   H11       1.0  0.04510  0.39890  0.04270  1.0000 0.1314943289
H   H12       1.0  0.20900  0.46750  0.11820  1.0000 0.1411501136
H   H13       1.0  0.78030  0.73800  0.51110  1.0000 0.1314943289
H   H14       1.0  0.87290  0.85840  0.47920  1.0000 0.1411501136
H   H15       1.0  0.80980  0.68200  0.33450  1.0000 0.0998980259
H   H16       1.0  0.75000  0.56450  0.38020  1.0000 0.0897515967
H   H17       1.0  0.01120  0.63220  0.48620  1.0000 0.1235012547
H   H18       1.0  0.00200  0.54610  0.38730  1.0000 0.1314943289
H   H19       1.0  0.34800  0.94700  0.94100  1.0000 0.3301014755
H   H20       1.0  0.20400  0.95800  0.91300  1.0000 0.3301014755
H   H21       1.0  0.31100  0.71300  0.99700  1.0000 0.3809286212
H   H22       1.0  0.34600  0.68900  0.08300  1.0000 0.3878047322
H   H23       1.0  0.50900  0.23400  0.36800  1.0000 0.3413039301
H   H24       1.0  0.60100  0.19800  0.43300  1.0000 0.3493430172
H   H25       1.0  0.25650  0.06100  0.78670  1.0000 0.1525327568
H   H26       1.0  0.29920  0.02170  0.69460  1.0000 0.1411501136
H   H27       1.0  0.20650  0.80590  0.77740  1.0000 0.0897515967
H   H28       1.0  0.22980  0.77450  0.67980  1.0000 0.0849698787
H   H29       1.0  0.96320  0.74450  0.65800  1.0000 0.1314943289
H   H30       1.0  0.01740  0.89210  0.63680  1.0000 0.1411501136
H   H31       1.0  0.10570  0.44060  0.78330  1.0000 0.1314943289
H   H32       1.0  0.13050  0.47410  0.88830  1.0000 0.1235012547
H   H33       1.0  0.05800  0.67010  0.84010  1.0000 0.0897515967
H   H34       1.0  0.90180  0.56710  0.76960  1.0000 0.1140100961
H   H35       1.0  0.95490  0.60110  0.95730  1.0000 0.1314943289
H   H36       1.0  0.79100  0.53250  0.88180  1.0000 0.1411501136
H   H37       1.0  0.21970  0.26200  0.48890  1.0000 0.1314943289
H   H38       1.0  0.12710  0.14160  0.52080  1.0000 0.1411501136
H   H39       1.0  0.19020  0.31800  0.66550  1.0000 0.0998980259
H   H40       1.0  0.25000  0.43550  0.61980  1.0000 0.0897515967
H   H41       1.0  0.98880  0.36780  0.51380  1.0000 0.1235012547
H   H42       1.0  0.99800  0.45390  0.61270  1.0000 0.1314943289
H   H43       1.0  0.65200  0.05300  0.05900  1.0000 0.3301014755
H   H44       1.0  0.79600  0.04200  0.08700  1.0000 0.3301014755
H   H45       1.0  0.68900  0.28700  0.00300  1.0000 0.3809286212
H   H46       1.0  0.65400  0.31100  0.91700  1.0000 0.3878047322
H   H47       1.0  0.49100  0.76600  0.63200  1.0000 0.3413039301
H   H48       1.0  0.39900  0.80200  0.56700  1.0000 0.3493430172
C   C1        1.0  0.53130  0.99670  0.20060  1.0000 0.6568388347
C   C2        1.0  0.69900  0.00750  0.25050  1.0000 -0.3409726094
C   C3        1.0  0.80420  0.15870  0.27600  1.0000 -0.0918993871
C   C4        1.0  0.97580  0.15540  0.31500  1.0000 -0.3452477599
C   C5        1.0  0.05080  0.07900  0.24870  1.0000 0.6667729372
C   C6        1.0  0.06820  0.68280  0.18500  1.0000 0.6667729372
C   C7        1.0  0.94880  0.54560  0.16980  1.0000 -0.3323013083
C   C8        1.0  0.02400  0.41670  0.17110  1.0000 -0.1053412552
C   C9        1.0  0.11140  0.39270  0.09970  1.0000 -0.3323013083
C   C10       1.0  0.15010  0.24520  0.08810  1.0000 0.6667729372
C   C11       1.0  0.63480  0.81800  0.42480  1.0000 0.6568388347
C   C12       1.0  0.78580  0.77290  0.45880  1.0000 -0.3409726094
C   C13       1.0  0.82380  0.65670  0.39140  1.0000 -0.0840094234
C   C14       1.0  0.99210  0.63830  0.42420  1.0000 -0.3323013083
C   C15       1.0  0.11790  0.75720  0.42170  1.0000 0.6205546116
C   C16       1.0  0.46870  0.00330  0.79940  1.0000 0.6568388347
C   C17       1.0  0.30100  0.99250  0.74950  1.0000 -0.3409726094
C   C18       1.0  0.19580  0.84130  0.72400  1.0000 -0.0918993871
C   C19       1.0  0.02420  0.84460  0.68500  1.0000 -0.3452477599
C   C20       1.0  0.94920  0.92100  0.75130  1.0000 0.6667729372
C   C21       1.0  0.93180  0.31720  0.81500  1.0000 0.6667729372
C   C22       1.0  0.05120  0.45440  0.83020  1.0000 -0.3323013083
C   C23       1.0  0.97600  0.58330  0.82890  1.0000 -0.1053412552
C   C24       1.0  0.88860  0.60730  0.90030  1.0000 -0.3323013083
C   C25       1.0  0.84990  0.75480  0.91190  1.0000 0.6667729372
C   C26       1.0  0.36520  0.18200  0.57520  1.0000 0.6568388347
C   C27       1.0  0.21420  0.22710  0.54120  1.0000 -0.3409726094
C   C28       1.0  0.17620  0.34330  0.60860  1.0000 -0.0840094234
C   C29       1.0  0.00790  0.36170  0.57580  1.0000 -0.3323013083
C   C30       1.0  0.88210  0.24280  0.57830  1.0000 0.6205546116
O   O1        1.0  0.42060  0.93450  0.22430  1.0000 -0.7120841489
O   O2        1.0  0.49950  0.04280  0.13250  1.0000 -0.5970229055
O   O3        1.0  0.18500  0.05210  0.27770  1.0000 -0.7120841489
O   O4        1.0  0.98740  0.05090  0.16700  1.0000 -0.5727593745
O   O5        1.0  0.03260  0.76150  0.13440  1.0000 -0.6495424057
O   O6        1.0  0.19230  0.71010  0.24660  1.0000 -0.6344548608
O   O7        1.0  0.06140  0.14000  0.02400  1.0000 -0.68240945
O   O8        1.0  0.26410  0.22480  0.14330  1.0000 -0.6083602454
O   O9        1.0  0.53930  0.75420  0.35040  1.0000 -0.5633347775
O   O10       1.0  0.60560  0.92550  0.47500  1.0000 -0.7191521968
O   O11       1.0  0.08180  0.85950  0.39260  1.0000 -0.5927183177
O   O12       1.0  0.26120  0.74570  0.44680  1.0000 -0.6382492329
O   O13       1.0  0.26740  0.95140  0.95850  1.0000 -0.7399563338
O   O14       1.0  0.28870  0.72090  0.04600  1.0000 -0.7191521968
O   O15       1.0  0.52120  0.16560  0.38960  1.0000 -0.7120841489
O   O16       1.0  0.57940  0.06550  0.77570  1.0000 -0.7120841489
O   O17       1.0  0.50050  0.95720  0.86750  1.0000 -0.5970229055
O   O18       1.0  0.81500  0.94790  0.72230  1.0000 -0.7120841489
O   O19       1.0  0.01260  0.94910  0.83300  1.0000 -0.5727593745
O   O20       1.0  0.96740  0.23850  0.86560  1.0000 -0.6495424057
O   O21       1.0  0.80770  0.28990  0.75340  1.0000 -0.6344548608
O   O22       1.0  0.93860  0.86000  0.97600  1.0000 -0.68240945
O   O23       1.0  0.73590  0.77520  0.85670  1.0000 -0.6083602454
O   O24       1.0  0.46070  0.24580  0.64960  1.0000 -0.5633347775
O   O25       1.0  0.39440  0.07450  0.52500  1.0000 -0.7191521968
O   O26       1.0  0.91820  0.14050  0.60740  1.0000 -0.5927183177
O   O27       1.0  0.73880  0.25430  0.55320  1.0000 -0.6382492329
O   O28       1.0  0.73260  0.04860  0.04150  1.0000 -0.7399563338
O   O29       1.0  0.71130  0.27910  0.95400  1.0000 -0.7191521968
O   O30       1.0  0.47880  0.83440  0.61040  1.0000 -0.7120841489
