# DDEC6 charges by PACMAN v1.1 (https://github.com/mtap-research/PACMAN-charge/)
data_2018[Bi][nan]3[FSR]1
_chemical_formula_sum              "Bi4 H72 C136 O32"
_cell_length_a       11.1877
_cell_length_b       24.552
_cell_length_c       19.5611
_cell_angle_alpha    90
_cell_angle_beta     123.509
_cell_angle_gamma    90

_symmetry_space_group_name_H-M    "P 1"
_symmetry_Int_Tables_number       1

loop_
  _symmetry_equiv_pos_as_xyz
  'x, y, z'

loop_
  _atom_site_type_symbol
  _atom_site_label
  _atom_site_symmetry_multiplicity
  _atom_site_fract_x
  _atom_site_fract_y
  _atom_site_fract_z
  _atom_site_occupancy
  _atom_site_charge
Bi  Bi1       1.0  0.56361  0.83744  0.05869  1.0000 1.4152605382
Bi  Bi2       1.0  0.43639  0.33744  0.44131  1.0000 1.3984456706
Bi  Bi3       1.0  0.43639  0.16256  0.94131  1.0000 1.3984456706
Bi  Bi4       1.0  0.56361  0.66256  0.55869  1.0000 1.3984456706
H   H1        1.0  0.59450  0.48590  0.64810  1.0000 0.1477883903
H   H2        1.0  0.71640  0.52180  0.77780  1.0000 0.1230186123
H   H3        1.0  0.94360  0.38540  0.86480  1.0000 0.1230186123
H   H4        1.0  0.82840  0.35030  0.73380  1.0000 0.1293188794
H   H5        1.0  0.98990  0.54600  0.89470  1.0000 0.1230186123
H   H6        1.0  0.14550  0.72310  0.96870  1.0000 0.1360917114
H   H7        1.0  0.00610  0.64890  0.95150  1.0000 0.1293188794
H   H8        1.0  0.35720  0.56460  0.11350  1.0000 0.1230186123
H   H9        1.0  0.49590  0.63640  0.12380  1.0000 0.1230186123
H   H10       1.0  0.31530  0.14830  0.65610  1.0000 0.1293188794
H   H11       1.0  0.32920  0.10780  0.55420  1.0000 0.1293188794
H   H12       1.0  0.64050  0.00960  0.71990  1.0000 0.1230186123
H   H13       1.0  0.62770  0.04970  0.82250  1.0000 0.1360917114
H   H14       1.0  0.28430  0.01440  0.48540  1.0000 0.1230186123
H   H15       1.0  0.09450  0.83750  0.29030  1.0000 0.1360917114
H   H16       1.0  0.30230  0.87670  0.39310  1.0000 0.1293188794
H   H17       1.0  0.12730  0.02330  0.30630  1.0000 0.1293188794
H   H18       1.0  0.92060  0.98340  0.20530  1.0000 0.1293188794
H   H19       1.0  0.40550  0.98590  0.85190  1.0000 0.1477883903
H   H20       1.0  0.28360  0.02180  0.72220  1.0000 0.1230186123
H   H21       1.0  0.05640  0.88540  0.63520  1.0000 0.1230186123
H   H22       1.0  0.17160  0.85030  0.76620  1.0000 0.1293188794
H   H23       1.0  0.01010  0.04600  0.60530  1.0000 0.1230186123
H   H24       1.0  0.85450  0.22310  0.53130  1.0000 0.1360917114
H   H25       1.0  0.99390  0.14890  0.54850  1.0000 0.1293188794
H   H26       1.0  0.64280  0.06460  0.38650  1.0000 0.1230186123
H   H27       1.0  0.50410  0.13640  0.37620  1.0000 0.1230186123
H   H28       1.0  0.68470  0.64830  0.84390  1.0000 0.1293188794
H   H29       1.0  0.67080  0.60780  0.94580  1.0000 0.1293188794
H   H30       1.0  0.35950  0.50960  0.78010  1.0000 0.1230186123
H   H31       1.0  0.37230  0.54970  0.67750  1.0000 0.1360917114
H   H32       1.0  0.71570  0.51440  0.01460  1.0000 0.1230186123
H   H33       1.0  0.90550  0.33750  0.20970  1.0000 0.1360917114
H   H34       1.0  0.69770  0.37670  0.10690  1.0000 0.1293188794
H   H35       1.0  0.87270  0.52330  0.19370  1.0000 0.1293188794
H   H36       1.0  0.07940  0.48340  0.29470  1.0000 0.1293188794
H   H37       1.0  0.40550  0.51410  0.35190  1.0000 0.1477883903
H   H38       1.0  0.28360  0.47820  0.22220  1.0000 0.1230186123
H   H39       1.0  0.05640  0.61460  0.13520  1.0000 0.1293188794
H   H40       1.0  0.17160  0.64970  0.26620  1.0000 0.1293188794
H   H41       1.0  0.01010  0.45400  0.10530  1.0000 0.1230186123
H   H42       1.0  0.85450  0.27690  0.03130  1.0000 0.1360917114
H   H43       1.0  0.99390  0.35110  0.04850  1.0000 0.1293188794
H   H44       1.0  0.64280  0.43540  0.88650  1.0000 0.1230186123
H   H45       1.0  0.50410  0.36360  0.87620  1.0000 0.1230186123
H   H46       1.0  0.68470  0.85170  0.34390  1.0000 0.1293188794
H   H47       1.0  0.67080  0.89220  0.44580  1.0000 0.1293188794
H   H48       1.0  0.35950  0.99040  0.28010  1.0000 0.1230186123
H   H49       1.0  0.37230  0.95030  0.17750  1.0000 0.1360917114
H   H50       1.0  0.71570  0.98560  0.51460  1.0000 0.1230186123
H   H51       1.0  0.90550  0.16250  0.70970  1.0000 0.1360917114
H   H52       1.0  0.69770  0.12330  0.60690  1.0000 0.1293188794
H   H53       1.0  0.87270  0.97670  0.69370  1.0000 0.1293188794
H   H54       1.0  0.07940  0.01660  0.79470  1.0000 0.1293188794
H   H55       1.0  0.59450  0.01410  0.14810  1.0000 0.1477883903
H   H56       1.0  0.71640  0.97820  0.27780  1.0000 0.1230186123
H   H57       1.0  0.94360  0.11460  0.36480  1.0000 0.1230186123
H   H58       1.0  0.82840  0.14970  0.23380  1.0000 0.1293188794
H   H59       1.0  0.98990  0.95400  0.39470  1.0000 0.1230186123
H   H60       1.0  0.14550  0.77690  0.46870  1.0000 0.1360917114
H   H61       1.0  0.00610  0.85110  0.45150  1.0000 0.1293188794
H   H62       1.0  0.35720  0.93540  0.61350  1.0000 0.1230186123
H   H63       1.0  0.49590  0.86360  0.62380  1.0000 0.1230186123
H   H64       1.0  0.31530  0.35170  0.15610  1.0000 0.1293188794
H   H65       1.0  0.32920  0.39220  0.05420  1.0000 0.1293188794
H   H66       1.0  0.64050  0.49040  0.21990  1.0000 0.1230186123
H   H67       1.0  0.62770  0.45030  0.32250  1.0000 0.1360917114
H   H68       1.0  0.28430  0.48560  0.98540  1.0000 0.1230186123
H   H69       1.0  0.09450  0.66250  0.79030  1.0000 0.1360917114
H   H70       1.0  0.30230  0.62330  0.89310  1.0000 0.1293188794
H   H71       1.0  0.12730  0.47670  0.80630  1.0000 0.1293188794
H   H72       1.0  0.92060  0.51660  0.70530  1.0000 0.1293188794
C   C1        1.0  0.61920  0.39050  0.59430  1.0000 0.5256434528
C   C2        1.0  0.69800  0.41470  0.67710  1.0000 -0.010459202
C   C3        1.0  0.66600  0.46550  0.69170  1.0000 -0.0812986067
C   C4        1.0  0.73760  0.48670  0.76950  1.0000 -0.1393974547
C   C5        1.0  0.84000  0.45670  0.83480  1.0000 0.0713371806
C   C6        1.0  0.87320  0.40590  0.82080  1.0000 -0.1484189697
C   C7        1.0  0.80390  0.38460  0.74250  1.0000 -0.0897699757
C   C8        1.0  0.91720  0.47880  0.92030  1.0000 0.0390124617
C   C9        1.0  0.99470  0.52760  0.93770  1.0000 -0.1735470744
C   C10       1.0  0.07650  0.54910  0.01450  1.0000 0.0301524156
C   C11       1.0  0.42600  0.73460  0.05820  1.0000 0.5517941487
C   C12       1.0  0.33430  0.68780  0.04750  1.0000 -0.0232413353
C   C13       1.0  0.18860  0.69100  0.99680  1.0000 -0.0812986067
C   C14       1.0  0.10510  0.64640  0.98730  1.0000 -0.1484189697
C   C15       1.0  0.16500  0.59770  0.02980  1.0000 0.0713371806
C   C16       1.0  0.31370  0.59590  0.08270  1.0000 -0.1393974547
C   C17       1.0  0.39670  0.63920  0.09010  1.0000 -0.0962394255
C   C18       1.0  0.46210  0.12830  0.81640  1.0000 0.5399546025
C   C19       1.0  0.47250  0.10300  0.75130  1.0000 -0.0269249154
C   C20       1.0  0.38110  0.12050  0.66910  1.0000 -0.0897699757
C   C21       1.0  0.38960  0.09630  0.60820  1.0000 -0.1484189697
C   C22       1.0  0.48700  0.05530  0.62700  1.0000 0.0713371806
C   C23       1.0  0.57550  0.03760  0.70720  1.0000 -0.1393974547
C   C24       1.0  0.56760  0.06170  0.76870  1.0000 -0.0897699757
C   C25       1.0  0.49490  0.02950  0.56050  1.0000 0.0301524156
C   C26       1.0  0.37140  0.00880  0.49080  1.0000 -0.1735470744
C   C27       1.0  0.36930  0.98020  0.42840  1.0000 0.0301524156
C   C28       1.0  0.85280  0.87860  0.17120  1.0000 0.5517941487
C   C29       1.0  0.98840  0.90560  0.23730  1.0000 -0.010459202
C   C30       1.0  0.10160  0.87530  0.29370  1.0000 -0.0897699757
C   C31       1.0  0.22570  0.89840  0.35540  1.0000 -0.1393974547
C   C32       1.0  0.23650  0.95490  0.36130  1.0000 0.0636856218
C   C33       1.0  0.12070  0.98550  0.30350  1.0000 -0.1484189697
C   C34       1.0  0.99800  0.96200  0.24290  1.0000 -0.0897699757
C   C35       1.0  0.38080  0.89050  0.90570  1.0000 0.5256434528
C   C36       1.0  0.30200  0.91470  0.82290  1.0000 -0.010459202
C   C37       1.0  0.33400  0.96550  0.80830  1.0000 -0.0812986067
C   C38       1.0  0.26240  0.98670  0.73050  1.0000 -0.1393974547
C   C39       1.0  0.16000  0.95670  0.66520  1.0000 0.0713371806
C   C40       1.0  0.12680  0.90590  0.67920  1.0000 -0.1484189697
C   C41       1.0  0.19610  0.88460  0.75750  1.0000 -0.0897699757
C   C42       1.0  0.08280  0.97880  0.57970  1.0000 0.0390124617
C   C43       1.0  0.00530  0.02760  0.56230  1.0000 -0.1735470744
C   C44       1.0  0.92350  0.04910  0.48550  1.0000 0.0301524156
C   C45       1.0  0.57400  0.23460  0.44180  1.0000 0.5517941487
C   C46       1.0  0.66570  0.18780  0.45250  1.0000 -0.0232413353
C   C47       1.0  0.81140  0.19100  0.50320  1.0000 -0.0812986067
C   C48       1.0  0.89490  0.14640  0.51270  1.0000 -0.1484189697
C   C49       1.0  0.83500  0.09770  0.47020  1.0000 0.0713371806
C   C50       1.0  0.68630  0.09590  0.41730  1.0000 -0.1393974547
C   C51       1.0  0.60330  0.13920  0.40990  1.0000 -0.0962394255
C   C52       1.0  0.53790  0.62830  0.68360  1.0000 0.5399546025
C   C53       1.0  0.52750  0.60300  0.74870  1.0000 -0.0269249154
C   C54       1.0  0.61890  0.62050  0.83090  1.0000 -0.0897699757
C   C55       1.0  0.61040  0.59630  0.89180  1.0000 -0.1484189697
C   C56       1.0  0.51300  0.55530  0.87300  1.0000 0.0713371806
C   C57       1.0  0.42450  0.53760  0.79280  1.0000 -0.1393974547
C   C58       1.0  0.43240  0.56170  0.73130  1.0000 -0.0897699757
C   C59       1.0  0.50510  0.52950  0.93950  1.0000 0.0301524156
C   C60       1.0  0.62860  0.50880  0.00920  1.0000 -0.1735470744
C   C61       1.0  0.63070  0.48020  0.07160  1.0000 0.0301524156
C   C62       1.0  0.14720  0.37860  0.32880  1.0000 0.5517941487
C   C63       1.0  0.01160  0.40560  0.26270  1.0000 -0.010459202
C   C64       1.0  0.89840  0.37530  0.20630  1.0000 -0.0897699757
C   C65       1.0  0.77430  0.39840  0.14460  1.0000 -0.1393974547
C   C66       1.0  0.76350  0.45490  0.13870  1.0000 0.0636856218
C   C67       1.0  0.87930  0.48550  0.19650  1.0000 -0.1484189697
C   C68       1.0  0.00200  0.46200  0.25710  1.0000 -0.0897699757
C   C69       1.0  0.38080  0.60950  0.40570  1.0000 0.5256434528
C   C70       1.0  0.30200  0.58530  0.32290  1.0000 -0.010459202
C   C71       1.0  0.33400  0.53450  0.30830  1.0000 -0.0812986067
C   C72       1.0  0.26240  0.51330  0.23050  1.0000 -0.1393974547
C   C73       1.0  0.16000  0.54330  0.16520  1.0000 0.0713371806
C   C74       1.0  0.12680  0.59410  0.17920  1.0000 -0.1484189697
C   C75       1.0  0.19610  0.61540  0.25750  1.0000 -0.0897699757
C   C76       1.0  0.08280  0.52120  0.07970  1.0000 0.0390124617
C   C77       1.0  0.00530  0.47240  0.06230  1.0000 -0.1735470744
C   C78       1.0  0.92350  0.45090  0.98550  1.0000 0.0301524156
C   C79       1.0  0.57400  0.26540  0.94180  1.0000 0.5517941487
C   C80       1.0  0.66570  0.31220  0.95250  1.0000 -0.0232413353
C   C81       1.0  0.81140  0.30900  0.00320  1.0000 -0.0812986067
C   C82       1.0  0.89490  0.35360  0.01270  1.0000 -0.1484189697
C   C83       1.0  0.83500  0.40230  0.97020  1.0000 0.0713371806
C   C84       1.0  0.68630  0.40410  0.91730  1.0000 -0.1393974547
C   C85       1.0  0.60330  0.36080  0.90990  1.0000 -0.0962394255
C   C86       1.0  0.53790  0.87170  0.18360  1.0000 0.5399546025
C   C87       1.0  0.52750  0.89700  0.24870  1.0000 -0.0269249154
C   C88       1.0  0.61890  0.87950  0.33090  1.0000 -0.0897699757
C   C89       1.0  0.61040  0.90370  0.39180  1.0000 -0.1484189697
C   C90       1.0  0.51300  0.94470  0.37300  1.0000 0.0713371806
C   C91       1.0  0.42450  0.96240  0.29280  1.0000 -0.1393974547
C   C92       1.0  0.43240  0.93830  0.23130  1.0000 -0.0897699757
C   C93       1.0  0.50510  0.97050  0.43950  1.0000 0.0301524156
C   C94       1.0  0.62860  0.99120  0.50920  1.0000 -0.1735470744
C   C95       1.0  0.63070  0.01980  0.57160  1.0000 0.0301524156
C   C96       1.0  0.14720  0.12140  0.82880  1.0000 0.5517941487
C   C97       1.0  0.01160  0.09440  0.76270  1.0000 -0.010459202
C   C98       1.0  0.89840  0.12470  0.70630  1.0000 -0.0897699757
C   C99       1.0  0.77430  0.10160  0.64460  1.0000 -0.1393974547
C   C100      1.0  0.76350  0.04510  0.63870  1.0000 0.0636856218
C   C101      1.0  0.87930  0.01450  0.69650  1.0000 -0.1484189697
C   C102      1.0  0.00200  0.03800  0.75710  1.0000 -0.0897699757
C   C103      1.0  0.61920  0.10950  0.09430  1.0000 0.524941012
C   C104      1.0  0.69800  0.08530  0.17710  1.0000 -0.010459202
C   C105      1.0  0.66600  0.03450  0.19170  1.0000 -0.0812986067
C   C106      1.0  0.73760  0.01330  0.26950  1.0000 -0.1393974547
C   C107      1.0  0.84000  0.04330  0.33480  1.0000 0.0713371806
C   C108      1.0  0.87320  0.09410  0.32080  1.0000 -0.1484189697
C   C109      1.0  0.80390  0.11540  0.24250  1.0000 -0.0897699757
C   C110      1.0  0.91720  0.02120  0.42030  1.0000 0.0390124617
C   C111      1.0  0.99470  0.97240  0.43770  1.0000 -0.1735470744
C   C112      1.0  0.07650  0.95090  0.51450  1.0000 0.0301524156
C   C113      1.0  0.42600  0.76540  0.55820  1.0000 0.5517941487
C   C114      1.0  0.33430  0.81220  0.54750  1.0000 -0.0232413353
C   C115      1.0  0.18860  0.80900  0.49680  1.0000 -0.0812986067
C   C116      1.0  0.10510  0.85360  0.48730  1.0000 -0.1484189697
C   C117      1.0  0.16500  0.90230  0.52980  1.0000 0.0713371806
C   C118      1.0  0.31370  0.90410  0.58270  1.0000 -0.1393974547
C   C119      1.0  0.39670  0.86080  0.59010  1.0000 -0.0962394255
C   C120      1.0  0.46210  0.37170  0.31640  1.0000 0.5399546025
C   C121      1.0  0.47250  0.39700  0.25130  1.0000 -0.0269249154
C   C122      1.0  0.38110  0.37950  0.16910  1.0000 -0.0897699757
C   C123      1.0  0.38960  0.40370  0.10820  1.0000 -0.1484189697
C   C124      1.0  0.48700  0.44470  0.12700  1.0000 0.0713371806
C   C125      1.0  0.57550  0.46240  0.20720  1.0000 -0.1393974547
C   C126      1.0  0.56760  0.43830  0.26870  1.0000 -0.0897699757
C   C127      1.0  0.49490  0.47050  0.06050  1.0000 0.0301524156
C   C128      1.0  0.37140  0.49120  0.99080  1.0000 -0.1735470744
C   C129      1.0  0.36930  0.51980  0.92840  1.0000 0.0301524156
C   C130      1.0  0.85280  0.62140  0.67120  1.0000 0.5517941487
C   C131      1.0  0.98840  0.59440  0.73730  1.0000 -0.010459202
C   C132      1.0  0.10160  0.62470  0.79370  1.0000 -0.0897699757
C   C133      1.0  0.22570  0.60160  0.85540  1.0000 -0.1393974547
C   C134      1.0  0.23650  0.54510  0.86130  1.0000 0.0636856218
C   C135      1.0  0.12070  0.51450  0.80350  1.0000 -0.1484189697
C   C136      1.0  0.99800  0.53800  0.74290  1.0000 -0.0897699757
O   O1        1.0  0.65550  0.34680  0.58160  1.0000 -0.4707253727
O   O2        1.0  0.52020  0.41480  0.53610  1.0000 -0.4535778912
O   O3        1.0  0.36960  0.78170  0.04310  1.0000 -0.509167813
O   O4        1.0  0.55330  0.72890  0.08150  1.0000 -0.5281472805
O   O5        1.0  0.37750  0.16760  0.80000  1.0000 -0.509167813
O   O6        1.0  0.53140  0.10830  0.88820  1.0000 -0.4936568094
O   O7        1.0  0.85120  0.82730  0.16330  1.0000 -0.5420390817
O   O8        1.0  0.74290  0.90760  0.12700  1.0000 -0.5188653024
O   O9        1.0  0.34450  0.84680  0.91840  1.0000 -0.4707253727
O   O10       1.0  0.47980  0.91480  0.96390  1.0000 -0.4535778912
O   O11       1.0  0.63040  0.28170  0.45690  1.0000 -0.509167813
O   O12       1.0  0.44670  0.22890  0.41850  1.0000 -0.5281472805
O   O13       1.0  0.62250  0.66760  0.70000  1.0000 -0.509167813
O   O14       1.0  0.46860  0.60830  0.61180  1.0000 -0.4936568094
O   O15       1.0  0.14880  0.32730  0.33670  1.0000 -0.5420390817
O   O16       1.0  0.25710  0.40760  0.37300  1.0000 -0.5188653024
O   O17       1.0  0.34450  0.65320  0.41840  1.0000 -0.4707253727
O   O18       1.0  0.47980  0.58520  0.46390  1.0000 -0.4535778912
O   O19       1.0  0.63040  0.21830  0.95690  1.0000 -0.509167813
O   O20       1.0  0.44670  0.27110  0.91850  1.0000 -0.5281472805
O   O21       1.0  0.62250  0.83240  0.20000  1.0000 -0.509167813
O   O22       1.0  0.46860  0.89170  0.11180  1.0000 -0.4950554224
O   O23       1.0  0.14880  0.17270  0.83670  1.0000 -0.5420390817
O   O24       1.0  0.25710  0.09240  0.87300  1.0000 -0.5188653024
O   O25       1.0  0.65550  0.15320  0.08160  1.0000 -0.4707253727
O   O26       1.0  0.52020  0.08520  0.03610  1.0000 -0.4535778912
O   O27       1.0  0.36960  0.71830  0.54310  1.0000 -0.509167813
O   O28       1.0  0.55330  0.77110  0.58150  1.0000 -0.5281472805
O   O29       1.0  0.37750  0.33240  0.30000  1.0000 -0.509167813
O   O30       1.0  0.53140  0.39170  0.38820  1.0000 -0.4936568094
O   O31       1.0  0.85120  0.67270  0.66330  1.0000 -0.5420390817
O   O32       1.0  0.74290  0.59240  0.62700  1.0000 -0.5188653024
