# DDEC6 charges by PACMAN v1.1 (https://github.com/mtap-research/PACMAN-charge/)
data_2019[Cd][pcu]3[FSR]3
_chemical_formula_sum              "Cd8 H144 C216 N48 O32"
_cell_length_a       22.4372
_cell_length_b       11.0317
_cell_length_c       26.9945
_cell_angle_alpha    90
_cell_angle_beta     112.242
_cell_angle_gamma    90

_symmetry_space_group_name_H-M    "P 1"
_symmetry_Int_Tables_number       1

loop_
  _symmetry_equiv_pos_as_xyz
  'x, y, z'

loop_
  _atom_site_type_symbol
  _atom_site_label
  _atom_site_symmetry_multiplicity
  _atom_site_fract_x
  _atom_site_fract_y
  _atom_site_fract_z
  _atom_site_occupancy
  _atom_site_charge
Cd  Cd1       1.0  0.41716  0.57144  0.50504  1.0000 0.8709319572
Cd  Cd2       1.0  0.41004  0.54258  0.00029  1.0000 0.8709319572
Cd  Cd3       1.0  0.08284  0.07144  0.49496  1.0000 0.8709319572
Cd  Cd4       1.0  0.08996  0.04258  0.99971  1.0000 0.8709319572
Cd  Cd5       1.0  0.58284  0.42856  0.49496  1.0000 0.8709319572
Cd  Cd6       1.0  0.58996  0.45742  0.99971  1.0000 0.8709319572
Cd  Cd7       1.0  0.91716  0.92856  0.50504  1.0000 0.8709319572
Cd  Cd8       1.0  0.91004  0.95742  0.00029  1.0000 0.8709319572
H   H1        1.0  0.41378  0.52817  0.38677  1.0000 0.1006721474
H   H2        1.0  0.42113  0.62427  0.31361  1.0000 0.1307456187
H   H3        1.0  0.45280  0.93599  0.39694  1.0000 0.1371246458
H   H4        1.0  0.44367  0.82984  0.46694  1.0000 0.1081904323
H   H5        1.0  0.44943  0.61374  0.20340  1.0000 0.1307456187
H   H6        1.0  0.44639  0.50930  0.12837  1.0000 0.1081904323
H   H7        1.0  0.43027  0.80910  0.04834  1.0000 0.1081904323
H   H8        1.0  0.43518  0.92359  0.12137  1.0000 0.1307456187
H   H9        1.0  0.39853  0.18309  0.17317  1.0000 0.1206417936
H   H10       1.0  0.38133  0.39066  0.17193  1.0000 0.1006721474
H   H11       1.0  0.45090  0.40229  0.32652  1.0000 0.0895340269
H   H12       1.0  0.46285  0.19525  0.33252  1.0000 0.1307456187
H   H13       1.0  0.39909  0.29124  0.53805  1.0000 0.1006721474
H   H14       1.0  0.39222  0.17609  0.60705  1.0000 0.1371246458
H   H15       1.0  0.42016  0.48173  0.69419  1.0000 0.1307456187
H   H16       1.0  0.42858  0.58620  0.62372  1.0000 0.1081904323
H   H17       1.0  0.37630  0.91206  0.66332  1.0000 0.1371246458
H   H18       1.0  0.37480  0.70380  0.66509  1.0000 0.1006721474
H   H19       1.0  0.43506  0.70107  0.81838  1.0000 0.1006721474
H   H20       1.0  0.42307  0.90683  0.82195  1.0000 0.1307456187
H   H21       1.0  0.38745  0.16358  0.87587  1.0000 0.1307456187
H   H22       1.0  0.38755  0.27014  0.94909  1.0000 0.1081904323
H   H23       1.0  0.39329  0.57732  0.87918  1.0000 0.1081904323
H   H24       1.0  0.39219  0.48025  0.80407  1.0000 0.1307456187
H   H25       1.0  0.38025  0.24327  0.37634  1.0000 0.1461708437
H   H26       1.0  0.42269  0.14467  0.41550  1.0000 0.1371246458
H   H27       1.0  0.38117  0.04155  0.47292  1.0000 0.1206417936
H   H28       1.0  0.29968  0.01362  0.50511  1.0000 0.1206417936
H   H29       1.0  0.21908  0.32751  0.43771  1.0000 0.1206417936
H   H30       1.0  0.29991  0.35541  0.40632  1.0000 0.1307456187
H   H31       1.0  0.49851  0.11102  0.03834  1.0000 0.1461708437
H   H32       1.0  0.50750  0.16089  0.09491  1.0000 0.1461708437
H   H33       1.0  0.40339  0.00412  0.99802  1.0000 0.1206417936
H   H34       1.0  0.29693  0.96254  0.98322  1.0000 0.1307456187
H   H35       1.0  0.29239  0.25108  0.07255  1.0000 0.1206417936
H   H36       1.0  0.40016  0.28890  0.08932  1.0000 0.1206417936
H   H37       1.0  0.08622  0.02817  0.61323  1.0000 0.1006721474
H   H38       1.0  0.07887  0.12427  0.68639  1.0000 0.1307456187
H   H39       1.0  0.04720  0.43599  0.60306  1.0000 0.1371246458
H   H40       1.0  0.05633  0.32984  0.53306  1.0000 0.1081904323
H   H41       1.0  0.05057  0.11374  0.79660  1.0000 0.1307456187
H   H42       1.0  0.05361  0.00930  0.87163  1.0000 0.1081904323
H   H43       1.0  0.06973  0.30910  0.95166  1.0000 0.1081904323
H   H44       1.0  0.06482  0.42359  0.87863  1.0000 0.1307456187
H   H45       1.0  0.10147  0.68309  0.82683  1.0000 0.1206417936
H   H46       1.0  0.11867  0.89066  0.82807  1.0000 0.1006721474
H   H47       1.0  0.04910  0.90229  0.67348  1.0000 0.0895340269
H   H48       1.0  0.03715  0.69525  0.66748  1.0000 0.1307456187
H   H49       1.0  0.10091  0.79124  0.46195  1.0000 0.1006721474
H   H50       1.0  0.10778  0.67609  0.39295  1.0000 0.1371246458
H   H51       1.0  0.07984  0.98173  0.30581  1.0000 0.1307456187
H   H52       1.0  0.07142  0.08620  0.37628  1.0000 0.1081904323
H   H53       1.0  0.12370  0.41206  0.33668  1.0000 0.1371246458
H   H54       1.0  0.12520  0.20380  0.33491  1.0000 0.1006721474
H   H55       1.0  0.06494  0.20107  0.18162  1.0000 0.1006721474
H   H56       1.0  0.07693  0.40683  0.17805  1.0000 0.1307456187
H   H57       1.0  0.11255  0.66358  0.12413  1.0000 0.1307456187
H   H58       1.0  0.11245  0.77014  0.05091  1.0000 0.1081904323
H   H59       1.0  0.10671  0.07732  0.12082  1.0000 0.1081904323
H   H60       1.0  0.10781  0.98025  0.19593  1.0000 0.1307456187
H   H61       1.0  0.11975  0.74327  0.62366  1.0000 0.1461708437
H   H62       1.0  0.07731  0.64467  0.58450  1.0000 0.1371246458
H   H63       1.0  0.11883  0.54155  0.52708  1.0000 0.1206417936
H   H64       1.0  0.20032  0.51362  0.49489  1.0000 0.1206417936
H   H65       1.0  0.28092  0.82751  0.56229  1.0000 0.1206417936
H   H66       1.0  0.20009  0.85541  0.59368  1.0000 0.1307456187
H   H67       1.0  0.00149  0.61102  0.96166  1.0000 0.1461708437
H   H68       1.0  0.99250  0.66089  0.90509  1.0000 0.1461708437
H   H69       1.0  0.09661  0.50412  0.00198  1.0000 0.1206417936
H   H70       1.0  0.20307  0.46254  0.01678  1.0000 0.1307456187
H   H71       1.0  0.20761  0.75108  0.92745  1.0000 0.1206417936
H   H72       1.0  0.09984  0.78890  0.91068  1.0000 0.1206417936
H   H73       1.0  0.58622  0.47183  0.61323  1.0000 0.1006721474
H   H74       1.0  0.57887  0.37573  0.68639  1.0000 0.1307456187
H   H75       1.0  0.54720  0.06401  0.60306  1.0000 0.1371246458
H   H76       1.0  0.55633  0.17016  0.53306  1.0000 0.1081904323
H   H77       1.0  0.55057  0.38626  0.79660  1.0000 0.1307456187
H   H78       1.0  0.55361  0.49070  0.87163  1.0000 0.1081904323
H   H79       1.0  0.56973  0.19090  0.95166  1.0000 0.1081904323
H   H80       1.0  0.56482  0.07641  0.87863  1.0000 0.1307456187
H   H81       1.0  0.60147  0.81691  0.82683  1.0000 0.1206417936
H   H82       1.0  0.61867  0.60934  0.82807  1.0000 0.1006721474
H   H83       1.0  0.54910  0.59771  0.67348  1.0000 0.0895340269
H   H84       1.0  0.53715  0.80475  0.66748  1.0000 0.1307456187
H   H85       1.0  0.60091  0.70876  0.46195  1.0000 0.1006721474
H   H86       1.0  0.60778  0.82391  0.39295  1.0000 0.1371246458
H   H87       1.0  0.57984  0.51827  0.30581  1.0000 0.1307456187
H   H88       1.0  0.57142  0.41380  0.37628  1.0000 0.1081904323
H   H89       1.0  0.62370  0.08794  0.33668  1.0000 0.1371246458
H   H90       1.0  0.62520  0.29620  0.33491  1.0000 0.1006721474
H   H91       1.0  0.56494  0.29893  0.18162  1.0000 0.1006721474
H   H92       1.0  0.57693  0.09317  0.17805  1.0000 0.1307456187
H   H93       1.0  0.61255  0.83642  0.12413  1.0000 0.1307456187
H   H94       1.0  0.61245  0.72986  0.05091  1.0000 0.1081904323
H   H95       1.0  0.60671  0.42268  0.12082  1.0000 0.1081904323
H   H96       1.0  0.60781  0.51975  0.19593  1.0000 0.1307456187
H   H97       1.0  0.61975  0.75673  0.62366  1.0000 0.1461708437
H   H98       1.0  0.57731  0.85533  0.58450  1.0000 0.1371246458
H   H99       1.0  0.61883  0.95845  0.52708  1.0000 0.1206417936
H   H100      1.0  0.70032  0.98638  0.49489  1.0000 0.1206417936
H   H101      1.0  0.78092  0.67249  0.56229  1.0000 0.1206417936
H   H102      1.0  0.70009  0.64459  0.59368  1.0000 0.1307456187
H   H103      1.0  0.50149  0.88898  0.96166  1.0000 0.1461708437
H   H104      1.0  0.49250  0.83911  0.90509  1.0000 0.1461708437
H   H105      1.0  0.59661  0.99588  0.00198  1.0000 0.1206417936
H   H106      1.0  0.70307  0.03746  0.01678  1.0000 0.1307456187
H   H107      1.0  0.70761  0.74892  0.92745  1.0000 0.1206417936
H   H108      1.0  0.59984  0.71110  0.91068  1.0000 0.1206417936
H   H109      1.0  0.91378  0.97183  0.38677  1.0000 0.1006721474
H   H110      1.0  0.92113  0.87573  0.31361  1.0000 0.1307456187
H   H111      1.0  0.95280  0.56401  0.39694  1.0000 0.1371246458
H   H112      1.0  0.94367  0.67016  0.46694  1.0000 0.1081904323
H   H113      1.0  0.94943  0.88626  0.20340  1.0000 0.1307456187
H   H114      1.0  0.94639  0.99070  0.12837  1.0000 0.1081904323
H   H115      1.0  0.93027  0.69090  0.04834  1.0000 0.1081904323
H   H116      1.0  0.93518  0.57641  0.12137  1.0000 0.1307456187
H   H117      1.0  0.89853  0.31691  0.17317  1.0000 0.1206417936
H   H118      1.0  0.88133  0.10934  0.17193  1.0000 0.1006721474
H   H119      1.0  0.95090  0.09771  0.32652  1.0000 0.0895340269
H   H120      1.0  0.96285  0.30475  0.33252  1.0000 0.1307456187
H   H121      1.0  0.89909  0.20876  0.53805  1.0000 0.1006721474
H   H122      1.0  0.89222  0.32391  0.60705  1.0000 0.1371246458
H   H123      1.0  0.92016  0.01827  0.69419  1.0000 0.1307456187
H   H124      1.0  0.92858  0.91380  0.62372  1.0000 0.1006721474
H   H125      1.0  0.87630  0.58794  0.66332  1.0000 0.1371246458
H   H126      1.0  0.87480  0.79620  0.66509  1.0000 0.1006721474
H   H127      1.0  0.93506  0.79893  0.81838  1.0000 0.1006721474
H   H128      1.0  0.92307  0.59317  0.82195  1.0000 0.1307456187
H   H129      1.0  0.88745  0.33642  0.87587  1.0000 0.1307456187
H   H130      1.0  0.88755  0.22986  0.94909  1.0000 0.1081904323
H   H131      1.0  0.89329  0.92268  0.87918  1.0000 0.1081904323
H   H132      1.0  0.89219  0.01975  0.80407  1.0000 0.1307456187
H   H133      1.0  0.88025  0.25673  0.37634  1.0000 0.1461708437
H   H134      1.0  0.92269  0.35533  0.41550  1.0000 0.1371246458
H   H135      1.0  0.88117  0.45845  0.47292  1.0000 0.1206417936
H   H136      1.0  0.79968  0.48638  0.50511  1.0000 0.1206417936
H   H137      1.0  0.71908  0.17249  0.43771  1.0000 0.1206417936
H   H138      1.0  0.79991  0.14459  0.40632  1.0000 0.1307456187
H   H139      1.0  0.99851  0.38898  0.03834  1.0000 0.1461708437
H   H140      1.0  0.00750  0.33911  0.09491  1.0000 0.1461708437
H   H141      1.0  0.90339  0.49588  0.99802  1.0000 0.1206417936
H   H142      1.0  0.79693  0.53746  0.98322  1.0000 0.1307456187
H   H143      1.0  0.79239  0.24892  0.07255  1.0000 0.1206417936
H   H144      1.0  0.90016  0.21110  0.08932  1.0000 0.1206417936
C   C1        1.0  0.42120  0.61130  0.38850  1.0000 0.0791966545
C   C2        1.0  0.42590  0.66810  0.34430  1.0000 -0.1619384335
C   C3        1.0  0.43790  0.79150  0.34700  1.0000 0.060959266
C   C4        1.0  0.44460  0.85310  0.39390  1.0000 -0.1682065639
C   C5        1.0  0.43890  0.78850  0.43560  1.0000 0.0708905904
C   C6        1.0  0.44030  0.85690  0.30010  1.0000 0.3534739058
C   C7        1.0  0.44090  0.85150  0.21700  1.0000 0.3640525262
C   C8        1.0  0.43840  0.03060  0.25630  1.0000 0.3764789666
C   C9        1.0  0.44120  0.78160  0.17010  1.0000 0.060959266
C   C10       1.0  0.44540  0.65530  0.17230  1.0000 -0.1619384335
C   C11       1.0  0.44340  0.59340  0.12690  1.0000 0.0791966545
C   C12       1.0  0.43430  0.76960  0.07990  1.0000 0.0895340269
C   C13       1.0  0.43670  0.83940  0.12360  1.0000 -0.1619384335
C   C14       1.0  0.43350  0.16610  0.25350  1.0000 0.060959266
C   C15       1.0  0.40890  0.22560  0.20510  1.0000 -0.1619384335
C   C16       1.0  0.39970  0.35160  0.20480  1.0000 0.060959266
C   C17       1.0  0.43930  0.35790  0.29500  1.0000 0.0708905904
C   C18       1.0  0.44780  0.23280  0.29920  1.0000 -0.1619384335
C   C19       1.0  0.40410  0.32920  0.57010  1.0000 0.1006721474
C   C20       1.0  0.39910  0.25930  0.61110  1.0000 -0.1619384335
C   C21       1.0  0.40470  0.31690  0.65800  1.0000 0.060959266
C   C22       1.0  0.41610  0.44130  0.66280  1.0000 -0.1619384335
C   C23       1.0  0.42110  0.50310  0.62050  1.0000 0.060959266
C   C24       1.0  0.40000  0.24700  0.70380  1.0000 0.3655313336
C   C25       1.0  0.39700  0.06920  0.74330  1.0000 0.3655313336
C   C26       1.0  0.39390  0.24410  0.78510  1.0000 0.3534739058
C   C27       1.0  0.39780  0.93400  0.74220  1.0000 0.060959266
C   C28       1.0  0.38530  0.87130  0.69550  1.0000 -0.1682065639
C   C29       1.0  0.38630  0.74530  0.69740  1.0000 0.0708905904
C   C30       1.0  0.41910  0.74390  0.78630  1.0000 0.0522406663
C   C31       1.0  0.41480  0.86830  0.78940  1.0000 -0.1770845201
C   C32       1.0  0.39130  0.30990  0.83240  1.0000 0.0708905904
C   C33       1.0  0.38920  0.24780  0.87600  1.0000 -0.1619384335
C   C34       1.0  0.38970  0.31230  0.92000  1.0000 0.0791966545
C   C35       1.0  0.39300  0.49300  0.87860  1.0000 0.0791966545
C   C36       1.0  0.39220  0.43590  0.83340  1.0000 -0.1619384335
C   C37       1.0  0.44990  0.31720  0.44260  1.0000 0.6344614367
C   C38       1.0  0.40030  0.22070  0.41380  1.0000 -0.4005149488
C   C39       1.0  0.34830  0.20020  0.43490  1.0000 0.1606175642
C   C40       1.0  0.34840  0.09870  0.46550  1.0000 -0.1865125258
C   C41       1.0  0.29940  0.08220  0.48500  1.0000 -0.0956153829
C   C42       1.0  0.25010  0.16760  0.47460  1.0000 -0.0387478803
C   C43       1.0  0.25130  0.26950  0.44490  1.0000 -0.092448089
C   C44       1.0  0.29970  0.28580  0.42570  1.0000 -0.1498616167
C   C45       1.0  0.49980  0.29680  0.04100  1.0000 0.63879234
C   C46       1.0  0.48340  0.17170  0.05690  1.0000 -0.4095300787
C   C47       1.0  0.41330  0.14720  0.04560  1.0000 0.1461708437
C   C48       1.0  0.38160  0.05290  0.01380  1.0000 -0.1865125258
C   C49       1.0  0.31750  0.02810  0.00450  1.0000 -0.092448089
C   C50       1.0  0.28450  0.10160  0.02690  1.0000 -0.0156286803
C   C51       1.0  0.31500  0.20050  0.05820  1.0000 -0.0956153829
C   C52       1.0  0.37940  0.22350  0.06800  1.0000 -0.1498616167
C   C53       1.0  0.21500  0.07870  0.01740  1.0000 0.5483201708
C   C54       1.0  0.19590  0.14600  0.49220  1.0000 0.5483201708
C   C55       1.0  0.07880  0.11130  0.61150  1.0000 0.0791966545
C   C56       1.0  0.07410  0.16810  0.65570  1.0000 -0.1619384335
C   C57       1.0  0.06210  0.29150  0.65300  1.0000 0.060959266
C   C58       1.0  0.05540  0.35310  0.60610  1.0000 -0.1682065639
C   C59       1.0  0.06110  0.28850  0.56440  1.0000 0.0708905904
C   C60       1.0  0.05970  0.35690  0.69990  1.0000 0.3534739058
C   C61       1.0  0.05910  0.35150  0.78300  1.0000 0.3640525262
C   C62       1.0  0.06160  0.53060  0.74370  1.0000 0.3764789666
C   C63       1.0  0.05880  0.28160  0.82990  1.0000 0.060959266
C   C64       1.0  0.05460  0.15530  0.82770  1.0000 -0.1619384335
C   C65       1.0  0.05660  0.09340  0.87310  1.0000 0.0791966545
C   C66       1.0  0.06570  0.26960  0.92010  1.0000 0.0895340269
C   C67       1.0  0.06330  0.33940  0.87640  1.0000 -0.1619384335
C   C68       1.0  0.06650  0.66610  0.74650  1.0000 0.060959266
C   C69       1.0  0.09110  0.72560  0.79490  1.0000 -0.1682065639
C   C70       1.0  0.10030  0.85160  0.79520  1.0000 0.060959266
C   C71       1.0  0.06070  0.85790  0.70500  1.0000 0.0708905904
C   C72       1.0  0.05220  0.73280  0.70080  1.0000 -0.1619384335
C   C73       1.0  0.09590  0.82920  0.42990  1.0000 0.1006721474
C   C74       1.0  0.10090  0.75930  0.38890  1.0000 -0.1619384335
C   C75       1.0  0.09530  0.81690  0.34200  1.0000 0.060959266
C   C76       1.0  0.08390  0.94130  0.33720  1.0000 -0.1619384335
C   C77       1.0  0.07890  0.00310  0.37950  1.0000 0.060959266
C   C78       1.0  0.10000  0.74700  0.29620  1.0000 0.3655313336
C   C79       1.0  0.10300  0.56920  0.25670  1.0000 0.3655313336
C   C80       1.0  0.10610  0.74410  0.21490  1.0000 0.3534739058
C   C81       1.0  0.10220  0.43400  0.25780  1.0000 0.060959266
C   C82       1.0  0.11470  0.37130  0.30450  1.0000 -0.1682065639
C   C83       1.0  0.11370  0.24530  0.30260  1.0000 0.0708905904
C   C84       1.0  0.08090  0.24390  0.21370  1.0000 0.0522406663
C   C85       1.0  0.08520  0.36830  0.21060  1.0000 -0.1770845201
C   C86       1.0  0.10870  0.80990  0.16760  1.0000 0.0708905904
C   C87       1.0  0.11080  0.74780  0.12400  1.0000 -0.1619384335
C   C88       1.0  0.11030  0.81230  0.08000  1.0000 0.0791966545
C   C89       1.0  0.10700  0.99300  0.12140  1.0000 0.0791966545
C   C90       1.0  0.10780  0.93590  0.16660  1.0000 -0.1619384335
C   C91       1.0  0.05010  0.81720  0.55740  1.0000 0.6344614367
C   C92       1.0  0.09970  0.72070  0.58620  1.0000 -0.4005149488
C   C93       1.0  0.15170  0.70020  0.56510  1.0000 0.1606175642
C   C94       1.0  0.15160  0.59870  0.53450  1.0000 -0.1865125258
C   C95       1.0  0.20060  0.58220  0.51500  1.0000 -0.0956153829
C   C96       1.0  0.24990  0.66760  0.52540  1.0000 -0.0387478803
C   C97       1.0  0.24870  0.76950  0.55510  1.0000 -0.092448089
C   C98       1.0  0.20030  0.78580  0.57430  1.0000 -0.1498616167
C   C99       1.0  0.00020  0.79680  0.95900  1.0000 0.63879234
C   C100      1.0  0.01660  0.67170  0.94310  1.0000 -0.4095300787
C   C101      1.0  0.08670  0.64720  0.95440  1.0000 0.1461708437
C   C102      1.0  0.11840  0.55290  0.98620  1.0000 -0.1865125258
C   C103      1.0  0.18250  0.52810  0.99550  1.0000 -0.0956153829
C   C104      1.0  0.21550  0.60160  0.97310  1.0000 -0.0156286803
C   C105      1.0  0.18500  0.70050  0.94180  1.0000 -0.0956153829
C   C106      1.0  0.12060  0.72350  0.93200  1.0000 -0.1498616167
C   C107      1.0  0.28500  0.57870  0.98260  1.0000 0.5483201708
C   C108      1.0  0.30410  0.64600  0.50780  1.0000 0.5483201708
C   C109      1.0  0.57880  0.38870  0.61150  1.0000 0.0791966545
C   C110      1.0  0.57410  0.33190  0.65570  1.0000 -0.1619384335
C   C111      1.0  0.56210  0.20850  0.65300  1.0000 0.060959266
C   C112      1.0  0.55540  0.14690  0.60610  1.0000 -0.1682065639
C   C113      1.0  0.56110  0.21150  0.56440  1.0000 0.0708905904
C   C114      1.0  0.55970  0.14310  0.69990  1.0000 0.3534739058
C   C115      1.0  0.55910  0.14850  0.78300  1.0000 0.3640525262
C   C116      1.0  0.56160  0.96940  0.74370  1.0000 0.3764789666
C   C117      1.0  0.55880  0.21840  0.82990  1.0000 0.060959266
C   C118      1.0  0.55460  0.34470  0.82770  1.0000 -0.1619384335
C   C119      1.0  0.55660  0.40660  0.87310  1.0000 0.0791966545
C   C120      1.0  0.56570  0.23040  0.92010  1.0000 0.0895340269
C   C121      1.0  0.56330  0.16060  0.87640  1.0000 -0.1619384335
C   C122      1.0  0.56650  0.83390  0.74650  1.0000 0.060959266
C   C123      1.0  0.59110  0.77440  0.79490  1.0000 -0.1682065639
C   C124      1.0  0.60030  0.64840  0.79520  1.0000 0.060959266
C   C125      1.0  0.56070  0.64210  0.70500  1.0000 0.0708905904
C   C126      1.0  0.55220  0.76720  0.70080  1.0000 -0.1619384335
C   C127      1.0  0.59590  0.67080  0.42990  1.0000 0.1006721474
C   C128      1.0  0.60090  0.74070  0.38890  1.0000 -0.1619384335
C   C129      1.0  0.59530  0.68310  0.34200  1.0000 0.060959266
C   C130      1.0  0.58390  0.55870  0.33720  1.0000 -0.1619384335
C   C131      1.0  0.57890  0.49690  0.37950  1.0000 0.060959266
C   C132      1.0  0.60000  0.75300  0.29620  1.0000 0.3655313336
C   C133      1.0  0.60300  0.93080  0.25670  1.0000 0.3655313336
C   C134      1.0  0.60610  0.75590  0.21490  1.0000 0.3534739058
C   C135      1.0  0.60220  0.06600  0.25780  1.0000 0.060959266
C   C136      1.0  0.61470  0.12870  0.30450  1.0000 -0.1682065639
C   C137      1.0  0.61370  0.25470  0.30260  1.0000 0.0708905904
C   C138      1.0  0.58090  0.25610  0.21370  1.0000 0.0522406663
C   C139      1.0  0.58520  0.13170  0.21060  1.0000 -0.1770845201
C   C140      1.0  0.60870  0.69010  0.16760  1.0000 0.0708905904
C   C141      1.0  0.61080  0.75220  0.12400  1.0000 -0.1619384335
C   C142      1.0  0.61030  0.68770  0.08000  1.0000 0.0791966545
C   C143      1.0  0.60700  0.50700  0.12140  1.0000 0.0791966545
C   C144      1.0  0.60780  0.56410  0.16660  1.0000 -0.1682065639
C   C145      1.0  0.55010  0.68280  0.55740  1.0000 0.6344614367
C   C146      1.0  0.59970  0.77930  0.58620  1.0000 -0.4005149488
C   C147      1.0  0.65170  0.79980  0.56510  1.0000 0.1606175642
C   C148      1.0  0.65160  0.90130  0.53450  1.0000 -0.1865125258
C   C149      1.0  0.70060  0.91780  0.51500  1.0000 -0.0956153829
C   C150      1.0  0.74990  0.83240  0.52540  1.0000 -0.0387478803
C   C151      1.0  0.74870  0.73050  0.55510  1.0000 -0.092448089
C   C152      1.0  0.70030  0.71420  0.57430  1.0000 -0.1498616167
C   C153      1.0  0.50020  0.70320  0.95900  1.0000 0.63879234
C   C154      1.0  0.51660  0.82830  0.94310  1.0000 -0.4095300787
C   C155      1.0  0.58670  0.85280  0.95440  1.0000 0.1461708437
C   C156      1.0  0.61840  0.94710  0.98620  1.0000 -0.1865125258
C   C157      1.0  0.68250  0.97190  0.99550  1.0000 -0.0956153829
C   C158      1.0  0.71550  0.89840  0.97310  1.0000 -0.0156286803
C   C159      1.0  0.68500  0.79950  0.94180  1.0000 -0.0956153829
C   C160      1.0  0.62060  0.77650  0.93200  1.0000 -0.1498616167
C   C161      1.0  0.78500  0.92130  0.98260  1.0000 0.5483201708
C   C162      1.0  0.80410  0.85400  0.50780  1.0000 0.5483201708
C   C163      1.0  0.92120  0.88870  0.38850  1.0000 0.0791966545
C   C164      1.0  0.92590  0.83190  0.34430  1.0000 -0.1619384335
C   C165      1.0  0.93790  0.70850  0.34700  1.0000 0.060959266
C   C166      1.0  0.94460  0.64690  0.39390  1.0000 -0.1682065639
C   C167      1.0  0.93890  0.71150  0.43560  1.0000 0.0708905904
C   C168      1.0  0.94030  0.64310  0.30010  1.0000 0.3534739058
C   C169      1.0  0.94090  0.64850  0.21700  1.0000 0.3640525262
C   C170      1.0  0.93840  0.46940  0.25630  1.0000 0.3764789666
C   C171      1.0  0.94120  0.71840  0.17010  1.0000 0.060959266
C   C172      1.0  0.94540  0.84470  0.17230  1.0000 -0.1619384335
C   C173      1.0  0.94340  0.90660  0.12690  1.0000 0.0791966545
C   C174      1.0  0.93430  0.73040  0.07990  1.0000 0.0895340269
C   C175      1.0  0.93670  0.66060  0.12360  1.0000 -0.1619384335
C   C176      1.0  0.93350  0.33390  0.25350  1.0000 0.060959266
C   C177      1.0  0.90890  0.27440  0.20510  1.0000 -0.1682065639
C   C178      1.0  0.89970  0.14840  0.20480  1.0000 0.060959266
C   C179      1.0  0.93930  0.14210  0.29500  1.0000 0.0708905904
C   C180      1.0  0.94780  0.26720  0.29920  1.0000 -0.1619384335
C   C181      1.0  0.90410  0.17080  0.57010  1.0000 0.1006721474
C   C182      1.0  0.89910  0.24070  0.61110  1.0000 -0.1619384335
C   C183      1.0  0.90470  0.18310  0.65800  1.0000 0.060959266
C   C184      1.0  0.91610  0.05870  0.66280  1.0000 -0.1619384335
C   C185      1.0  0.92110  0.99690  0.62050  1.0000 0.060959266
C   C186      1.0  0.90000  0.25300  0.70380  1.0000 0.3640525262
C   C187      1.0  0.89700  0.43080  0.74330  1.0000 0.3655313336
C   C188      1.0  0.89390  0.25590  0.78510  1.0000 0.3534739058
C   C189      1.0  0.89780  0.56600  0.74220  1.0000 0.060959266
C   C190      1.0  0.88530  0.62870  0.69550  1.0000 -0.1682065639
C   C191      1.0  0.88630  0.75470  0.69740  1.0000 0.0708905904
C   C192      1.0  0.91910  0.75610  0.78630  1.0000 0.0522406663
C   C193      1.0  0.91480  0.63170  0.78940  1.0000 -0.1770845201
C   C194      1.0  0.89130  0.19010  0.83240  1.0000 0.0708905904
C   C195      1.0  0.88920  0.25220  0.87600  1.0000 -0.1619384335
C   C196      1.0  0.88970  0.18770  0.92000  1.0000 0.0791966545
C   C197      1.0  0.89300  0.00700  0.87860  1.0000 0.0791966545
C   C198      1.0  0.89220  0.06410  0.83340  1.0000 -0.1682065639
C   C199      1.0  0.94990  0.18280  0.44260  1.0000 0.6344614367
C   C200      1.0  0.90030  0.27930  0.41380  1.0000 -0.4005149488
C   C201      1.0  0.84830  0.29980  0.43490  1.0000 0.1606175642
C   C202      1.0  0.84840  0.40130  0.46550  1.0000 -0.1865125258
C   C203      1.0  0.79940  0.41780  0.48500  1.0000 -0.0956153829
C   C204      1.0  0.75010  0.33240  0.47460  1.0000 -0.0387478803
C   C205      1.0  0.75130  0.23050  0.44490  1.0000 -0.092448089
C   C206      1.0  0.79970  0.21420  0.42570  1.0000 -0.1498616167
C   C207      1.0  0.99980  0.20320  0.04100  1.0000 0.63879234
C   C208      1.0  0.98340  0.32830  0.05690  1.0000 -0.4095300787
C   C209      1.0  0.91330  0.35280  0.04560  1.0000 0.1461708437
C   C210      1.0  0.88160  0.44710  0.01380  1.0000 -0.1865125258
C   C211      1.0  0.81750  0.47190  0.00450  1.0000 -0.092448089
C   C212      1.0  0.78450  0.39840  0.02690  1.0000 -0.0156286803
C   C213      1.0  0.81500  0.29950  0.05820  1.0000 -0.0956153829
C   C214      1.0  0.87940  0.27650  0.06800  1.0000 -0.1498616167
C   C215      1.0  0.71500  0.42130  0.01740  1.0000 0.5483201708
C   C216      1.0  0.69590  0.35400  0.49220  1.0000 0.5483201708
N   N1        1.0  0.42680  0.66930  0.43340  1.0000 -0.2314495441
N   N2        1.0  0.44200  0.78960  0.25948  1.0000 -0.3933084864
N   N3        1.0  0.43840  0.97310  0.21270  1.0000 -0.4095300787
N   N4        1.0  0.43960  0.97790  0.30100  1.0000 -0.4005149488
N   N5        1.0  0.43740  0.64910  0.08100  1.0000 -0.2314495441
N   N6        1.0  0.41610  0.41800  0.24940  1.0000 -0.2603160065
N   N7        1.0  0.41570  0.44770  0.57440  1.0000 -0.2314495441
N   N8        1.0  0.40000  0.12590  0.70040  1.0000 -0.4095300787
N   N9        1.0  0.39390  0.12290  0.78660  1.0000 -0.4095300787
N   N10       1.0  0.39730  0.31110  0.74486  1.0000 -0.4005149488
N   N11       1.0  0.40240  0.68060  0.74140  1.0000 -0.2603160065
N   N12       1.0  0.39330  0.43440  0.92220  1.0000 -0.2397167195
N   N13       1.0  0.07320  0.16930  0.56660  1.0000 -0.2314495441
N   N14       1.0  0.05800  0.28960  0.74052  1.0000 -0.3933084864
N   N15       1.0  0.06160  0.47310  0.78730  1.0000 -0.4095300787
N   N16       1.0  0.06040  0.47790  0.69900  1.0000 -0.4005149488
N   N17       1.0  0.06260  0.14910  0.91900  1.0000 -0.2314495441
N   N18       1.0  0.08390  0.91800  0.75060  1.0000 -0.2603160065
N   N19       1.0  0.08430  0.94770  0.42560  1.0000 -0.2314495441
N   N20       1.0  0.10000  0.62590  0.29960  1.0000 -0.4095300787
N   N21       1.0  0.10610  0.62290  0.21340  1.0000 -0.4095300787
N   N22       1.0  0.10270  0.81110  0.25514  1.0000 -0.4005149488
N   N23       1.0  0.09760  0.18060  0.25860  1.0000 -0.2603160065
N   N24       1.0  0.10670  0.93440  0.07780  1.0000 -0.2397167195
N   N25       1.0  0.57320  0.33070  0.56660  1.0000 -0.2314495441
N   N26       1.0  0.55800  0.21040  0.74052  1.0000 -0.3933084864
N   N27       1.0  0.56160  0.02690  0.78730  1.0000 -0.4095300787
N   N28       1.0  0.56040  0.02210  0.69900  1.0000 -0.4005149488
N   N29       1.0  0.56260  0.35090  0.91900  1.0000 -0.2314495441
N   N30       1.0  0.58390  0.58200  0.75060  1.0000 -0.2603160065
N   N31       1.0  0.58430  0.55230  0.42560  1.0000 -0.2314495441
N   N32       1.0  0.60000  0.87410  0.29960  1.0000 -0.4095300787
N   N33       1.0  0.60610  0.87710  0.21340  1.0000 -0.4095300787
N   N34       1.0  0.60270  0.68890  0.25514  1.0000 -0.4005149488
N   N35       1.0  0.59760  0.31940  0.25860  1.0000 -0.2603160065
N   N36       1.0  0.60670  0.56560  0.07780  1.0000 -0.2397167195
N   N37       1.0  0.92680  0.83070  0.43340  1.0000 -0.2314495441
N   N38       1.0  0.94200  0.71040  0.25948  1.0000 -0.3933084864
N   N39       1.0  0.93840  0.52690  0.21270  1.0000 -0.4095300787
N   N40       1.0  0.93960  0.52210  0.30100  1.0000 -0.4005149488
N   N41       1.0  0.93740  0.85090  0.08100  1.0000 -0.2314495441
N   N42       1.0  0.91610  0.08200  0.24940  1.0000 -0.2603160065
N   N43       1.0  0.91570  0.05230  0.57440  1.0000 -0.2314495441
N   N44       1.0  0.90000  0.37410  0.70040  1.0000 -0.4095300787
N   N45       1.0  0.89390  0.37710  0.78660  1.0000 -0.4095300787
N   N46       1.0  0.89730  0.18890  0.74486  1.0000 -0.4005149488
N   N47       1.0  0.90240  0.81940  0.74140  1.0000 -0.2603160065
N   N48       1.0  0.89330  0.06560  0.92220  1.0000 -0.2397167195
O   O1        1.0  0.43570  0.39360  0.46999  1.0000 -0.5703472554
O   O2        1.0  0.50180  0.31490  0.43503  1.0000 -0.5703472554
O   O3        1.0  0.14730  0.21350  0.47320  1.0000 -0.5514104028
O   O4        1.0  0.19760  0.05810  0.52235  1.0000 -0.5514104028
O   O5        1.0  0.54460  0.29780  0.02430  1.0000 -0.5579544862
O   O6        1.0  0.47050  0.38750  0.04751  1.0000 -0.5703472554
O   O7        1.0  0.18600  0.99200  0.98730  1.0000 -0.5579544862
O   O8        1.0  0.18720  0.14690  0.03910  1.0000 -0.5442903299
O   O9        1.0  0.06430  0.89360  0.53001  1.0000 -0.5703472554
O   O10       1.0  0.99820  0.81490  0.56497  1.0000 -0.5703472554
O   O11       1.0  0.35270  0.71350  0.52680  1.0000 -0.5514104028
O   O12       1.0  0.30240  0.55810  0.47765  1.0000 -0.5514104028
O   O13       1.0  0.95540  0.79780  0.97570  1.0000 -0.5579544862
O   O14       1.0  0.02950  0.88750  0.95249  1.0000 -0.5703472554
O   O15       1.0  0.31400  0.49200  0.01270  1.0000 -0.5579544862
O   O16       1.0  0.31280  0.64690  0.96090  1.0000 -0.5442903299
O   O17       1.0  0.56430  0.60640  0.53001  1.0000 -0.5703472554
O   O18       1.0  0.49820  0.68510  0.56497  1.0000 -0.5703472554
O   O19       1.0  0.85270  0.78650  0.52680  1.0000 -0.5514104028
O   O20       1.0  0.80240  0.94190  0.47765  1.0000 -0.5514104028
O   O21       1.0  0.45540  0.70220  0.97570  1.0000 -0.5579544862
O   O22       1.0  0.52950  0.61250  0.95249  1.0000 -0.5703472554
O   O23       1.0  0.81400  0.00800  0.01270  1.0000 -0.5579544862
O   O24       1.0  0.81280  0.85310  0.96090  1.0000 -0.5442903299
O   O25       1.0  0.93570  0.10640  0.46999  1.0000 -0.5703472554
O   O26       1.0  0.00180  0.18510  0.43503  1.0000 -0.5703472554
O   O27       1.0  0.64730  0.28650  0.47320  1.0000 -0.5514104028
O   O28       1.0  0.69760  0.44190  0.52235  1.0000 -0.5514104028
O   O29       1.0  0.04460  0.20220  0.02430  1.0000 -0.5579544862
O   O30       1.0  0.97050  0.11250  0.04751  1.0000 -0.5703472554
O   O31       1.0  0.68600  0.50800  0.98730  1.0000 -0.5579544862
O   O32       1.0  0.68720  0.35310  0.03910  1.0000 -0.5442903299
