# DDEC6 charges by PACMAN v1.1 (https://github.com/mtap-research/PACMAN-charge/)
data_2019[La][nan]3[FSR]2
_chemical_formula_sum              "La4 H20 C28 S2 N4 O28"
_cell_length_a       13.4478
_cell_length_b       13.4478
_cell_length_c       8.9532
_cell_angle_alpha    74.223
_cell_angle_beta     105.777
_cell_angle_gamma    116.734

_symmetry_space_group_name_H-M    "P 1"
_symmetry_Int_Tables_number       1

loop_
  _symmetry_equiv_pos_as_xyz
  'x, y, z'

loop_
  _atom_site_type_symbol
  _atom_site_label
  _atom_site_symmetry_multiplicity
  _atom_site_fract_x
  _atom_site_fract_y
  _atom_site_fract_z
  _atom_site_occupancy
  _atom_site_charge
La  La1       1.0  0.06969  0.80841  0.09692  1.0000 1.8875943797
La  La2       1.0  0.80841  0.06969  0.40308  1.0000 1.8875943797
La  La3       1.0  0.93031  0.19159  0.90308  1.0000 1.8875943797
La  La4       1.0  0.19159  0.93031  0.59692  1.0000 1.8875943797
H   H1        1.0  0.81630  0.68662  0.03967  1.0000 0.3695960792
H   H2        1.0  0.85094  0.59928  0.07492  1.0000 0.3434588018
H   H3        1.0  0.52443  0.18449  0.86613  1.0000 0.1392638425
H   H4        1.0  0.51686  0.01760  0.38348  1.0000 0.1036021227
H   H5        1.0  0.35690  0.11726  0.96475  1.0000 0.1392638425
H   H6        1.0  0.68662  0.81630  0.46033  1.0000 0.3695960792
H   H7        1.0  0.59928  0.85094  0.42508  1.0000 0.3434588018
H   H8        1.0  0.18449  0.52443  0.63387  1.0000 0.1392638425
H   H9        1.0  0.01760  0.51686  0.11652  1.0000 0.1036021227
H   H10       1.0  0.11726  0.35690  0.53525  1.0000 0.1392638425
H   H11       1.0  0.18370  0.31338  0.96033  1.0000 0.3695960792
H   H12       1.0  0.14906  0.40072  0.92508  1.0000 0.3434588018
H   H13       1.0  0.47557  0.81551  0.13387  1.0000 0.1392638425
H   H14       1.0  0.48314  0.98240  0.61652  1.0000 0.1036021227
H   H15       1.0  0.64310  0.88274  0.03525  1.0000 0.1392638425
H   H16       1.0  0.31338  0.18370  0.53967  1.0000 0.3695960792
H   H17       1.0  0.40072  0.14906  0.57492  1.0000 0.3434588018
H   H18       1.0  0.81551  0.47557  0.36613  1.0000 0.1392638425
H   H19       1.0  0.98240  0.48314  0.88348  1.0000 0.1036021227
H   H20       1.0  0.88274  0.64310  0.46475  1.0000 0.1392638425
C   C1        1.0  0.31399  0.01161  0.25689  1.0000 0.6085081177
C   C2        1.0  0.41935  0.05885  0.18635  1.0000 -0.0681373847
C   C3        1.0  0.61114  0.12926  0.06744  1.0000 0.1106379873
C   C4        1.0  0.71701  0.15639  0.00801  1.0000 0.5432105738
C   C5        1.0  0.51997  0.14743  0.96977  1.0000 -0.1381408793
C   C6        1.0  0.51700  0.04860  0.27710  1.0000 0.0713817554
C   C7        1.0  0.42083  0.10917  0.02923  1.0000 -0.0496549679
C   C8        1.0  0.01161  0.31399  0.24311  1.0000 0.6085081177
C   C9        1.0  0.05885  0.41935  0.31365  1.0000 -0.0681373847
C   C10       1.0  0.12926  0.61114  0.43256  1.0000 0.1106379873
C   C11       1.0  0.15639  0.71701  0.49199  1.0000 0.5432105738
C   C12       1.0  0.14743  0.51997  0.53023  1.0000 -0.1381408793
C   C13       1.0  0.04860  0.51700  0.22290  1.0000 0.0713817554
C   C14       1.0  0.10917  0.42083  0.47077  1.0000 -0.0496549679
C   C15       1.0  0.68601  0.98839  0.74311  1.0000 0.6085081177
C   C16       1.0  0.58065  0.94115  0.81365  1.0000 -0.0681373847
C   C17       1.0  0.38886  0.87074  0.93256  1.0000 0.1106379873
C   C18       1.0  0.28299  0.84361  0.99199  1.0000 0.5432105738
C   C19       1.0  0.48003  0.85257  0.03023  1.0000 -0.1381408793
C   C20       1.0  0.48300  0.95140  0.72290  1.0000 0.0713817554
C   C21       1.0  0.57917  0.89083  0.97077  1.0000 -0.0496549679
C   C22       1.0  0.98839  0.68601  0.75689  1.0000 0.6085081177
C   C23       1.0  0.94115  0.58065  0.68635  1.0000 -0.0681373847
C   C24       1.0  0.87074  0.38886  0.56744  1.0000 0.1106379873
C   C25       1.0  0.84361  0.28299  0.50801  1.0000 0.5432105738
C   C26       1.0  0.85257  0.48003  0.46977  1.0000 -0.1381408793
C   C27       1.0  0.95140  0.48300  0.77710  1.0000 0.0713817554
C   C28       1.0  0.89083  0.57917  0.52923  1.0000 -0.0496549679
S   S1        1.0  0.02284  0.02284  0.75000  1.0000 1.5183233099
S   S2        1.0  0.97716  0.97716  0.25000  1.0000 1.5183233099
N   N1        1.0  0.61096  0.08064  0.22076  1.0000 -0.3164303226
N   N2        1.0  0.08064  0.61096  0.27924  1.0000 -0.3164303226
N   N3        1.0  0.38904  0.91936  0.77924  1.0000 -0.3164303226
N   N4        1.0  0.91936  0.38904  0.72076  1.0000 -0.3164303226
O   O1        1.0  0.72850  0.20390  0.86960  1.0000 -0.542120747
O   O2        1.0  0.22168  0.99008  0.16240  1.0000 -0.595847897
O   O3        1.0  0.79083  0.12675  0.10494  1.0000 -0.6271349561
O   O4        1.0  0.12609  0.04303  0.69783  1.0000 -0.6989746091
O   O5        1.0  0.99776  0.92544  0.87916  1.0000 -0.7159638328
O   O6        1.0  0.32609  0.99743  0.40373  1.0000 -0.6247615141
O   O7        1.0  0.86432  0.66108  0.10832  1.0000 -0.6989746091
O   O8        1.0  0.20390  0.72850  0.63040  1.0000 -0.542120747
O   O9        1.0  0.99008  0.22168  0.33760  1.0000 -0.5949227733
O   O10       1.0  0.12675  0.79083  0.39506  1.0000 -0.6271349561
O   O11       1.0  0.04303  0.12609  0.80217  1.0000 -0.6989746091
O   O12       1.0  0.92544  0.99776  0.62084  1.0000 -0.7159638328
O   O13       1.0  0.99743  0.32609  0.09627  1.0000 -0.6247615141
O   O14       1.0  0.66108  0.86432  0.39168  1.0000 -0.6989746091
O   O15       1.0  0.27150  0.79610  0.13040  1.0000 -0.542120747
O   O16       1.0  0.77832  0.00992  0.83760  1.0000 -0.5949227733
O   O17       1.0  0.20917  0.87325  0.89506  1.0000 -0.6271349561
O   O18       1.0  0.87391  0.95697  0.30217  1.0000 -0.6989746091
O   O19       1.0  0.00224  0.07456  0.12084  1.0000 -0.7159638328
O   O20       1.0  0.67391  0.00257  0.59627  1.0000 -0.6247615141
O   O21       1.0  0.13568  0.33892  0.89168  1.0000 -0.6989746091
O   O22       1.0  0.79610  0.27150  0.36960  1.0000 -0.542120747
O   O23       1.0  0.00992  0.77832  0.66240  1.0000 -0.595847897
O   O24       1.0  0.87325  0.20917  0.60494  1.0000 -0.6271349561
O   O25       1.0  0.95697  0.87391  0.19783  1.0000 -0.6989746091
O   O26       1.0  0.07456  0.00224  0.37916  1.0000 -0.7159638328
O   O27       1.0  0.00257  0.67391  0.90373  1.0000 -0.6247615141
O   O28       1.0  0.33892  0.13568  0.60832  1.0000 -0.6989746091
