# DDEC6 charges by PACMAN v1.1 (https://github.com/mtap-research/PACMAN-charge/)
data_2019[Zn][pts]3[FSR]6
_chemical_formula_sum              "Zn8 H76 C80 N4 O44"
_cell_length_a       14.1033
_cell_length_b       13.4755
_cell_length_c       21.7069
_cell_angle_alpha    90
_cell_angle_beta     125.043
_cell_angle_gamma    90

_symmetry_space_group_name_H-M    "P 1"
_symmetry_Int_Tables_number       1

loop_
  _symmetry_equiv_pos_as_xyz
  'x, y, z'

loop_
  _atom_site_type_symbol
  _atom_site_label
  _atom_site_symmetry_multiplicity
  _atom_site_fract_x
  _atom_site_fract_y
  _atom_site_fract_z
  _atom_site_occupancy
  _atom_site_charge
Zn  Zn1       1.0  0.71347  0.45048  0.72436  1.0000 0.9042543194
Zn  Zn2       1.0  0.78288  0.30325  0.86458  1.0000 0.9845412494
Zn  Zn3       1.0  0.28653  0.95048  0.77564  1.0000 0.9042543194
Zn  Zn4       1.0  0.21712  0.80325  0.63542  1.0000 0.9845412494
Zn  Zn5       1.0  0.28653  0.54952  0.27564  1.0000 0.9042543194
Zn  Zn6       1.0  0.21712  0.69675  0.13542  1.0000 0.9845412494
Zn  Zn7       1.0  0.71347  0.04952  0.22436  1.0000 0.9042543194
Zn  Zn8       1.0  0.78288  0.19675  0.36458  1.0000 0.9852294049
H   H1        1.0  0.20120  0.42820  0.01430  1.0000 0.1203421208
H   H2        1.0  0.39500  0.18700  0.04420  1.0000 0.1203421208
H   H3        1.0  0.48120  0.35770  0.22300  1.0000 0.1327591619
H   H4        1.0  0.06400  0.35810  0.91590  1.0000 0.1203421208
H   H5        1.0  0.30580  0.18150  0.92680  1.0000 0.1203421208
H   H6        1.0  0.75940  0.26430  0.07150  1.0000 0.1483636966
H   H7        1.0  0.85360  0.27800  0.05320  1.0000 0.1601971111
H   H8        1.0  0.74850  0.35490  0.02010  1.0000 0.1707436165
H   H9        1.0  0.56610  0.07620  0.01020  1.0000 0.1327591619
H   H10       1.0  0.69490  0.11570  0.07030  1.0000 0.1483636966
H   H11       1.0  0.58800  0.19120  0.03260  1.0000 0.1327591619
H   H12       1.0  0.51940  0.04080  0.90440  1.0000 0.1327591619
H   H13       1.0  0.50930  0.13090  0.85290  1.0000 0.1483636966
H   H14       1.0  0.61420  0.05370  0.88660  1.0000 0.135752233
H   H15       1.0  0.98360  0.20200  0.73260  1.0000 0.1327591619
H   H16       1.0  0.96680  0.35300  0.99980  1.0000 0.3190908975
H   H17       1.0  0.96900  0.25900  0.99100  1.0000 0.2830920092
H   H18       1.0  0.87400  0.14100  0.89700  1.0000 0.3260461411
H   H19       1.0  0.78600  0.13000  0.82400  1.0000 0.3502225748
H   H20       1.0  0.79880  0.92820  0.48570  1.0000 0.1203421208
H   H21       1.0  0.60500  0.68700  0.45580  1.0000 0.1203421208
H   H22       1.0  0.51880  0.85770  0.27700  1.0000 0.1327591619
H   H23       1.0  0.93600  0.85810  0.58410  1.0000 0.1203421208
H   H24       1.0  0.69420  0.68150  0.57320  1.0000 0.1203421208
H   H25       1.0  0.24060  0.76430  0.42850  1.0000 0.1483636966
H   H26       1.0  0.14640  0.77800  0.44680  1.0000 0.1601971111
H   H27       1.0  0.25150  0.85490  0.47990  1.0000 0.1707436165
H   H28       1.0  0.43390  0.57620  0.48980  1.0000 0.1327591619
H   H29       1.0  0.30510  0.61570  0.42970  1.0000 0.1483636966
H   H30       1.0  0.41200  0.69120  0.46740  1.0000 0.1327591619
H   H31       1.0  0.48060  0.54080  0.59560  1.0000 0.1327591619
H   H32       1.0  0.49070  0.63090  0.64710  1.0000 0.1483636966
H   H33       1.0  0.38580  0.55370  0.61340  1.0000 0.135752233
H   H34       1.0  0.01640  0.70200  0.76740  1.0000 0.1327591619
H   H35       1.0  0.03320  0.85300  0.50020  1.0000 0.3190908975
H   H36       1.0  0.03100  0.75900  0.50900  1.0000 0.2830920092
H   H37       1.0  0.12600  0.64100  0.60300  1.0000 0.3260461411
H   H38       1.0  0.21400  0.63000  0.67600  1.0000 0.3502225748
H   H39       1.0  0.79880  0.57180  0.98570  1.0000 0.1203421208
H   H40       1.0  0.60500  0.81300  0.95580  1.0000 0.1203421208
H   H41       1.0  0.51880  0.64230  0.77700  1.0000 0.1327591619
H   H42       1.0  0.93600  0.64190  0.08410  1.0000 0.1203421208
H   H43       1.0  0.69420  0.81850  0.07320  1.0000 0.1203421208
H   H44       1.0  0.24060  0.73570  0.92850  1.0000 0.1483636966
H   H45       1.0  0.14640  0.72200  0.94680  1.0000 0.1601971111
H   H46       1.0  0.25150  0.64510  0.97990  1.0000 0.1707436165
H   H47       1.0  0.43390  0.92380  0.98980  1.0000 0.1327591619
H   H48       1.0  0.30510  0.88430  0.92970  1.0000 0.1483636966
H   H49       1.0  0.41200  0.80880  0.96740  1.0000 0.1327591619
H   H50       1.0  0.48060  0.95920  0.09560  1.0000 0.1327591619
H   H51       1.0  0.49070  0.86910  0.14710  1.0000 0.1483636966
H   H52       1.0  0.38580  0.94630  0.11340  1.0000 0.135752233
H   H53       1.0  0.01640  0.79800  0.26740  1.0000 0.1327591619
H   H54       1.0  0.03320  0.64700  0.00020  1.0000 0.3190908975
H   H55       1.0  0.03100  0.74100  0.00900  1.0000 0.2830920092
H   H56       1.0  0.12600  0.85900  0.10300  1.0000 0.3260461411
H   H57       1.0  0.21400  0.87000  0.17600  1.0000 0.3502225748
H   H58       1.0  0.20120  0.07180  0.51430  1.0000 0.1203421208
H   H59       1.0  0.39500  0.31300  0.54420  1.0000 0.1203421208
H   H60       1.0  0.48120  0.14230  0.72300  1.0000 0.1327591619
H   H61       1.0  0.06400  0.14190  0.41590  1.0000 0.1203421208
H   H62       1.0  0.30580  0.31850  0.42680  1.0000 0.1203421208
H   H63       1.0  0.75940  0.23570  0.57150  1.0000 0.1483636966
H   H64       1.0  0.85360  0.22200  0.55320  1.0000 0.1601971111
H   H65       1.0  0.74850  0.14510  0.52010  1.0000 0.1707436165
H   H66       1.0  0.56610  0.42380  0.51020  1.0000 0.1327591619
H   H67       1.0  0.69490  0.38430  0.57030  1.0000 0.1483636966
H   H68       1.0  0.58800  0.30880  0.53260  1.0000 0.1327591619
H   H69       1.0  0.51940  0.45920  0.40440  1.0000 0.1327591619
H   H70       1.0  0.50930  0.36910  0.35290  1.0000 0.1483636966
H   H71       1.0  0.61420  0.44630  0.38660  1.0000 0.135752233
H   H72       1.0  0.98360  0.29800  0.23260  1.0000 0.1327591619
H   H73       1.0  0.96680  0.14700  0.49980  1.0000 0.3190908975
H   H74       1.0  0.96900  0.24100  0.49100  1.0000 0.2830920092
H   H75       1.0  0.87400  0.35900  0.39700  1.0000 0.3260461411
H   H76       1.0  0.78600  0.37000  0.32400  1.0000 0.3502225748
C   C1        1.0  0.18042  0.10375  0.78853  1.0000 0.5501582942
C   C2        1.0  0.15067  0.18155  0.82450  1.0000 -0.0020175797
C   C3        1.0  0.56226  0.20262  0.19007  1.0000 0.5863804689
C   C4        1.0  0.30799  0.48751  0.15585  1.0000 0.603642734
C   C5        1.0  0.33655  0.40410  0.12332  1.0000 -0.0141689448
C   C6        1.0  0.26394  0.38475  0.04628  1.0000 -0.1574837221
C   C7        1.0  0.28281  0.30187  0.01571  1.0000 0.0689434579
C   C8        1.0  0.38013  0.24312  0.06391  1.0000 -0.1497830206
C   C9        1.0  0.45589  0.26514  0.14035  1.0000 -0.0141689448
C   C10       1.0  0.43235  0.34439  0.17057  1.0000 -0.1165455987
C   C11       1.0  0.19959  0.27548  0.93473  1.0000 0.0689434579
C   C12       1.0  0.08714  0.31395  0.89273  1.0000 -0.1497830206
C   C13       1.0  0.00844  0.28854  0.81741  1.0000 -0.0153612835
C   C14       1.0  0.04051  0.22303  0.78294  1.0000 -0.1082808448
C   C15       1.0  0.22991  0.20872  0.89934  1.0000 -0.1414515132
C   C16       1.0  0.89001  0.33297  0.77172  1.0000 0.5762166104
C   C17       1.0  0.69948  0.22172  0.96413  1.0000 0.5223334751
C   C18       1.0  0.77157  0.28530  0.03327  1.0000 -0.5903105967
C   C19       1.0  0.61940  0.13200  0.02410  1.0000 -0.3389262834
C   C20       1.0  0.56320  0.08900  0.89630  1.0000 -0.3275181928
C   C21       1.0  0.81958  0.60375  0.71147  1.0000 0.5501582942
C   C22       1.0  0.84933  0.68155  0.67550  1.0000 -0.0020175797
C   C23       1.0  0.43774  0.70262  0.30993  1.0000 0.5863804689
C   C24       1.0  0.69201  0.98751  0.34415  1.0000 0.603642734
C   C25       1.0  0.66345  0.90410  0.37668  1.0000 -0.0141689448
C   C26       1.0  0.73606  0.88475  0.45372  1.0000 -0.1574837221
C   C27       1.0  0.71719  0.80187  0.48429  1.0000 0.0689434579
C   C28       1.0  0.61987  0.74312  0.43609  1.0000 -0.1497830206
C   C29       1.0  0.54411  0.76514  0.35965  1.0000 -0.0141689448
C   C30       1.0  0.56765  0.84439  0.32943  1.0000 -0.1165455987
C   C31       1.0  0.80041  0.77548  0.56527  1.0000 0.0689434579
C   C32       1.0  0.91286  0.81395  0.60727  1.0000 -0.1497830206
C   C33       1.0  0.99156  0.78854  0.68259  1.0000 -0.0153612835
C   C34       1.0  0.95949  0.72303  0.71706  1.0000 -0.1082808448
C   C35       1.0  0.77009  0.70872  0.60066  1.0000 -0.1414515132
C   C36       1.0  0.10999  0.83297  0.72828  1.0000 0.5762166104
C   C37       1.0  0.30052  0.72172  0.53587  1.0000 0.5223334751
C   C38       1.0  0.22843  0.78530  0.46673  1.0000 -0.5903105967
C   C39       1.0  0.38060  0.63200  0.47590  1.0000 -0.3389262834
C   C40       1.0  0.43680  0.58900  0.60370  1.0000 -0.3275181928
C   C41       1.0  0.81958  0.89625  0.21147  1.0000 0.5501582942
C   C42       1.0  0.84933  0.81845  0.17550  1.0000 -0.0020175797
C   C43       1.0  0.43774  0.79738  0.80993  1.0000 0.5863804689
C   C44       1.0  0.69201  0.51249  0.84415  1.0000 0.603642734
C   C45       1.0  0.66345  0.59590  0.87668  1.0000 -0.0141689448
C   C46       1.0  0.73606  0.61525  0.95372  1.0000 -0.1574837221
C   C47       1.0  0.71719  0.69813  0.98429  1.0000 0.0689434579
C   C48       1.0  0.61987  0.75688  0.93609  1.0000 -0.1497830206
C   C49       1.0  0.54411  0.73486  0.85965  1.0000 -0.0141689448
C   C50       1.0  0.56765  0.65561  0.82943  1.0000 -0.1165455987
C   C51       1.0  0.80041  0.72452  0.06527  1.0000 0.0689434579
C   C52       1.0  0.91286  0.68605  0.10727  1.0000 -0.1574837221
C   C53       1.0  0.99156  0.71146  0.18259  1.0000 -0.0153612835
C   C54       1.0  0.95949  0.77697  0.21706  1.0000 -0.1082808448
C   C55       1.0  0.77009  0.79128  0.10066  1.0000 -0.1414515132
C   C56       1.0  0.10999  0.66703  0.22828  1.0000 0.5762166104
C   C57       1.0  0.30052  0.77828  0.03587  1.0000 0.5223334751
C   C58       1.0  0.22843  0.71470  0.96673  1.0000 -0.5903105967
C   C59       1.0  0.38060  0.86800  0.97590  1.0000 -0.3389262834
C   C60       1.0  0.43680  0.91100  0.10370  1.0000 -0.3275181928
C   C61       1.0  0.18042  0.39625  0.28853  1.0000 0.5501582942
C   C62       1.0  0.15067  0.31845  0.32450  1.0000 -0.0020175797
C   C63       1.0  0.56226  0.29738  0.69007  1.0000 0.5863804689
C   C64       1.0  0.30799  0.01249  0.65585  1.0000 0.603642734
C   C65       1.0  0.33655  0.09590  0.62332  1.0000 -0.0153612835
C   C66       1.0  0.26394  0.11525  0.54628  1.0000 -0.1574837221
C   C67       1.0  0.28281  0.19813  0.51571  1.0000 0.0689434579
C   C68       1.0  0.38013  0.25688  0.56391  1.0000 -0.1497830206
C   C69       1.0  0.45589  0.23486  0.64035  1.0000 -0.0141689448
C   C70       1.0  0.43235  0.15561  0.67057  1.0000 -0.1165455987
C   C71       1.0  0.19959  0.22452  0.43473  1.0000 0.0689434579
C   C72       1.0  0.08714  0.18605  0.39273  1.0000 -0.1574837221
C   C73       1.0  0.00844  0.21146  0.31741  1.0000 -0.0153612835
C   C74       1.0  0.04051  0.27697  0.28294  1.0000 -0.1082808448
C   C75       1.0  0.22991  0.29128  0.39934  1.0000 -0.1414515132
C   C76       1.0  0.89001  0.16703  0.27172  1.0000 0.5762166104
C   C77       1.0  0.69948  0.27828  0.46413  1.0000 0.5223334751
C   C78       1.0  0.77157  0.21470  0.53327  1.0000 -0.5903105967
C   C79       1.0  0.61940  0.36800  0.52410  1.0000 -0.3389262834
C   C80       1.0  0.56320  0.41100  0.39630  1.0000 -0.3275181928
N   N1        1.0  0.63314  0.15118  0.96342  1.0000 0.0011022424
N   N2        1.0  0.36686  0.65118  0.53658  1.0000 0.0011022424
N   N3        1.0  0.36686  0.84882  0.03658  1.0000 0.0011022424
N   N4        1.0  0.63314  0.34882  0.46342  1.0000 0.0011022424
O   O1        1.0  0.27431  0.05539  0.83255  1.0000 -0.5445389429
O   O2        1.0  0.11338  0.08847  0.72042  1.0000 -0.5230261961
O   O3        1.0  0.57901  0.13405  0.15723  1.0000 -0.5269400531
O   O4        1.0  0.62582  0.22279  0.25860  1.0000 -0.5735397318
O   O5        1.0  0.83937  0.16531  0.85673  1.0000 -0.5903105967
O   O6        1.0  0.24684  0.55753  0.11286  1.0000 -0.5590608397
O   O7        1.0  0.85029  0.37316  0.80702  1.0000 -0.5903105967
O   O8        1.0  0.34669  0.47940  0.22416  1.0000 -0.5269400531
O   O9        1.0  0.94587  0.31315  0.96912  1.0000 -0.5957256236
O   O10       1.0  0.70097  0.23485  0.90829  1.0000 -0.5590608397
O   O11       1.0  0.83451  0.33528  0.70267  1.0000 -0.4869614073
O   O12       1.0  0.72569  0.55539  0.66745  1.0000 -0.5445389429
O   O13       1.0  0.88662  0.58847  0.77958  1.0000 -0.5230261961
O   O14       1.0  0.42099  0.63405  0.34277  1.0000 -0.5269400531
O   O15       1.0  0.37418  0.72279  0.24140  1.0000 -0.5735397318
O   O16       1.0  0.16063  0.66531  0.64327  1.0000 -0.5903105967
O   O17       1.0  0.75316  0.05753  0.38714  1.0000 -0.5590608397
O   O18       1.0  0.14971  0.87316  0.69298  1.0000 -0.5903105967
O   O19       1.0  0.65331  0.97940  0.27584  1.0000 -0.5269400531
O   O20       1.0  0.05413  0.81315  0.53088  1.0000 -0.5957256236
O   O21       1.0  0.29903  0.73485  0.59171  1.0000 -0.5590608397
O   O22       1.0  0.16549  0.83528  0.79733  1.0000 -0.4869614073
O   O23       1.0  0.72569  0.94461  0.16745  1.0000 -0.5445389429
O   O24       1.0  0.88662  0.91153  0.27958  1.0000 -0.5230261961
O   O25       1.0  0.42099  0.86595  0.84277  1.0000 -0.5269400531
O   O26       1.0  0.37418  0.77721  0.74140  1.0000 -0.5735397318
O   O27       1.0  0.16063  0.83469  0.14327  1.0000 -0.5903105967
O   O28       1.0  0.75316  0.44247  0.88714  1.0000 -0.5590608397
O   O29       1.0  0.14971  0.62684  0.19298  1.0000 -0.5903105967
O   O30       1.0  0.65331  0.52060  0.77584  1.0000 -0.5269400531
O   O31       1.0  0.05413  0.68685  0.03088  1.0000 -0.5903105967
O   O32       1.0  0.29903  0.76515  0.09171  1.0000 -0.5590608397
O   O33       1.0  0.16549  0.66472  0.29733  1.0000 -0.4869614073
O   O34       1.0  0.27431  0.44461  0.33255  1.0000 -0.5450774708
O   O35       1.0  0.11338  0.41153  0.22042  1.0000 -0.5230261961
O   O36       1.0  0.57901  0.36595  0.65723  1.0000 -0.5269400531
O   O37       1.0  0.62582  0.27721  0.75860  1.0000 -0.5735397318
O   O38       1.0  0.83937  0.33469  0.35673  1.0000 -0.5835039297
O   O39       1.0  0.24684  0.94247  0.61286  1.0000 -0.5590608397
O   O40       1.0  0.85029  0.12684  0.30702  1.0000 -0.5903105967
O   O41       1.0  0.34669  0.02060  0.72416  1.0000 -0.5269400531
O   O42       1.0  0.94587  0.18685  0.46912  1.0000 -0.5903105967
O   O43       1.0  0.70097  0.26515  0.40829  1.0000 -0.5590608397
O   O44       1.0  0.83451  0.16472  0.20267  1.0000 -0.4869614073
