# DDEC6 charges by PACMAN v1.1 (https://github.com/mtap-research/PACMAN-charge/)
data_2019[Zn][pcu]3[FSR]7
_chemical_formula_sum              "Zn12 H516 C492 N24 O56"
_cell_length_a       27.8771
_cell_length_b       27.8771
_cell_length_c       27.8048
_cell_angle_alpha    90
_cell_angle_beta     90
_cell_angle_gamma    90

_symmetry_space_group_name_H-M    "P 1"
_symmetry_Int_Tables_number       1

loop_
  _symmetry_equiv_pos_as_xyz
  'x, y, z'

loop_
  _atom_site_type_symbol
  _atom_site_label
  _atom_site_symmetry_multiplicity
  _atom_site_fract_x
  _atom_site_fract_y
  _atom_site_fract_z
  _atom_site_occupancy
  _atom_site_charge
Zn  Zn1       1.0  0.33696  0.52420  0.28634  1.0000 0.922847297
Zn  Zn2       1.0  0.47580  0.66304  0.21366  1.0000 0.922847297
Zn  Zn3       1.0  0.37211  0.62789  0.25000  1.0000 0.9599733762
Zn  Zn4       1.0  0.66304  0.47580  0.78634  1.0000 0.922847297
Zn  Zn5       1.0  0.52420  0.33696  0.71366  1.0000 0.922847297
Zn  Zn6       1.0  0.62789  0.37211  0.75000  1.0000 0.9599733762
Zn  Zn7       1.0  0.97580  0.83696  0.53634  1.0000 0.922847297
Zn  Zn8       1.0  0.83696  0.97580  0.46366  1.0000 0.922847297
Zn  Zn9       1.0  0.87211  0.87211  0.50000  1.0000 0.9599733762
Zn  Zn10      1.0  0.02420  0.16304  0.03634  1.0000 0.922847297
Zn  Zn11      1.0  0.16304  0.02420  0.96366  1.0000 0.922847297
Zn  Zn12      1.0  0.12789  0.12789  0.00000  1.0000 0.9599733762
H   H1        1.0  0.38308  0.36435  0.22159  1.0000 0.128758138
H   H2        1.0  0.42307  0.79482  0.15992  1.0000 0.128758138
H   H3        1.0  0.53935  0.45160  0.70626  1.0000 0.1545195552
H   H4        1.0  0.32524  0.24445  0.13159  1.0000 0.1197371613
H   H5        1.0  0.24558  0.40433  0.23260  1.0000 0.1197371613
H   H6        1.0  0.45891  0.59471  0.50660  1.0000 0.1197371613
H   H7        1.0  0.29178  0.73897  0.18336  1.0000 0.1197371613
H   H8        1.0  0.21210  0.24874  0.22068  1.0000 0.128758138
H   H9        1.0  0.39522  0.46468  0.50865  1.0000 0.1197371613
H   H10       1.0  0.43986  0.60289  0.42580  1.0000 0.1197371613
H   H11       1.0  0.25723  0.81301  0.16755  1.0000 0.1197371613
H   H12       1.0  0.28319  0.07486  0.17913  1.0000 0.128758138
H   H13       1.0  0.38799  0.86890  0.14386  1.0000 0.1197371613
H   H14       1.0  0.37546  0.47356  0.42806  1.0000 0.128758138
H   H15       1.0  0.30415  0.20197  0.03478  1.0000 0.128758138
H   H16       1.0  0.30923  0.14672  0.01999  1.0000 0.128758138
H   H17       1.0  0.26062  0.16570  0.04398  1.0000 0.128758138
H   H18       1.0  0.16713  0.13088  0.19147  1.0000 0.0859356989
H   H19       1.0  0.35920  0.28913  0.19335  1.0000 0.1197371613
H   H20       1.0  0.31107  0.12251  0.09739  1.0000 0.0697793046
H   H21       1.0  0.50389  0.56324  0.56382  1.0000 0.1197371613
H   H22       1.0  0.38945  0.47924  0.58706  1.0000 0.1197371613
H   H23       1.0  0.24622  0.88948  0.20009  1.0000 0.1197371613
H   H24       1.0  0.17898  0.11751  0.08938  1.0000 0.1545195552
H   H25       1.0  0.22107  0.32962  0.20474  1.0000 0.1197371613
H   H26       1.0  0.34153  0.91860  0.09495  1.0000 0.1197371613
H   H27       1.0  0.54593  0.56504  0.68547  1.0000 0.0803996992
H   H28       1.0  0.15243  0.13837  0.27469  1.0000 0.1197371613
H   H29       1.0  0.20779  0.12840  0.26319  1.0000 0.1121856973
H   H30       1.0  0.19040  0.18138  0.27690  1.0000 0.1121856973
H   H31       1.0  0.59021  0.53847  0.59661  1.0000 0.1197371613
H   H32       1.0  0.61884  0.55491  0.64369  1.0000 0.128758138
H   H33       1.0  0.58909  0.50582  0.64394  1.0000 0.1387657238
H   H34       1.0  0.37908  0.16500  0.12877  1.0000 0.1197371613
H   H35       1.0  0.38572  0.14432  0.07550  1.0000 0.128758138
H   H36       1.0  0.37493  0.20014  0.08345  1.0000 0.1197371613
H   H37       1.0  0.13096  0.22053  0.22191  1.0000 0.1197371613
H   H38       1.0  0.12745  0.20260  0.16735  1.0000 0.128758138
H   H39       1.0  0.10057  0.17355  0.20903  1.0000 0.128758138
H   H40       1.0  0.54310  0.61963  0.59943  1.0000 0.1197371613
H   H41       1.0  0.51950  0.63454  0.64973  1.0000 0.128758138
H   H42       1.0  0.57662  0.63217  0.64443  1.0000 0.128758138
H   H43       1.0  0.17905  0.99823  0.19070  1.0000 0.0803996992
H   H44       1.0  0.42068  0.44788  0.70820  1.0000 0.0859356989
H   H45       1.0  0.18555  0.02950  0.08432  1.0000 0.1622877978
H   H46       1.0  0.18019  0.90957  0.24278  1.0000 0.128758138
H   H47       1.0  0.13558  0.94533  0.23765  1.0000 0.128758138
H   H48       1.0  0.15344  0.91504  0.19215  1.0000 0.128758138
H   H49       1.0  0.41751  0.39076  0.64720  1.0000 0.1387657238
H   H50       1.0  0.36980  0.38829  0.67911  1.0000 0.128758138
H   H51       1.0  0.36863  0.41349  0.62741  1.0000 0.1121856973
H   H52       1.0  0.29908  0.03941  0.07410  1.0000 0.0803996992
H   H53       1.0  0.24007  0.97070  0.26894  1.0000 0.128758138
H   H54       1.0  0.23832  0.02286  0.24496  1.0000 0.1197371613
H   H55       1.0  0.19344  0.00360  0.27522  1.0000 0.128758138
H   H56       1.0  0.33866  0.96092  0.02120  1.0000 0.1197371613
H   H57       1.0  0.28620  0.98265  0.01277  1.0000 0.1387657238
H   H58       1.0  0.33261  0.01431  0.00095  1.0000 0.128758138
H   H59       1.0  0.39017  0.99568  0.08608  1.0000 0.1197371613
H   H60       1.0  0.38048  0.04934  0.06807  1.0000 0.128758138
H   H61       1.0  0.36854  0.03460  0.12240  1.0000 0.1121856973
H   H62       1.0  0.33755  0.49374  0.66863  1.0000 0.1197371613
H   H63       1.0  0.33575  0.46084  0.71576  1.0000 0.1197371613
H   H64       1.0  0.36559  0.50989  0.71617  1.0000 0.1121856973
H   H65       1.0  0.63565  0.61692  0.27841  1.0000 0.128758138
H   H66       1.0  0.20518  0.57693  0.34008  1.0000 0.128758138
H   H67       1.0  0.54840  0.46065  0.79374  1.0000 0.1545195552
H   H68       1.0  0.75555  0.67476  0.36841  1.0000 0.1197371613
H   H69       1.0  0.59567  0.75442  0.26740  1.0000 0.1197371613
H   H70       1.0  0.40529  0.54109  0.99340  1.0000 0.1197371613
H   H71       1.0  0.26103  0.70822  0.31664  1.0000 0.1197371613
H   H72       1.0  0.75126  0.78790  0.27932  1.0000 0.128758138
H   H73       1.0  0.53532  0.60478  0.99135  1.0000 0.1197371613
H   H74       1.0  0.39711  0.56014  0.07420  1.0000 0.1197371613
H   H75       1.0  0.18699  0.74277  0.33245  1.0000 0.1197371613
H   H76       1.0  0.92514  0.71681  0.32087  1.0000 0.128758138
H   H77       1.0  0.13110  0.61201  0.35614  1.0000 0.1197371613
H   H78       1.0  0.52644  0.62454  0.07194  1.0000 0.128758138
H   H79       1.0  0.79803  0.69585  0.46522  1.0000 0.128758138
H   H80       1.0  0.85328  0.69077  0.48001  1.0000 0.128758138
H   H81       1.0  0.83430  0.73938  0.45602  1.0000 0.128758138
H   H82       1.0  0.86912  0.83287  0.30853  1.0000 0.0803996992
H   H83       1.0  0.71087  0.64080  0.30665  1.0000 0.1197371613
H   H84       1.0  0.87749  0.68893  0.40261  1.0000 0.0697793046
H   H85       1.0  0.43676  0.49611  0.93618  1.0000 0.1197371613
H   H86       1.0  0.52076  0.61055  0.91294  1.0000 0.1197371613
H   H87       1.0  0.11052  0.75378  0.29991  1.0000 0.1197371613
H   H88       1.0  0.88249  0.82102  0.41062  1.0000 0.1545195552
H   H89       1.0  0.67038  0.77893  0.29526  1.0000 0.1197371613
H   H90       1.0  0.08140  0.65847  0.40505  1.0000 0.1197371613
H   H91       1.0  0.43496  0.45407  0.81453  1.0000 0.0803996992
H   H92       1.0  0.86163  0.84757  0.22531  1.0000 0.1197371613
H   H93       1.0  0.87160  0.79221  0.23681  1.0000 0.1121856973
H   H94       1.0  0.81862  0.80960  0.22310  1.0000 0.1121856973
H   H95       1.0  0.46153  0.40979  0.90339  1.0000 0.1197371613
H   H96       1.0  0.44509  0.38116  0.85631  1.0000 0.128758138
H   H97       1.0  0.49418  0.41091  0.85606  1.0000 0.1387657238
H   H98       1.0  0.83500  0.62092  0.37123  1.0000 0.1197371613
H   H99       1.0  0.85568  0.61428  0.42450  1.0000 0.128758138
H   H100      1.0  0.79986  0.62507  0.41655  1.0000 0.1197371613
H   H101      1.0  0.77947  0.86904  0.27809  1.0000 0.1197371613
H   H102      1.0  0.79740  0.87255  0.33265  1.0000 0.128758138
H   H103      1.0  0.82645  0.89943  0.29097  1.0000 0.128758138
H   H104      1.0  0.38037  0.45690  0.90057  1.0000 0.1197371613
H   H105      1.0  0.36546  0.48050  0.85027  1.0000 0.128758138
H   H106      1.0  0.36783  0.42338  0.85557  1.0000 0.128758138
H   H107      1.0  0.00177  0.82095  0.30930  1.0000 0.0803996992
H   H108      1.0  0.55212  0.57932  0.79180  1.0000 0.0859356989
H   H109      1.0  0.97050  0.81445  0.41568  1.0000 0.1622877978
H   H110      1.0  0.09043  0.81981  0.25722  1.0000 0.128758138
H   H111      1.0  0.05467  0.86442  0.26235  1.0000 0.128758138
H   H112      1.0  0.08496  0.84656  0.30785  1.0000 0.128758138
H   H113      1.0  0.60924  0.58249  0.85280  1.0000 0.1387657238
H   H114      1.0  0.61171  0.63020  0.82089  1.0000 0.128758138
H   H115      1.0  0.58651  0.63137  0.87259  1.0000 0.1121856973
H   H116      1.0  0.96059  0.70092  0.42590  1.0000 0.0803996992
H   H117      1.0  0.02930  0.75993  0.23106  1.0000 0.128758138
H   H118      1.0  0.97714  0.76168  0.25504  1.0000 0.1197371613
H   H119      1.0  0.99640  0.80656  0.22478  1.0000 0.128758138
H   H120      1.0  0.03908  0.66134  0.47880  1.0000 0.1197371613
H   H121      1.0  0.01735  0.71380  0.48723  1.0000 0.1387657238
H   H122      1.0  0.98569  0.66739  0.49905  1.0000 0.128758138
H   H123      1.0  0.00432  0.60983  0.41392  1.0000 0.1197371613
H   H124      1.0  0.95066  0.61952  0.43193  1.0000 0.128758138
H   H125      1.0  0.96540  0.63146  0.37760  1.0000 0.1121856973
H   H126      1.0  0.50626  0.66245  0.83137  1.0000 0.1197371613
H   H127      1.0  0.53916  0.66425  0.78424  1.0000 0.1197371613
H   H128      1.0  0.49011  0.63441  0.78383  1.0000 0.1121856973
H   H129      1.0  0.44752  0.55248  0.75000  1.0000 0.1197371613
H   H130      1.0  0.61692  0.63565  0.72159  1.0000 0.128758138
H   H131      1.0  0.57693  0.20518  0.65992  1.0000 0.128758138
H   H132      1.0  0.46065  0.54840  0.20626  1.0000 0.1545195552
H   H133      1.0  0.67476  0.75555  0.63159  1.0000 0.1197371613
H   H134      1.0  0.75442  0.59567  0.73260  1.0000 0.1197371613
H   H135      1.0  0.54109  0.40529  0.00660  1.0000 0.1197371613
H   H136      1.0  0.70822  0.26103  0.68336  1.0000 0.1197371613
H   H137      1.0  0.78790  0.75126  0.72068  1.0000 0.128758138
H   H138      1.0  0.60478  0.53532  0.00865  1.0000 0.1197371613
H   H139      1.0  0.56014  0.39711  0.92580  1.0000 0.1197371613
H   H140      1.0  0.74277  0.18699  0.66755  1.0000 0.1197371613
H   H141      1.0  0.71681  0.92514  0.67913  1.0000 0.1197371613
H   H142      1.0  0.61201  0.13110  0.64386  1.0000 0.1197371613
H   H143      1.0  0.62454  0.52644  0.92806  1.0000 0.128758138
H   H144      1.0  0.69585  0.79803  0.53478  1.0000 0.128758138
H   H145      1.0  0.69077  0.85328  0.51999  1.0000 0.128758138
H   H146      1.0  0.73938  0.83430  0.54398  1.0000 0.128758138
H   H147      1.0  0.83287  0.86912  0.69147  1.0000 0.0859356989
H   H148      1.0  0.64080  0.71087  0.69335  1.0000 0.1197371613
H   H149      1.0  0.68893  0.87749  0.59739  1.0000 0.0697793046
H   H150      1.0  0.49611  0.43676  0.06382  1.0000 0.1197371613
H   H151      1.0  0.61055  0.52076  0.08706  1.0000 0.1197371613
H   H152      1.0  0.75378  0.11052  0.70009  1.0000 0.1197371613
H   H153      1.0  0.82102  0.88249  0.58938  1.0000 0.1545195552
H   H154      1.0  0.77893  0.67038  0.70474  1.0000 0.1197371613
H   H155      1.0  0.65847  0.08140  0.59495  1.0000 0.1197371613
H   H156      1.0  0.45407  0.43496  0.18547  1.0000 0.0803996992
H   H157      1.0  0.84757  0.86163  0.77469  1.0000 0.1197371613
H   H158      1.0  0.79221  0.87160  0.76319  1.0000 0.1121856973
H   H159      1.0  0.80960  0.81862  0.77690  1.0000 0.1121856973
H   H160      1.0  0.40979  0.46153  0.09661  1.0000 0.1197371613
H   H161      1.0  0.38116  0.44509  0.14369  1.0000 0.128758138
H   H162      1.0  0.41091  0.49418  0.14394  1.0000 0.1387657238
H   H163      1.0  0.62092  0.83500  0.62877  1.0000 0.1197371613
H   H164      1.0  0.61428  0.85568  0.57550  1.0000 0.128758138
H   H165      1.0  0.62507  0.79986  0.58345  1.0000 0.1197371613
H   H166      1.0  0.86904  0.77947  0.72191  1.0000 0.1197371613
H   H167      1.0  0.87255  0.79740  0.66735  1.0000 0.128758138
H   H168      1.0  0.89943  0.82645  0.70903  1.0000 0.128758138
H   H169      1.0  0.45690  0.38037  0.09943  1.0000 0.1197371613
H   H170      1.0  0.48050  0.36546  0.14973  1.0000 0.128758138
H   H171      1.0  0.42338  0.36783  0.14443  1.0000 0.128758138
H   H172      1.0  0.82095  0.00177  0.69070  1.0000 0.0803996992
H   H173      1.0  0.57932  0.55212  0.20820  1.0000 0.0859356989
H   H174      1.0  0.81445  0.97050  0.58432  1.0000 0.1622877978
H   H175      1.0  0.81981  0.09043  0.74278  1.0000 0.128758138
H   H176      1.0  0.86442  0.05467  0.73765  1.0000 0.128758138
H   H177      1.0  0.84656  0.08496  0.69215  1.0000 0.128758138
H   H178      1.0  0.58249  0.60924  0.14720  1.0000 0.1387657238
H   H179      1.0  0.63020  0.61171  0.17911  1.0000 0.128758138
H   H180      1.0  0.63137  0.58651  0.12741  1.0000 0.1121856973
H   H181      1.0  0.70092  0.96059  0.57410  1.0000 0.0803996992
H   H182      1.0  0.75993  0.02930  0.76894  1.0000 0.128758138
H   H183      1.0  0.76168  0.97714  0.74496  1.0000 0.1197371613
H   H184      1.0  0.80656  0.99640  0.77522  1.0000 0.128758138
H   H185      1.0  0.66134  0.03908  0.52120  1.0000 0.1197371613
H   H186      1.0  0.71380  0.01735  0.51277  1.0000 0.1387657238
H   H187      1.0  0.66739  0.98569  0.50095  1.0000 0.128758138
H   H188      1.0  0.60983  0.00432  0.58608  1.0000 0.1197371613
H   H189      1.0  0.61952  0.95066  0.56807  1.0000 0.128758138
H   H190      1.0  0.63146  0.96540  0.62240  1.0000 0.1121856973
H   H191      1.0  0.66245  0.50626  0.16863  1.0000 0.1197371613
H   H192      1.0  0.66425  0.53916  0.21576  1.0000 0.1197371613
H   H193      1.0  0.63441  0.49011  0.21617  1.0000 0.1121856973
H   H194      1.0  0.36435  0.38308  0.77841  1.0000 0.128758138
H   H195      1.0  0.79482  0.42307  0.84008  1.0000 0.128758138
H   H196      1.0  0.45160  0.53935  0.29374  1.0000 0.1545195552
H   H197      1.0  0.24445  0.32524  0.86841  1.0000 0.1197371613
H   H198      1.0  0.40433  0.24558  0.76740  1.0000 0.1197371613
H   H199      1.0  0.59471  0.45891  0.49340  1.0000 0.1197371613
H   H200      1.0  0.73897  0.29178  0.81664  1.0000 0.1197371613
H   H201      1.0  0.24874  0.21210  0.77932  1.0000 0.1197371613
H   H202      1.0  0.46468  0.39522  0.49135  1.0000 0.1197371613
H   H203      1.0  0.60289  0.43986  0.57420  1.0000 0.1197371613
H   H204      1.0  0.81301  0.25723  0.83245  1.0000 0.1197371613
H   H205      1.0  0.07486  0.28319  0.82087  1.0000 0.1197371613
H   H206      1.0  0.86890  0.38799  0.85614  1.0000 0.1197371613
H   H207      1.0  0.47356  0.37546  0.57194  1.0000 0.128758138
H   H208      1.0  0.20197  0.30415  0.96522  1.0000 0.128758138
H   H209      1.0  0.14672  0.30923  0.98001  1.0000 0.128758138
H   H210      1.0  0.16570  0.26062  0.95602  1.0000 0.128758138
H   H211      1.0  0.13088  0.16713  0.80853  1.0000 0.0859356989
H   H212      1.0  0.28913  0.35920  0.80665  1.0000 0.1197371613
H   H213      1.0  0.12251  0.31107  0.90261  1.0000 0.0697793046
H   H214      1.0  0.56324  0.50389  0.43618  1.0000 0.1197371613
H   H215      1.0  0.47924  0.38945  0.41294  1.0000 0.1197371613
H   H216      1.0  0.88948  0.24622  0.79991  1.0000 0.1197371613
H   H217      1.0  0.11751  0.17898  0.91062  1.0000 0.1545195552
H   H218      1.0  0.32962  0.22107  0.79526  1.0000 0.1197371613
H   H219      1.0  0.91860  0.34153  0.90505  1.0000 0.1197371613
H   H220      1.0  0.56504  0.54593  0.31453  1.0000 0.0803996992
H   H221      1.0  0.13837  0.15243  0.72531  1.0000 0.1197371613
H   H222      1.0  0.12840  0.20779  0.73681  1.0000 0.1121856973
H   H223      1.0  0.18138  0.19040  0.72310  1.0000 0.1121856973
H   H224      1.0  0.53847  0.59021  0.40339  1.0000 0.1197371613
H   H225      1.0  0.55491  0.61884  0.35631  1.0000 0.128758138
H   H226      1.0  0.50582  0.58909  0.35606  1.0000 0.1387657238
H   H227      1.0  0.16500  0.37908  0.87123  1.0000 0.1197371613
H   H228      1.0  0.14432  0.38572  0.92450  1.0000 0.128758138
H   H229      1.0  0.20014  0.37493  0.91655  1.0000 0.1197371613
H   H230      1.0  0.22053  0.13096  0.77809  1.0000 0.1197371613
H   H231      1.0  0.20260  0.12745  0.83265  1.0000 0.128758138
H   H232      1.0  0.17355  0.10057  0.79097  1.0000 0.128758138
H   H233      1.0  0.61963  0.54310  0.40057  1.0000 0.1197371613
H   H234      1.0  0.63454  0.51950  0.35027  1.0000 0.128758138
H   H235      1.0  0.63217  0.57662  0.35557  1.0000 0.128758138
H   H236      1.0  0.99823  0.17905  0.80930  1.0000 0.0803996992
H   H237      1.0  0.44788  0.42068  0.29180  1.0000 0.0859356989
H   H238      1.0  0.02950  0.18555  0.91568  1.0000 0.1622877978
H   H239      1.0  0.90957  0.18019  0.75722  1.0000 0.128758138
H   H240      1.0  0.94533  0.13558  0.76235  1.0000 0.128758138
H   H241      1.0  0.91504  0.15344  0.80785  1.0000 0.128758138
H   H242      1.0  0.39076  0.41751  0.35280  1.0000 0.1387657238
H   H243      1.0  0.38829  0.36980  0.32089  1.0000 0.128758138
H   H244      1.0  0.41349  0.36863  0.37259  1.0000 0.1121856973
H   H245      1.0  0.03941  0.29908  0.92590  1.0000 0.0803996992
H   H246      1.0  0.97070  0.24007  0.73106  1.0000 0.128758138
H   H247      1.0  0.02286  0.23832  0.75504  1.0000 0.1197371613
H   H248      1.0  0.00360  0.19344  0.72478  1.0000 0.128758138
H   H249      1.0  0.96092  0.33866  0.97880  1.0000 0.1197371613
H   H250      1.0  0.98265  0.28620  0.98723  1.0000 0.1387657238
H   H251      1.0  0.01431  0.33261  0.99905  1.0000 0.128758138
H   H252      1.0  0.99568  0.39017  0.91392  1.0000 0.1197371613
H   H253      1.0  0.04934  0.38048  0.93193  1.0000 0.128758138
H   H254      1.0  0.03460  0.36854  0.87760  1.0000 0.1121856973
H   H255      1.0  0.49374  0.33755  0.33137  1.0000 0.1197371613
H   H256      1.0  0.46084  0.33575  0.28424  1.0000 0.1197371613
H   H257      1.0  0.50989  0.36559  0.28383  1.0000 0.1121856973
H   H258      1.0  0.55248  0.44752  0.25000  1.0000 0.1197371613
H   H259      1.0  0.13565  0.88308  0.47159  1.0000 0.128758138
H   H260      1.0  0.70518  0.92307  0.40992  1.0000 0.128758138
H   H261      1.0  0.04840  0.03935  0.95626  1.0000 0.1545195552
H   H262      1.0  0.25555  0.82524  0.38159  1.0000 0.1197371613
H   H263      1.0  0.09567  0.74558  0.48260  1.0000 0.1197371613
H   H264      1.0  0.90529  0.95891  0.75660  1.0000 0.1197371613
H   H265      1.0  0.76103  0.79178  0.43336  1.0000 0.1197371613
H   H266      1.0  0.25126  0.71210  0.47068  1.0000 0.128758138
H   H267      1.0  0.03532  0.89522  0.75865  1.0000 0.1197371613
H   H268      1.0  0.89711  0.93986  0.67580  1.0000 0.1197371613
H   H269      1.0  0.68699  0.75723  0.41755  1.0000 0.1197371613
H   H270      1.0  0.42514  0.78319  0.42913  1.0000 0.1197371613
H   H271      1.0  0.63110  0.88799  0.39386  1.0000 0.1197371613
H   H272      1.0  0.02644  0.87546  0.67806  1.0000 0.128758138
H   H273      1.0  0.29803  0.80415  0.28478  1.0000 0.128758138
H   H274      1.0  0.35328  0.80923  0.26999  1.0000 0.128758138
H   H275      1.0  0.33430  0.76062  0.29398  1.0000 0.128758138
H   H276      1.0  0.36912  0.66713  0.44147  1.0000 0.0803996992
H   H277      1.0  0.21087  0.85920  0.44335  1.0000 0.1197371613
H   H278      1.0  0.37749  0.81107  0.34739  1.0000 0.0697793046
H   H279      1.0  0.93676  0.00389  0.81382  1.0000 0.1197371613
H   H280      1.0  0.02076  0.88945  0.83706  1.0000 0.1197371613
H   H281      1.0  0.61052  0.74622  0.45009  1.0000 0.1197371613
H   H282      1.0  0.38249  0.67898  0.33938  1.0000 0.1545195552
H   H283      1.0  0.17038  0.72107  0.45474  1.0000 0.1197371613
H   H284      1.0  0.58140  0.84153  0.34495  1.0000 0.1197371613
H   H285      1.0  0.93496  0.04593  0.93547  1.0000 0.0803996992
H   H286      1.0  0.36163  0.65243  0.52469  1.0000 0.1197371613
H   H287      1.0  0.37160  0.70779  0.51319  1.0000 0.1121856973
H   H288      1.0  0.31862  0.69040  0.52690  1.0000 0.1121856973
H   H289      1.0  0.96153  0.09021  0.84661  1.0000 0.1197371613
H   H290      1.0  0.94509  0.11884  0.89369  1.0000 0.128758138
H   H291      1.0  0.99418  0.08909  0.89394  1.0000 0.1387657238
H   H292      1.0  0.33500  0.87908  0.37877  1.0000 0.1197371613
H   H293      1.0  0.35568  0.88572  0.32550  1.0000 0.128758138
H   H294      1.0  0.29986  0.87493  0.33345  1.0000 0.1197371613
H   H295      1.0  0.27947  0.63096  0.47191  1.0000 0.1197371613
H   H296      1.0  0.29740  0.62745  0.41735  1.0000 0.128758138
H   H297      1.0  0.32645  0.60057  0.45903  1.0000 0.128758138
H   H298      1.0  0.88037  0.04310  0.84943  1.0000 0.1197371613
H   H299      1.0  0.86546  0.01950  0.89973  1.0000 0.128758138
H   H300      1.0  0.86783  0.07662  0.89443  1.0000 0.128758138
H   H301      1.0  0.50177  0.67905  0.44070  1.0000 0.0803996992
H   H302      1.0  0.05212  0.92068  0.95820  1.0000 0.0859356989
H   H303      1.0  0.47050  0.68555  0.33432  1.0000 0.1622877978
H   H304      1.0  0.59043  0.68019  0.49278  1.0000 0.128758138
H   H305      1.0  0.55467  0.63558  0.48765  1.0000 0.128758138
H   H306      1.0  0.58496  0.65344  0.44215  1.0000 0.128758138
H   H307      1.0  0.10924  0.91751  0.89720  1.0000 0.1387657238
H   H308      1.0  0.11171  0.86980  0.92911  1.0000 0.128758138
H   H309      1.0  0.08651  0.86863  0.87741  1.0000 0.1121856973
H   H310      1.0  0.46059  0.79908  0.32410  1.0000 0.0803996992
H   H311      1.0  0.52930  0.74007  0.51894  1.0000 0.128758138
H   H312      1.0  0.47714  0.73832  0.49496  1.0000 0.1197371613
H   H313      1.0  0.49640  0.69344  0.52522  1.0000 0.128758138
H   H314      1.0  0.53908  0.83866  0.27120  1.0000 0.1197371613
H   H315      1.0  0.51735  0.78620  0.26277  1.0000 0.1387657238
H   H316      1.0  0.48569  0.83261  0.25095  1.0000 0.128758138
H   H317      1.0  0.50432  0.89017  0.33608  1.0000 0.1197371613
H   H318      1.0  0.45066  0.88048  0.31807  1.0000 0.128758138
H   H319      1.0  0.46540  0.86854  0.37240  1.0000 0.1121856973
H   H320      1.0  0.00626  0.83755  0.91863  1.0000 0.1197371613
H   H321      1.0  0.03916  0.83575  0.96576  1.0000 0.1197371613
H   H322      1.0  0.99011  0.86559  0.96617  1.0000 0.1121856973
H   H323      1.0  0.88308  0.13565  0.52841  1.0000 0.128758138
H   H324      1.0  0.92307  0.70518  0.59008  1.0000 0.128758138
H   H325      1.0  0.03935  0.04840  0.04374  1.0000 0.1545195552
H   H326      1.0  0.82524  0.25555  0.61841  1.0000 0.1197371613
H   H327      1.0  0.74558  0.09567  0.51740  1.0000 0.1197371613
H   H328      1.0  0.95891  0.90529  0.24340  1.0000 0.1197371613
H   H329      1.0  0.79178  0.76103  0.56664  1.0000 0.1197371613
H   H330      1.0  0.71210  0.25126  0.52932  1.0000 0.128758138
H   H331      1.0  0.89522  0.03532  0.24135  1.0000 0.1197371613
H   H332      1.0  0.93986  0.89711  0.32420  1.0000 0.1197371613
H   H333      1.0  0.75723  0.68699  0.58245  1.0000 0.1197371613
H   H334      1.0  0.78319  0.42514  0.57087  1.0000 0.1197371613
H   H335      1.0  0.88799  0.63110  0.60614  1.0000 0.1197371613
H   H336      1.0  0.87546  0.02644  0.32194  1.0000 0.128758138
H   H337      1.0  0.80415  0.29803  0.71522  1.0000 0.128758138
H   H338      1.0  0.80923  0.35328  0.73001  1.0000 0.128758138
H   H339      1.0  0.76062  0.33430  0.70602  1.0000 0.128758138
H   H340      1.0  0.66713  0.36912  0.55853  1.0000 0.0859356989
H   H341      1.0  0.85920  0.21087  0.55665  1.0000 0.1197371613
H   H342      1.0  0.81107  0.37749  0.65261  1.0000 0.0697793046
H   H343      1.0  0.00389  0.93676  0.18618  1.0000 0.1197371613
H   H344      1.0  0.88945  0.02076  0.16294  1.0000 0.1197371613
H   H345      1.0  0.74622  0.61052  0.54991  1.0000 0.1197371613
H   H346      1.0  0.67898  0.38249  0.66062  1.0000 0.1545195552
H   H347      1.0  0.72107  0.17038  0.54526  1.0000 0.1197371613
H   H348      1.0  0.84153  0.58140  0.65505  1.0000 0.1197371613
H   H349      1.0  0.04593  0.93496  0.06453  1.0000 0.0803996992
H   H350      1.0  0.65243  0.36163  0.47531  1.0000 0.1197371613
H   H351      1.0  0.70779  0.37160  0.48681  1.0000 0.1121856973
H   H352      1.0  0.69040  0.31862  0.47310  1.0000 0.1121856973
H   H353      1.0  0.09021  0.96153  0.15339  1.0000 0.1197371613
H   H354      1.0  0.11884  0.94509  0.10631  1.0000 0.128758138
H   H355      1.0  0.08909  0.99418  0.10606  1.0000 0.1387657238
H   H356      1.0  0.87908  0.33500  0.62123  1.0000 0.1197371613
H   H357      1.0  0.88572  0.35568  0.67450  1.0000 0.128758138
H   H358      1.0  0.87493  0.29986  0.66655  1.0000 0.1197371613
H   H359      1.0  0.63096  0.27947  0.52809  1.0000 0.1197371613
H   H360      1.0  0.62745  0.29740  0.58265  1.0000 0.128758138
H   H361      1.0  0.60057  0.32645  0.54097  1.0000 0.128758138
H   H362      1.0  0.04310  0.88037  0.15057  1.0000 0.1197371613
H   H363      1.0  0.01950  0.86546  0.10027  1.0000 0.128758138
H   H364      1.0  0.07662  0.86783  0.10557  1.0000 0.128758138
H   H365      1.0  0.67905  0.50177  0.55930  1.0000 0.0803996992
H   H366      1.0  0.92068  0.05212  0.04180  1.0000 0.0859356989
H   H367      1.0  0.68555  0.47050  0.66568  1.0000 0.1622877978
H   H368      1.0  0.68019  0.59043  0.50722  1.0000 0.128758138
H   H369      1.0  0.63558  0.55467  0.51235  1.0000 0.128758138
H   H370      1.0  0.65344  0.58496  0.55785  1.0000 0.128758138
H   H371      1.0  0.91751  0.10924  0.10280  1.0000 0.1387657238
H   H372      1.0  0.86980  0.11171  0.07089  1.0000 0.128758138
H   H373      1.0  0.86863  0.08651  0.12259  1.0000 0.1121856973
H   H374      1.0  0.79908  0.46059  0.67590  1.0000 0.0803996992
H   H375      1.0  0.74007  0.52930  0.48106  1.0000 0.128758138
H   H376      1.0  0.73832  0.47714  0.50504  1.0000 0.1197371613
H   H377      1.0  0.69344  0.49640  0.47478  1.0000 0.128758138
H   H378      1.0  0.83866  0.53908  0.72880  1.0000 0.1197371613
H   H379      1.0  0.78620  0.51735  0.73723  1.0000 0.1387657238
H   H380      1.0  0.83261  0.48569  0.74905  1.0000 0.128758138
H   H381      1.0  0.89017  0.50432  0.66392  1.0000 0.1197371613
H   H382      1.0  0.88048  0.45066  0.68193  1.0000 0.128758138
H   H383      1.0  0.86854  0.46540  0.62760  1.0000 0.1121856973
H   H384      1.0  0.83755  0.00626  0.08137  1.0000 0.1197371613
H   H385      1.0  0.83575  0.03916  0.03424  1.0000 0.1197371613
H   H386      1.0  0.86559  0.99011  0.03383  1.0000 0.1121856973
H   H387      1.0  0.94752  0.94752  0.00000  1.0000 0.1197371613
H   H388      1.0  0.86435  0.11692  0.97159  1.0000 0.128758138
H   H389      1.0  0.29482  0.07693  0.90992  1.0000 0.128758138
H   H390      1.0  0.95160  0.96065  0.45626  1.0000 0.1545195552
H   H391      1.0  0.74445  0.17476  0.88159  1.0000 0.1197371613
H   H392      1.0  0.90433  0.25442  0.98260  1.0000 0.1197371613
H   H393      1.0  0.09471  0.04109  0.25660  1.0000 0.1197371613
H   H394      1.0  0.23897  0.20822  0.93336  1.0000 0.1197371613
H   H395      1.0  0.74874  0.28790  0.97068  1.0000 0.128758138
H   H396      1.0  0.96468  0.10478  0.25865  1.0000 0.1197371613
H   H397      1.0  0.10289  0.06014  0.17580  1.0000 0.1197371613
H   H398      1.0  0.31301  0.24277  0.91755  1.0000 0.1197371613
H   H399      1.0  0.57486  0.21681  0.92913  1.0000 0.1197371613
H   H400      1.0  0.36890  0.11201  0.89386  1.0000 0.1197371613
H   H401      1.0  0.97356  0.12454  0.17806  1.0000 0.128758138
H   H402      1.0  0.70197  0.19585  0.78478  1.0000 0.128758138
H   H403      1.0  0.64672  0.19077  0.76999  1.0000 0.128758138
H   H404      1.0  0.66570  0.23938  0.79398  1.0000 0.128758138
H   H405      1.0  0.63088  0.33287  0.94147  1.0000 0.0859356989
H   H406      1.0  0.78913  0.14080  0.94335  1.0000 0.1197371613
H   H407      1.0  0.62251  0.18893  0.84739  1.0000 0.0697793046
H   H408      1.0  0.06324  0.99611  0.31382  1.0000 0.1197371613
H   H409      1.0  0.97924  0.11055  0.33706  1.0000 0.1197371613
H   H410      1.0  0.38948  0.25378  0.95009  1.0000 0.1197371613
H   H411      1.0  0.61751  0.32102  0.83938  1.0000 0.1545195552
H   H412      1.0  0.82962  0.27893  0.95474  1.0000 0.1197371613
H   H413      1.0  0.41860  0.15847  0.84495  1.0000 0.1197371613
H   H414      1.0  0.06504  0.95407  0.43547  1.0000 0.0803996992
H   H415      1.0  0.63837  0.34757  0.02469  1.0000 0.1197371613
H   H416      1.0  0.62840  0.29221  0.01319  1.0000 0.1121856973
H   H417      1.0  0.68138  0.30960  0.02690  1.0000 0.1121856973
H   H418      1.0  0.03847  0.90979  0.34661  1.0000 0.1197371613
H   H419      1.0  0.05491  0.88116  0.39369  1.0000 0.128758138
H   H420      1.0  0.00582  0.91091  0.39394  1.0000 0.1387657238
H   H421      1.0  0.66500  0.12092  0.87877  1.0000 0.1197371613
H   H422      1.0  0.64432  0.11428  0.82550  1.0000 0.128758138
H   H423      1.0  0.70014  0.12507  0.83345  1.0000 0.1197371613
H   H424      1.0  0.72053  0.36904  0.97191  1.0000 0.1197371613
H   H425      1.0  0.70260  0.37255  0.91735  1.0000 0.128758138
H   H426      1.0  0.67355  0.39943  0.95903  1.0000 0.128758138
H   H427      1.0  0.11963  0.95690  0.34943  1.0000 0.1197371613
H   H428      1.0  0.13454  0.98050  0.39973  1.0000 0.128758138
H   H429      1.0  0.13217  0.92338  0.39443  1.0000 0.128758138
H   H430      1.0  0.49823  0.32095  0.94070  1.0000 0.0803996992
H   H431      1.0  0.94788  0.07932  0.45820  1.0000 0.0859356989
H   H432      1.0  0.52950  0.31445  0.83432  1.0000 0.1622877978
H   H433      1.0  0.40957  0.31981  0.99278  1.0000 0.128758138
H   H434      1.0  0.44533  0.36442  0.98765  1.0000 0.128758138
H   H435      1.0  0.41504  0.34656  0.94215  1.0000 0.128758138
H   H436      1.0  0.89076  0.08249  0.39720  1.0000 0.1387657238
H   H437      1.0  0.88829  0.13020  0.42911  1.0000 0.128758138
H   H438      1.0  0.91349  0.13137  0.37741  1.0000 0.1121856973
H   H439      1.0  0.53941  0.20092  0.82410  1.0000 0.0803996992
H   H440      1.0  0.47070  0.25993  0.01894  1.0000 0.128758138
H   H441      1.0  0.52286  0.26168  0.99496  1.0000 0.1197371613
H   H442      1.0  0.50360  0.30656  0.02522  1.0000 0.128758138
H   H443      1.0  0.46092  0.16134  0.77120  1.0000 0.1197371613
H   H444      1.0  0.48265  0.21380  0.76277  1.0000 0.1387657238
H   H445      1.0  0.51431  0.16739  0.75095  1.0000 0.128758138
H   H446      1.0  0.49568  0.10983  0.83608  1.0000 0.1197371613
H   H447      1.0  0.54934  0.11952  0.81807  1.0000 0.128758138
H   H448      1.0  0.53460  0.13146  0.87240  1.0000 0.1121856973
H   H449      1.0  0.99374  0.16245  0.41863  1.0000 0.1197371613
H   H450      1.0  0.96084  0.16425  0.46576  1.0000 0.1197371613
H   H451      1.0  0.00989  0.13441  0.46617  1.0000 0.1121856973
H   H452      1.0  0.11692  0.86435  0.02841  1.0000 0.128758138
H   H453      1.0  0.07693  0.29482  0.09008  1.0000 0.128758138
H   H454      1.0  0.96065  0.95160  0.54374  1.0000 0.1545195552
H   H455      1.0  0.17476  0.74445  0.11841  1.0000 0.1197371613
H   H456      1.0  0.25442  0.90433  0.01740  1.0000 0.1197371613
H   H457      1.0  0.04109  0.09471  0.74340  1.0000 0.1197371613
H   H458      1.0  0.20822  0.23897  0.06664  1.0000 0.1197371613
H   H459      1.0  0.28790  0.74874  0.02932  1.0000 0.128758138
H   H460      1.0  0.10478  0.96468  0.74135  1.0000 0.1197371613
H   H461      1.0  0.06014  0.10289  0.82420  1.0000 0.1197371613
H   H462      1.0  0.24277  0.31301  0.08245  1.0000 0.1197371613
H   H463      1.0  0.21681  0.57486  0.07087  1.0000 0.128758138
H   H464      1.0  0.11201  0.36890  0.10614  1.0000 0.1197371613
H   H465      1.0  0.12454  0.97356  0.82194  1.0000 0.128758138
H   H466      1.0  0.19585  0.70197  0.21522  1.0000 0.128758138
H   H467      1.0  0.19077  0.64672  0.23001  1.0000 0.128758138
H   H468      1.0  0.23938  0.66570  0.20602  1.0000 0.128758138
H   H469      1.0  0.33287  0.63088  0.05853  1.0000 0.0859356989
H   H470      1.0  0.14080  0.78913  0.05665  1.0000 0.1197371613
H   H471      1.0  0.18893  0.62251  0.15261  1.0000 0.0697793046
H   H472      1.0  0.99611  0.06324  0.68618  1.0000 0.1197371613
H   H473      1.0  0.11055  0.97924  0.66294  1.0000 0.1197371613
H   H474      1.0  0.25378  0.38948  0.04991  1.0000 0.1197371613
H   H475      1.0  0.32102  0.61751  0.16062  1.0000 0.1545195552
H   H476      1.0  0.27893  0.82962  0.04526  1.0000 0.1197371613
H   H477      1.0  0.15847  0.41860  0.15505  1.0000 0.1197371613
H   H478      1.0  0.95407  0.06504  0.56453  1.0000 0.0803996992
H   H479      1.0  0.34757  0.63837  0.97531  1.0000 0.1197371613
H   H480      1.0  0.29221  0.62840  0.98681  1.0000 0.1121856973
H   H481      1.0  0.30960  0.68138  0.97310  1.0000 0.1121856973
H   H482      1.0  0.90979  0.03847  0.65339  1.0000 0.1197371613
H   H483      1.0  0.88116  0.05491  0.60631  1.0000 0.128758138
H   H484      1.0  0.91091  0.00582  0.60606  1.0000 0.1387657238
H   H485      1.0  0.12092  0.66500  0.12123  1.0000 0.1197371613
H   H486      1.0  0.11428  0.64432  0.17450  1.0000 0.128758138
H   H487      1.0  0.12507  0.70014  0.16655  1.0000 0.1197371613
H   H488      1.0  0.36904  0.72053  0.02809  1.0000 0.1197371613
H   H489      1.0  0.37255  0.70260  0.08265  1.0000 0.128758138
H   H490      1.0  0.39943  0.67355  0.04097  1.0000 0.128758138
H   H491      1.0  0.95690  0.11963  0.65057  1.0000 0.1197371613
H   H492      1.0  0.98050  0.13454  0.60027  1.0000 0.128758138
H   H493      1.0  0.92338  0.13217  0.60557  1.0000 0.128758138
H   H494      1.0  0.32095  0.49823  0.05930  1.0000 0.0803996992
H   H495      1.0  0.07932  0.94788  0.54180  1.0000 0.0859356989
H   H496      1.0  0.31445  0.52950  0.16568  1.0000 0.1622877978
H   H497      1.0  0.31981  0.40957  0.00722  1.0000 0.128758138
H   H498      1.0  0.36442  0.44533  0.01235  1.0000 0.128758138
H   H499      1.0  0.34656  0.41504  0.05785  1.0000 0.128758138
H   H500      1.0  0.08249  0.89076  0.60280  1.0000 0.1387657238
H   H501      1.0  0.13020  0.88829  0.57089  1.0000 0.128758138
H   H502      1.0  0.13137  0.91349  0.62259  1.0000 0.1121856973
H   H503      1.0  0.20092  0.53941  0.17590  1.0000 0.0803996992
H   H504      1.0  0.25993  0.47070  0.98106  1.0000 0.128758138
H   H505      1.0  0.26168  0.52286  0.00504  1.0000 0.1197371613
H   H506      1.0  0.30656  0.50360  0.97478  1.0000 0.128758138
H   H507      1.0  0.16134  0.46092  0.22880  1.0000 0.1197371613
H   H508      1.0  0.21380  0.48265  0.23723  1.0000 0.1387657238
H   H509      1.0  0.16739  0.51431  0.24905  1.0000 0.128758138
H   H510      1.0  0.10983  0.49568  0.16392  1.0000 0.1197371613
H   H511      1.0  0.11952  0.54934  0.18193  1.0000 0.128758138
H   H512      1.0  0.13146  0.53460  0.12760  1.0000 0.1121856973
H   H513      1.0  0.16245  0.99374  0.58137  1.0000 0.1197371613
H   H514      1.0  0.16425  0.96084  0.53424  1.0000 0.1197371613
H   H515      1.0  0.13441  0.00989  0.53383  1.0000 0.1121856973
H   H516      1.0  0.05248  0.05248  0.50000  1.0000 0.1197371613
C   C1        1.0  0.33223  0.44092  0.24597  1.0000 0.528244447
C   C2        1.0  0.36101  0.75987  0.17536  1.0000 -0.0336114336
C   C3        1.0  0.34996  0.35750  0.21739  1.0000 -0.107615818
C   C4        1.0  0.39250  0.54516  0.36658  1.0000 0.5381865613
C   C5        1.0  0.38927  0.79846  0.16228  1.0000 -0.107615818
C   C6        1.0  0.31563  0.39264  0.22785  1.0000 -0.0225934893
C   C7        1.0  0.52196  0.47304  0.72629  1.0000 -0.0526762249
C   C8        1.0  0.29813  0.22917  0.14548  1.0000 -0.1993555277
C   C9        1.0  0.26912  0.38124  0.22394  1.0000 -0.0974488216
C   C10       1.0  0.44236  0.56955  0.49062  1.0000 -0.1598517415
C   C11       1.0  0.40543  0.53882  0.41890  1.0000 -0.0225934893
C   C12       1.0  0.38396  0.71414  0.19138  1.0000 0.5696005039
C   C13       1.0  0.31173  0.76564  0.17612  1.0000 -0.0974488216
C   C14       1.0  0.31897  0.84885  0.15540  1.0000 0.0697793046
C   C15       1.0  0.23114  0.23154  0.19819  1.0000 -0.1993555277
C   C16       1.0  0.40469  0.49287  0.49196  1.0000 -0.1598517415
C   C17       1.0  0.43064  0.57470  0.44264  1.0000 -0.107615818
C   C18       1.0  0.28649  0.30225  0.19539  1.0000 0.0697793046
C   C19       1.0  0.29113  0.80973  0.16649  1.0000 -0.1510978183
C   C20       1.0  0.25779  0.07453  0.15640  1.0000 -0.0526762249
C   C21       1.0  0.36825  0.84253  0.15259  1.0000 -0.1598517415
C   C22       1.0  0.39274  0.49829  0.44396  1.0000 -0.107615818
C   C23       1.0  0.29560  0.16900  0.04360  1.0000 -0.4376737376
C   C24       1.0  0.17270  0.16218  0.20810  1.0000 0.0803996992
C   C25       1.0  0.27147  0.25347  0.17921  1.0000 0.0803996992
C   C26       1.0  0.24611  0.16200  0.15304  1.0000 0.0419644583
C   C27       1.0  0.29713  0.89707  0.14877  1.0000 0.0803996992
C   C28       1.0  0.43087  0.48724  0.64666  1.0000 0.0178488454
C   C29       1.0  0.44428  0.52230  0.56763  1.0000 0.0697793046
C   C30       1.0  0.21751  0.18529  0.18550  1.0000 0.0178488454
C   C31       1.0  0.33580  0.31273  0.20091  1.0000 -0.1598517415
C   C32       1.0  0.31524  0.15780  0.09250  1.0000 0.0697793046
C   C33       1.0  0.43039  0.52824  0.51601  1.0000 0.0697793046
C   C34       1.0  0.49940  0.54022  0.63291  1.0000 0.0178488454
C   C35       1.0  0.48501  0.54445  0.58513  1.0000 -0.1923779482
C   C36       1.0  0.41773  0.49429  0.59871  1.0000 -0.1923779482
C   C37       1.0  0.47132  0.51143  0.66228  1.0000 0.0419644583
C   C38       1.0  0.25903  0.91153  0.17740  1.0000 -0.1923779482
C   C39       1.0  0.20057  0.09777  0.10690  1.0000 -0.0710710818
C   C40       1.0  0.25438  0.33632  0.20750  1.0000 -0.1510978183
C   C41       1.0  0.31567  0.92848  0.11490  1.0000 -0.1923779482
C   C42       1.0  0.54550  0.56580  0.64950  1.0000 0.0859356989
C   C43       1.0  0.28632  0.18226  0.13100  1.0000 0.0178488454
C   C44       1.0  0.18160  0.15170  0.26020  1.0000 -0.4115583397
C   C45       1.0  0.58990  0.53880  0.63190  1.0000 -0.4376737376
C   C46       1.0  0.36840  0.16770  0.09530  1.0000 -0.4186035357
C   C47       1.0  0.12920  0.19230  0.20100  1.0000 -0.4115583397
C   C48       1.0  0.54620  0.61750  0.63450  1.0000 -0.4376737376
C   C49       1.0  0.19800  0.97277  0.20750  1.0000 0.0803996992
C   C50       1.0  0.40090  0.45510  0.67911  1.0000 0.0697793046
C   C51       1.0  0.25888  0.98713  0.14040  1.0000 0.0419644583
C   C52       1.0  0.29632  0.97525  0.10972  1.0000 0.0178488454
C   C53       1.0  0.23888  0.95704  0.17430  1.0000 0.0100540997
C   C54       1.0  0.20421  0.04997  0.10420  1.0000 -0.0710710818
C   C55       1.0  0.16370  0.93200  0.22130  1.0000 -0.4470305368
C   C56       1.0  0.38808  0.40780  0.65620  1.0000 -0.4115583397
C   C57       1.0  0.31890  0.00952  0.07410  1.0000 0.0697793046
C   C58       1.0  0.21940  0.99440  0.25330  1.0000 -0.4314042963
C   C59       1.0  0.31910  0.99010  0.02260  1.0000 -0.4186035357
C   C60       1.0  0.36890  0.02350  0.08900  1.0000 -0.4115583397
C   C61       1.0  0.35580  0.48240  0.69650  1.0000 -0.4115583397
C   C62       1.0  0.55908  0.66777  0.25403  1.0000 0.528244447
C   C63       1.0  0.24013  0.63899  0.32464  1.0000 -0.0336114336
C   C64       1.0  0.64250  0.65004  0.28261  1.0000 -0.107615818
C   C65       1.0  0.45484  0.60750  0.13342  1.0000 0.5381865613
C   C66       1.0  0.20154  0.61073  0.33772  1.0000 -0.107615818
C   C67       1.0  0.60736  0.68437  0.27215  1.0000 -0.0225934893
C   C68       1.0  0.52696  0.47804  0.77371  1.0000 -0.0526762249
C   C69       1.0  0.77083  0.70187  0.35452  1.0000 -0.1993555277
C   C70       1.0  0.61876  0.73088  0.27606  1.0000 -0.0974488216
C   C71       1.0  0.43045  0.55764  0.00938  1.0000 -0.1598517415
C   C72       1.0  0.46118  0.59457  0.08110  1.0000 -0.0225934893
C   C73       1.0  0.28586  0.61604  0.30862  1.0000 0.5696005039
C   C74       1.0  0.23436  0.68827  0.32388  1.0000 -0.0974488216
C   C75       1.0  0.15115  0.68103  0.34460  1.0000 0.0697793046
C   C76       1.0  0.76846  0.76886  0.30181  1.0000 -0.1993555277
C   C77       1.0  0.50713  0.59531  0.00804  1.0000 -0.1598517415
C   C78       1.0  0.42530  0.56936  0.05736  1.0000 -0.107615818
C   C79       1.0  0.69775  0.71351  0.30461  1.0000 0.0697793046
C   C80       1.0  0.19027  0.70887  0.33351  1.0000 -0.1510978183
C   C81       1.0  0.92547  0.74221  0.34360  1.0000 -0.0526762249
C   C82       1.0  0.15747  0.63175  0.34741  1.0000 -0.1598517415
C   C83       1.0  0.50171  0.60726  0.05604  1.0000 -0.107615818
C   C84       1.0  0.83100  0.70440  0.45640  1.0000 -0.4376737376
C   C85       1.0  0.83782  0.82730  0.29190  1.0000 0.0803996992
C   C86       1.0  0.74653  0.72853  0.32079  1.0000 0.0803996992
C   C87       1.0  0.83800  0.75389  0.34696  1.0000 0.0419644583
C   C88       1.0  0.10293  0.70287  0.35123  1.0000 0.0803996992
C   C89       1.0  0.51276  0.56913  0.85334  1.0000 0.0178488454
C   C90       1.0  0.47770  0.55572  0.93237  1.0000 0.0697793046
C   C91       1.0  0.81471  0.78249  0.31450  1.0000 0.0178488454
C   C92       1.0  0.68727  0.66420  0.29909  1.0000 -0.1598517415
C   C93       1.0  0.84220  0.68476  0.40750  1.0000 0.0697793046
C   C94       1.0  0.47176  0.56961  0.98399  1.0000 0.0697793046
C   C95       1.0  0.45978  0.50060  0.86709  1.0000 0.0178488454
C   C96       1.0  0.45555  0.51499  0.91487  1.0000 -0.1923779482
C   C97       1.0  0.50571  0.58227  0.90129  1.0000 -0.1923779482
C   C98       1.0  0.48857  0.52868  0.83772  1.0000 0.0419644583
C   C99       1.0  0.08847  0.74097  0.32260  1.0000 -0.1923779482
C   C100      1.0  0.90223  0.79943  0.39310  1.0000 -0.0710710818
C   C101      1.0  0.66368  0.74562  0.29250  1.0000 -0.1510978183
C   C102      1.0  0.07152  0.68433  0.38510  1.0000 -0.1923779482
C   C103      1.0  0.43420  0.45450  0.85050  1.0000 0.0803996992
C   C104      1.0  0.81774  0.71368  0.36900  1.0000 0.0178488454
C   C105      1.0  0.84830  0.81840  0.23980  1.0000 -0.4115583397
C   C106      1.0  0.46120  0.41010  0.86810  1.0000 -0.4376737376
C   C107      1.0  0.83230  0.63160  0.40470  1.0000 -0.4186035357
C   C108      1.0  0.80770  0.87080  0.29900  1.0000 -0.4115583397
C   C109      1.0  0.38250  0.45380  0.86550  1.0000 -0.4376737376
C   C110      1.0  0.02723  0.80200  0.29250  1.0000 0.0803996992
C   C111      1.0  0.54490  0.59910  0.82089  1.0000 0.0697793046
C   C112      1.0  0.01287  0.74112  0.35960  1.0000 0.0419644583
C   C113      1.0  0.02475  0.70368  0.39028  1.0000 0.0178488454
C   C114      1.0  0.04296  0.76112  0.32570  1.0000 0.0100540997
C   C115      1.0  0.95003  0.79579  0.39580  1.0000 -0.0710710818
C   C116      1.0  0.06800  0.83630  0.27870  1.0000 -0.4470305368
C   C117      1.0  0.59220  0.61192  0.84380  1.0000 -0.4115583397
C   C118      1.0  0.99048  0.68110  0.42590  1.0000 0.0697793046
C   C119      1.0  0.00560  0.78060  0.24670  1.0000 -0.4314042963
C   C120      1.0  0.00990  0.68090  0.47740  1.0000 -0.4186035357
C   C121      1.0  0.97650  0.63110  0.41100  1.0000 -0.4115583397
C   C122      1.0  0.51760  0.64420  0.80350  1.0000 -0.4115583397
C   C123      1.0  0.47162  0.52838  0.75000  1.0000 -0.0225934893
C   C124      1.0  0.66777  0.55908  0.74597  1.0000 0.528244447
C   C125      1.0  0.63899  0.24013  0.67536  1.0000 -0.0336114336
C   C126      1.0  0.65004  0.64250  0.71739  1.0000 -0.107615818
C   C127      1.0  0.60750  0.45484  0.86658  1.0000 0.5381865613
C   C128      1.0  0.61073  0.20154  0.66228  1.0000 -0.107615818
C   C129      1.0  0.68437  0.60736  0.72785  1.0000 -0.0225934893
C   C130      1.0  0.47804  0.52696  0.22629  1.0000 -0.0526762249
C   C131      1.0  0.70187  0.77083  0.64548  1.0000 -0.1993555277
C   C132      1.0  0.73088  0.61876  0.72394  1.0000 -0.0974488216
C   C133      1.0  0.55764  0.43045  0.99062  1.0000 -0.1598517415
C   C134      1.0  0.59457  0.46118  0.91890  1.0000 -0.0225934893
C   C135      1.0  0.61604  0.28586  0.69138  1.0000 0.5696005039
C   C136      1.0  0.68827  0.23436  0.67612  1.0000 -0.0974488216
C   C137      1.0  0.68103  0.15115  0.65540  1.0000 0.0697793046
C   C138      1.0  0.76886  0.76846  0.69819  1.0000 -0.1993555277
C   C139      1.0  0.59531  0.50713  0.99196  1.0000 -0.1598517415
C   C140      1.0  0.56936  0.42530  0.94264  1.0000 -0.107615818
C   C141      1.0  0.71351  0.69775  0.69539  1.0000 0.0697793046
C   C142      1.0  0.70887  0.19027  0.66649  1.0000 -0.1510978183
C   C143      1.0  0.74221  0.92547  0.65640  1.0000 -0.0551950633
C   C144      1.0  0.63175  0.15747  0.65259  1.0000 -0.1598517415
C   C145      1.0  0.60726  0.50171  0.94396  1.0000 -0.107615818
C   C146      1.0  0.70440  0.83100  0.54360  1.0000 -0.4376737376
C   C147      1.0  0.82730  0.83782  0.70810  1.0000 0.0803996992
C   C148      1.0  0.72853  0.74653  0.67921  1.0000 0.0803996992
C   C149      1.0  0.75389  0.83800  0.65304  1.0000 0.0419644583
C   C150      1.0  0.70287  0.10293  0.64877  1.0000 0.0803996992
C   C151      1.0  0.56913  0.51276  0.14666  1.0000 0.0178488454
C   C152      1.0  0.55572  0.47770  0.06763  1.0000 0.0697793046
C   C153      1.0  0.78249  0.81471  0.68550  1.0000 0.0178488454
C   C154      1.0  0.66420  0.68727  0.70091  1.0000 -0.1598517415
C   C155      1.0  0.68476  0.84220  0.59250  1.0000 0.0697793046
C   C156      1.0  0.56961  0.47176  0.01601  1.0000 0.0697793046
C   C157      1.0  0.50060  0.45978  0.13291  1.0000 0.0178488454
C   C158      1.0  0.51499  0.45555  0.08513  1.0000 -0.1923779482
C   C159      1.0  0.58227  0.50571  0.09871  1.0000 -0.1923779482
C   C160      1.0  0.52868  0.48857  0.16228  1.0000 0.0419644583
C   C161      1.0  0.74097  0.08847  0.67740  1.0000 -0.1923779482
C   C162      1.0  0.79943  0.90223  0.60690  1.0000 -0.0710710818
C   C163      1.0  0.74562  0.66368  0.70750  1.0000 -0.1510978183
C   C164      1.0  0.68433  0.07152  0.61490  1.0000 -0.1923779482
C   C165      1.0  0.45450  0.43420  0.14950  1.0000 0.0859356989
C   C166      1.0  0.71368  0.81774  0.63100  1.0000 0.0178488454
C   C167      1.0  0.81840  0.84830  0.76020  1.0000 -0.4115583397
C   C168      1.0  0.41010  0.46120  0.13190  1.0000 -0.4376737376
C   C169      1.0  0.63160  0.83230  0.59530  1.0000 -0.4186035357
C   C170      1.0  0.87080  0.80770  0.70100  1.0000 -0.4115583397
C   C171      1.0  0.45380  0.38250  0.13450  1.0000 -0.4376737376
C   C172      1.0  0.80200  0.02723  0.70750  1.0000 0.0803996992
C   C173      1.0  0.59910  0.54490  0.17911  1.0000 0.0697793046
C   C174      1.0  0.74112  0.01287  0.64040  1.0000 0.0419644583
C   C175      1.0  0.70368  0.02475  0.60972  1.0000 0.0178488454
C   C176      1.0  0.76112  0.04296  0.67430  1.0000 0.0100540997
C   C177      1.0  0.79579  0.95003  0.60420  1.0000 -0.0710710818
C   C178      1.0  0.83630  0.06800  0.72130  1.0000 -0.4470305368
C   C179      1.0  0.61192  0.59220  0.15620  1.0000 -0.4115583397
C   C180      1.0  0.68110  0.99048  0.57410  1.0000 0.0697793046
C   C181      1.0  0.78060  0.00560  0.75330  1.0000 -0.4314042963
C   C182      1.0  0.68090  0.00990  0.52260  1.0000 -0.4186035357
C   C183      1.0  0.63110  0.97650  0.58900  1.0000 -0.4115583397
C   C184      1.0  0.64420  0.51760  0.19650  1.0000 -0.4115583397
C   C185      1.0  0.44092  0.33223  0.75403  1.0000 0.528244447
C   C186      1.0  0.75987  0.36101  0.82464  1.0000 -0.0336114336
C   C187      1.0  0.35750  0.34996  0.78261  1.0000 -0.107615818
C   C188      1.0  0.54516  0.39250  0.63342  1.0000 0.5381865613
C   C189      1.0  0.79846  0.38927  0.83772  1.0000 -0.107615818
C   C190      1.0  0.39264  0.31563  0.77215  1.0000 -0.0225934893
C   C191      1.0  0.47304  0.52196  0.27371  1.0000 -0.0526762249
C   C192      1.0  0.22917  0.29813  0.85452  1.0000 -0.1993555277
C   C193      1.0  0.38124  0.26912  0.77606  1.0000 -0.0974488216
C   C194      1.0  0.56955  0.44236  0.50938  1.0000 -0.1598517415
C   C195      1.0  0.53882  0.40543  0.58110  1.0000 -0.0225934893
C   C196      1.0  0.71414  0.38396  0.80862  1.0000 0.5696005039
C   C197      1.0  0.76564  0.31173  0.82388  1.0000 -0.0974488216
C   C198      1.0  0.84885  0.31897  0.84460  1.0000 0.0697793046
C   C199      1.0  0.23154  0.23114  0.80181  1.0000 -0.1993555277
C   C200      1.0  0.49287  0.40469  0.50804  1.0000 -0.1598517415
C   C201      1.0  0.57470  0.43064  0.55736  1.0000 -0.107615818
C   C202      1.0  0.30225  0.28649  0.80461  1.0000 0.0697793046
C   C203      1.0  0.80973  0.29113  0.83351  1.0000 -0.1510978183
C   C204      1.0  0.07453  0.25779  0.84360  1.0000 -0.0526762249
C   C205      1.0  0.84253  0.36825  0.84741  1.0000 -0.1598517415
C   C206      1.0  0.49829  0.39274  0.55604  1.0000 -0.107615818
C   C207      1.0  0.16900  0.29560  0.95640  1.0000 -0.4376737376
C   C208      1.0  0.16218  0.17270  0.79190  1.0000 0.0803996992
C   C209      1.0  0.25347  0.27147  0.82079  1.0000 0.0803996992
C   C210      1.0  0.16200  0.24611  0.84696  1.0000 0.0419644583
C   C211      1.0  0.89707  0.29713  0.85123  1.0000 0.0803996992
C   C212      1.0  0.48724  0.43087  0.35334  1.0000 0.0178488454
C   C213      1.0  0.52230  0.44428  0.43237  1.0000 0.0697793046
C   C214      1.0  0.18529  0.21751  0.81450  1.0000 0.0178488454
C   C215      1.0  0.31273  0.33580  0.79909  1.0000 -0.1598517415
C   C216      1.0  0.15780  0.31524  0.90750  1.0000 0.0697793046
C   C217      1.0  0.52824  0.43039  0.48399  1.0000 0.0697793046
C   C218      1.0  0.54022  0.49940  0.36709  1.0000 0.0178488454
C   C219      1.0  0.54445  0.48501  0.41487  1.0000 -0.1923779482
C   C220      1.0  0.49429  0.41773  0.40129  1.0000 -0.1923779482
C   C221      1.0  0.51143  0.47132  0.33772  1.0000 0.0419644583
C   C222      1.0  0.91153  0.25903  0.82260  1.0000 -0.1923779482
C   C223      1.0  0.09777  0.20057  0.89310  1.0000 -0.0710710818
C   C224      1.0  0.33632  0.25438  0.79250  1.0000 -0.1510978183
C   C225      1.0  0.92848  0.31567  0.88510  1.0000 -0.1923779482
C   C226      1.0  0.56580  0.54550  0.35050  1.0000 0.0803996992
C   C227      1.0  0.18226  0.28632  0.86900  1.0000 0.0178488454
C   C228      1.0  0.15170  0.18160  0.73980  1.0000 -0.4115583397
C   C229      1.0  0.53880  0.58990  0.36810  1.0000 -0.4376737376
C   C230      1.0  0.16770  0.36840  0.90470  1.0000 -0.4186035357
C   C231      1.0  0.19230  0.12920  0.79900  1.0000 -0.4115583397
C   C232      1.0  0.61750  0.54620  0.36550  1.0000 -0.4376737376
C   C233      1.0  0.97277  0.19800  0.79250  1.0000 0.0803996992
C   C234      1.0  0.45510  0.40090  0.32089  1.0000 0.0697793046
C   C235      1.0  0.98713  0.25888  0.85960  1.0000 0.0419644583
C   C236      1.0  0.97525  0.29632  0.89028  1.0000 0.0178488454
C   C237      1.0  0.95704  0.23888  0.82570  1.0000 0.0100540997
C   C238      1.0  0.04997  0.20421  0.89580  1.0000 -0.0710710818
C   C239      1.0  0.93200  0.16370  0.77870  1.0000 -0.4470305368
C   C240      1.0  0.40780  0.38808  0.34380  1.0000 -0.4115583397
C   C241      1.0  0.00952  0.31890  0.92590  1.0000 0.0646179132
C   C242      1.0  0.99440  0.21940  0.74670  1.0000 -0.4314042963
C   C243      1.0  0.99010  0.31910  0.97740  1.0000 -0.4186035357
C   C244      1.0  0.02350  0.36890  0.91100  1.0000 -0.4115583397
C   C245      1.0  0.48240  0.35580  0.30350  1.0000 -0.4115583397
C   C246      1.0  0.52838  0.47162  0.25000  1.0000 -0.0225934893
C   C247      1.0  0.05908  0.83223  0.49597  1.0000 0.528244447
C   C248      1.0  0.74013  0.86101  0.42536  1.0000 -0.0336114336
C   C249      1.0  0.14250  0.84996  0.46739  1.0000 -0.107615818
C   C250      1.0  0.95484  0.89250  0.61658  1.0000 0.5381865613
C   C251      1.0  0.70154  0.88927  0.41228  1.0000 -0.107615818
C   C252      1.0  0.10736  0.81563  0.47785  1.0000 -0.0225934893
C   C253      1.0  0.02696  0.02196  0.97629  1.0000 -0.0526762249
C   C254      1.0  0.27083  0.79813  0.39548  1.0000 -0.1993555277
C   C255      1.0  0.11876  0.76912  0.47394  1.0000 -0.0974488216
C   C256      1.0  0.93045  0.94236  0.74062  1.0000 -0.1598517415
C   C257      1.0  0.96118  0.90543  0.66890  1.0000 -0.0225934893
C   C258      1.0  0.78586  0.88396  0.44138  1.0000 0.5696005039
C   C259      1.0  0.73436  0.81173  0.42612  1.0000 -0.0974488216
C   C260      1.0  0.65115  0.81897  0.40540  1.0000 0.0697793046
C   C261      1.0  0.26846  0.73114  0.44819  1.0000 -0.1993555277
C   C262      1.0  0.00713  0.90469  0.74196  1.0000 -0.1598517415
C   C263      1.0  0.92530  0.93064  0.69264  1.0000 -0.107615818
C   C264      1.0  0.19775  0.78649  0.44539  1.0000 0.0697793046
C   C265      1.0  0.69027  0.79113  0.41649  1.0000 -0.1510978183
C   C266      1.0  0.42547  0.75779  0.40640  1.0000 -0.0526762249
C   C267      1.0  0.65747  0.86825  0.40259  1.0000 -0.1598517415
C   C268      1.0  0.00171  0.89274  0.69396  1.0000 -0.107615818
C   C269      1.0  0.33100  0.79560  0.29360  1.0000 -0.4376737376
C   C270      1.0  0.33782  0.67270  0.45810  1.0000 0.0803996992
C   C271      1.0  0.24653  0.77147  0.42921  1.0000 0.0803996992
C   C272      1.0  0.33800  0.74611  0.40304  1.0000 0.0419644583
C   C273      1.0  0.60293  0.79713  0.39877  1.0000 0.0803996992
C   C274      1.0  0.01276  0.93087  0.89666  1.0000 0.0178488454
C   C275      1.0  0.97770  0.94428  0.81763  1.0000 0.0697793046
C   C276      1.0  0.31471  0.71751  0.43550  1.0000 0.0178488454
C   C277      1.0  0.18727  0.83580  0.45091  1.0000 -0.1598517415
C   C278      1.0  0.34220  0.81524  0.34250  1.0000 0.0697793046
C   C279      1.0  0.97176  0.93039  0.76601  1.0000 0.0697793046
C   C280      1.0  0.95978  0.99940  0.88291  1.0000 0.0178488454
C   C281      1.0  0.95555  0.98501  0.83513  1.0000 -0.1923779482
C   C282      1.0  0.00571  0.91773  0.84871  1.0000 -0.1923779482
C   C283      1.0  0.98857  0.97132  0.91228  1.0000 0.0419644583
C   C284      1.0  0.58847  0.75903  0.42740  1.0000 -0.1923779482
C   C285      1.0  0.40223  0.70057  0.35690  1.0000 -0.0710710818
C   C286      1.0  0.16368  0.75438  0.45750  1.0000 -0.1510978183
C   C287      1.0  0.57152  0.81567  0.36490  1.0000 -0.1923779482
C   C288      1.0  0.93420  0.04550  0.89950  1.0000 0.0859356989
C   C289      1.0  0.31774  0.78632  0.38100  1.0000 0.0178488454
C   C290      1.0  0.34830  0.68160  0.51020  1.0000 -0.4115583397
C   C291      1.0  0.96120  0.08990  0.88190  1.0000 -0.4376737376
C   C292      1.0  0.33230  0.86840  0.34530  1.0000 -0.4186035357
C   C293      1.0  0.30770  0.62920  0.45100  1.0000 -0.4115583397
C   C294      1.0  0.88250  0.04620  0.88450  1.0000 -0.4376737376
C   C295      1.0  0.52723  0.69800  0.45750  1.0000 0.0803996992
C   C296      1.0  0.04490  0.90090  0.92911  1.0000 0.0697793046
C   C297      1.0  0.51287  0.75888  0.39040  1.0000 0.0419644583
C   C298      1.0  0.52475  0.79632  0.35972  1.0000 0.0178488454
C   C299      1.0  0.54296  0.73888  0.42430  1.0000 0.0100540997
C   C300      1.0  0.45003  0.70421  0.35420  1.0000 -0.0710710818
C   C301      1.0  0.56800  0.66370  0.47130  1.0000 -0.4470305368
C   C302      1.0  0.09220  0.88808  0.90620  1.0000 -0.4115583397
C   C303      1.0  0.49048  0.81890  0.32410  1.0000 0.0697793046
C   C304      1.0  0.50560  0.71940  0.50330  1.0000 -0.4314042963
C   C305      1.0  0.50990  0.81910  0.27260  1.0000 -0.4186035357
C   C306      1.0  0.47650  0.86890  0.33900  1.0000 -0.4115583397
C   C307      1.0  0.01760  0.85580  0.94650  1.0000 -0.4115583397
C   C308      1.0  0.83223  0.05908  0.50403  1.0000 0.528244447
C   C309      1.0  0.86101  0.74013  0.57464  1.0000 -0.0336114336
C   C310      1.0  0.84996  0.14250  0.53261  1.0000 -0.107615818
C   C311      1.0  0.89250  0.95484  0.38342  1.0000 0.5381865613
C   C312      1.0  0.88927  0.70154  0.58772  1.0000 -0.107615818
C   C313      1.0  0.81563  0.10736  0.52215  1.0000 -0.0225934893
C   C314      1.0  0.02196  0.02696  0.02371  1.0000 -0.0526762249
C   C315      1.0  0.79813  0.27083  0.60452  1.0000 -0.1993555277
C   C316      1.0  0.76912  0.11876  0.52606  1.0000 -0.0974488216
C   C317      1.0  0.94236  0.93045  0.25938  1.0000 -0.1598517415
C   C318      1.0  0.90543  0.96118  0.33110  1.0000 -0.0225934893
C   C319      1.0  0.88396  0.78586  0.55862  1.0000 0.5696005039
C   C320      1.0  0.81173  0.73436  0.57388  1.0000 -0.0974488216
C   C321      1.0  0.81897  0.65115  0.59460  1.0000 0.0697793046
C   C322      1.0  0.73114  0.26846  0.55181  1.0000 -0.1993555277
C   C323      1.0  0.90469  0.00713  0.25804  1.0000 -0.1598517415
C   C324      1.0  0.93064  0.92530  0.30736  1.0000 -0.107615818
C   C325      1.0  0.78649  0.19775  0.55461  1.0000 0.0697793046
C   C326      1.0  0.79113  0.69027  0.58351  1.0000 -0.1510978183
C   C327      1.0  0.75779  0.42547  0.59360  1.0000 -0.0526762249
C   C328      1.0  0.86825  0.65747  0.59741  1.0000 -0.1598517415
C   C329      1.0  0.89274  0.00171  0.30604  1.0000 -0.107615818
C   C330      1.0  0.79560  0.33100  0.70640  1.0000 -0.4376737376
C   C331      1.0  0.67270  0.33782  0.54190  1.0000 0.0803996992
C   C332      1.0  0.77147  0.24653  0.57079  1.0000 0.0803996992
C   C333      1.0  0.74611  0.33800  0.59696  1.0000 0.0419644583
C   C334      1.0  0.79713  0.60293  0.60123  1.0000 0.0803996992
C   C335      1.0  0.93087  0.01276  0.10334  1.0000 0.0178488454
C   C336      1.0  0.94428  0.97770  0.18237  1.0000 0.0697793046
C   C337      1.0  0.71751  0.31471  0.56450  1.0000 0.0178488454
C   C338      1.0  0.83580  0.18727  0.54909  1.0000 -0.1598517415
C   C339      1.0  0.81524  0.34220  0.65750  1.0000 0.0697793046
C   C340      1.0  0.93039  0.97176  0.23399  1.0000 0.0697793046
C   C341      1.0  0.99940  0.95978  0.11709  1.0000 0.0178488454
C   C342      1.0  0.98501  0.95555  0.16487  1.0000 -0.1923779482
C   C343      1.0  0.91773  0.00571  0.15129  1.0000 -0.1923779482
C   C344      1.0  0.97132  0.98857  0.08772  1.0000 0.0419644583
C   C345      1.0  0.75903  0.58847  0.57260  1.0000 -0.1923779482
C   C346      1.0  0.70057  0.40223  0.64310  1.0000 -0.0710710818
C   C347      1.0  0.75438  0.16368  0.54250  1.0000 -0.1510978183
C   C348      1.0  0.81567  0.57152  0.63510  1.0000 -0.1923779482
C   C349      1.0  0.04550  0.93420  0.10050  1.0000 0.0803996992
C   C350      1.0  0.78632  0.31774  0.61900  1.0000 0.0178488454
C   C351      1.0  0.68160  0.34830  0.48980  1.0000 -0.4115583397
C   C352      1.0  0.08990  0.96120  0.11810  1.0000 -0.4376737376
C   C353      1.0  0.86840  0.33230  0.65470  1.0000 -0.4186035357
C   C354      1.0  0.62920  0.30770  0.54900  1.0000 -0.4115583397
C   C355      1.0  0.04620  0.88250  0.11550  1.0000 -0.4376737376
C   C356      1.0  0.69800  0.52723  0.54250  1.0000 0.0803996992
C   C357      1.0  0.90090  0.04490  0.07089  1.0000 0.0697793046
C   C358      1.0  0.75888  0.51287  0.60960  1.0000 0.0419644583
C   C359      1.0  0.79632  0.52475  0.64028  1.0000 0.0178488454
C   C360      1.0  0.73888  0.54296  0.57570  1.0000 0.0100540997
C   C361      1.0  0.70421  0.45003  0.64580  1.0000 -0.0710710818
C   C362      1.0  0.66370  0.56800  0.52870  1.0000 -0.4470305368
C   C363      1.0  0.88808  0.09220  0.09380  1.0000 -0.4115583397
C   C364      1.0  0.81890  0.49048  0.67590  1.0000 0.0697793046
C   C365      1.0  0.71940  0.50560  0.49670  1.0000 -0.4314042963
C   C366      1.0  0.81910  0.50990  0.72740  1.0000 -0.4186035357
C   C367      1.0  0.86890  0.47650  0.66100  1.0000 -0.4115583397
C   C368      1.0  0.85580  0.01760  0.05350  1.0000 -0.4115583397
C   C369      1.0  0.97162  0.97162  0.00000  1.0000 -0.0225934893
C   C370      1.0  0.94092  0.16777  0.99597  1.0000 0.528244447
C   C371      1.0  0.25987  0.13899  0.92536  1.0000 -0.0336114336
C   C372      1.0  0.85750  0.15004  0.96739  1.0000 -0.107615818
C   C373      1.0  0.04516  0.10750  0.11658  1.0000 0.5381865613
C   C374      1.0  0.29846  0.11073  0.91228  1.0000 -0.107615818
C   C375      1.0  0.89264  0.18437  0.97785  1.0000 -0.0225934893
C   C376      1.0  0.97304  0.97804  0.47629  1.0000 -0.0526762249
C   C377      1.0  0.72917  0.20187  0.89548  1.0000 -0.1993555277
C   C378      1.0  0.88124  0.23088  0.97394  1.0000 -0.0974488216
C   C379      1.0  0.06955  0.05764  0.24062  1.0000 -0.1598517415
C   C380      1.0  0.03882  0.09457  0.16890  1.0000 -0.0225934893
C   C381      1.0  0.21414  0.11604  0.94138  1.0000 0.5696005039
C   C382      1.0  0.26564  0.18827  0.92612  1.0000 -0.0974488216
C   C383      1.0  0.34885  0.18103  0.90540  1.0000 0.0697793046
C   C384      1.0  0.73154  0.26886  0.94819  1.0000 -0.1993555277
C   C385      1.0  0.99287  0.09531  0.24196  1.0000 -0.1598517415
C   C386      1.0  0.07470  0.06936  0.19264  1.0000 -0.107615818
C   C387      1.0  0.80225  0.21351  0.94539  1.0000 0.0697793046
C   C388      1.0  0.30973  0.20887  0.91649  1.0000 -0.1510978183
C   C389      1.0  0.57453  0.24221  0.90640  1.0000 -0.0526762249
C   C390      1.0  0.34253  0.13175  0.90259  1.0000 -0.1598517415
C   C391      1.0  0.99829  0.10726  0.19396  1.0000 -0.107615818
C   C392      1.0  0.66900  0.20440  0.79360  1.0000 -0.4376737376
C   C393      1.0  0.66218  0.32730  0.95810  1.0000 0.0803996992
C   C394      1.0  0.75347  0.22853  0.92921  1.0000 0.0803996992
C   C395      1.0  0.66200  0.25389  0.90304  1.0000 0.0419644583
C   C396      1.0  0.39707  0.20287  0.89877  1.0000 0.0803996992
C   C397      1.0  0.98724  0.06913  0.39666  1.0000 0.0178488454
C   C398      1.0  0.02230  0.05572  0.31763  1.0000 0.0697793046
C   C399      1.0  0.68529  0.28249  0.93550  1.0000 0.0178488454
C   C400      1.0  0.81273  0.16420  0.95091  1.0000 -0.1598517415
C   C401      1.0  0.65780  0.18476  0.84250  1.0000 0.0697793046
C   C402      1.0  0.02824  0.06961  0.26601  1.0000 0.0697793046
C   C403      1.0  0.04022  0.00060  0.38291  1.0000 0.0178488454
C   C404      1.0  0.04445  0.01499  0.33513  1.0000 -0.1923779482
C   C405      1.0  0.99429  0.08227  0.34871  1.0000 -0.1923779482
C   C406      1.0  0.01143  0.02868  0.41228  1.0000 0.0419644583
C   C407      1.0  0.41153  0.24097  0.92740  1.0000 -0.1923779482
C   C408      1.0  0.59777  0.29943  0.85690  1.0000 -0.0710710818
C   C409      1.0  0.83632  0.24562  0.95750  1.0000 -0.1510978183
C   C410      1.0  0.42848  0.18433  0.86490  1.0000 -0.1923779482
C   C411      1.0  0.06580  0.95450  0.39950  1.0000 0.0803996992
C   C412      1.0  0.68226  0.21368  0.88100  1.0000 0.0178488454
C   C413      1.0  0.65170  0.31840  0.01020  1.0000 -0.4115583397
C   C414      1.0  0.03880  0.91010  0.38190  1.0000 -0.4376737376
C   C415      1.0  0.66770  0.13160  0.84530  1.0000 -0.4186035357
C   C416      1.0  0.69230  0.37080  0.95100  1.0000 -0.4115583397
C   C417      1.0  0.11750  0.95380  0.38450  1.0000 -0.4376737376
C   C418      1.0  0.47277  0.30200  0.95750  1.0000 0.0803996992
C   C419      1.0  0.95510  0.09910  0.42911  1.0000 0.0697793046
C   C420      1.0  0.48713  0.24112  0.89040  1.0000 0.0419644583
C   C421      1.0  0.47525  0.20368  0.85972  1.0000 0.0178488454
C   C422      1.0  0.45704  0.26112  0.92430  1.0000 0.0100540997
C   C423      1.0  0.54997  0.29579  0.85420  1.0000 -0.0710710818
C   C424      1.0  0.43200  0.33630  0.97130  1.0000 -0.4470305368
C   C425      1.0  0.90780  0.11192  0.40620  1.0000 -0.4115583397
C   C426      1.0  0.50952  0.18110  0.82410  1.0000 0.0697793046
C   C427      1.0  0.49440  0.28060  0.00330  1.0000 -0.4314042963
C   C428      1.0  0.49010  0.18090  0.77260  1.0000 -0.4186035357
C   C429      1.0  0.52350  0.13110  0.83900  1.0000 -0.4115583397
C   C430      1.0  0.98240  0.14420  0.44650  1.0000 -0.4115583397
C   C431      1.0  0.16777  0.94092  0.00403  1.0000 0.528244447
C   C432      1.0  0.13899  0.25987  0.07464  1.0000 -0.0336114336
C   C433      1.0  0.15004  0.85750  0.03261  1.0000 -0.107615818
C   C434      1.0  0.10750  0.04516  0.88342  1.0000 0.5381865613
C   C435      1.0  0.11073  0.29846  0.08772  1.0000 -0.107615818
C   C436      1.0  0.18437  0.89264  0.02215  1.0000 -0.0225934893
C   C437      1.0  0.97804  0.97304  0.52371  1.0000 -0.0526762249
C   C438      1.0  0.20187  0.72917  0.10452  1.0000 -0.1993555277
C   C439      1.0  0.23088  0.88124  0.02606  1.0000 -0.0974488216
C   C440      1.0  0.05764  0.06955  0.75938  1.0000 -0.1598517415
C   C441      1.0  0.09457  0.03882  0.83110  1.0000 -0.0225934893
C   C442      1.0  0.11604  0.21414  0.05862  1.0000 0.5696005039
C   C443      1.0  0.18827  0.26564  0.07388  1.0000 -0.0974488216
C   C444      1.0  0.18103  0.34885  0.09460  1.0000 0.0697793046
C   C445      1.0  0.26886  0.73154  0.05181  1.0000 -0.1993555277
C   C446      1.0  0.09531  0.99287  0.75804  1.0000 -0.1598517415
C   C447      1.0  0.06936  0.07470  0.80736  1.0000 -0.107615818
C   C448      1.0  0.21351  0.80225  0.05461  1.0000 0.0697793046
C   C449      1.0  0.20887  0.30973  0.08351  1.0000 -0.1510978183
C   C450      1.0  0.24221  0.57453  0.09360  1.0000 -0.0526762249
C   C451      1.0  0.13175  0.34253  0.09741  1.0000 -0.1598517415
C   C452      1.0  0.10726  0.99829  0.80604  1.0000 -0.107615818
C   C453      1.0  0.20440  0.66900  0.20640  1.0000 -0.4376737376
C   C454      1.0  0.32730  0.66218  0.04190  1.0000 0.0803996992
C   C455      1.0  0.22853  0.75347  0.07079  1.0000 0.0803996992
C   C456      1.0  0.25389  0.66200  0.09696  1.0000 0.0419644583
C   C457      1.0  0.20287  0.39707  0.10123  1.0000 0.0803996992
C   C458      1.0  0.06913  0.98724  0.60334  1.0000 0.0178488454
C   C459      1.0  0.05572  0.02230  0.68237  1.0000 0.0697793046
C   C460      1.0  0.28249  0.68529  0.06450  1.0000 0.0178488454
C   C461      1.0  0.16420  0.81273  0.04909  1.0000 -0.1598517415
C   C462      1.0  0.18476  0.65780  0.15750  1.0000 0.0697793046
C   C463      1.0  0.06961  0.02824  0.73399  1.0000 0.0697793046
C   C464      1.0  0.00060  0.04022  0.61709  1.0000 0.0178488454
C   C465      1.0  0.01499  0.04445  0.66487  1.0000 -0.1923779482
C   C466      1.0  0.08227  0.99429  0.65129  1.0000 -0.1923779482
C   C467      1.0  0.02868  0.01143  0.58772  1.0000 0.0419644583
C   C468      1.0  0.24097  0.41153  0.07260  1.0000 -0.1923779482
C   C469      1.0  0.29943  0.59777  0.14310  1.0000 -0.0710710818
C   C470      1.0  0.24562  0.83632  0.04250  1.0000 -0.1510978183
C   C471      1.0  0.18433  0.42848  0.13510  1.0000 -0.1923779482
C   C472      1.0  0.95450  0.06580  0.60050  1.0000 0.0803996992
C   C473      1.0  0.21368  0.68226  0.11900  1.0000 0.0178488454
C   C474      1.0  0.31840  0.65170  0.98980  1.0000 -0.4115583397
C   C475      1.0  0.91010  0.03880  0.61810  1.0000 -0.4376737376
C   C476      1.0  0.13160  0.66770  0.15470  1.0000 -0.4186035357
C   C477      1.0  0.37080  0.69230  0.04900  1.0000 -0.4115583397
C   C478      1.0  0.95380  0.11750  0.61550  1.0000 -0.4376737376
C   C479      1.0  0.30200  0.47277  0.04250  1.0000 0.0803996992
C   C480      1.0  0.09910  0.95510  0.57089  1.0000 0.0697793046
C   C481      1.0  0.24112  0.48713  0.10960  1.0000 0.0419644583
C   C482      1.0  0.20368  0.47525  0.14028  1.0000 0.0178488454
C   C483      1.0  0.26112  0.45704  0.07570  1.0000 0.0100540997
C   C484      1.0  0.29579  0.54997  0.14580  1.0000 -0.0710710818
C   C485      1.0  0.33630  0.43200  0.02870  1.0000 -0.4470305368
C   C486      1.0  0.11192  0.90780  0.59380  1.0000 -0.4115583397
C   C487      1.0  0.18110  0.50952  0.17590  1.0000 0.0646179132
C   C488      1.0  0.28060  0.49440  0.99670  1.0000 -0.4314042963
C   C489      1.0  0.18090  0.49010  0.22740  1.0000 -0.4186035357
C   C490      1.0  0.13110  0.52350  0.16100  1.0000 -0.4115583397
C   C491      1.0  0.14420  0.98240  0.55350  1.0000 -0.4115583397
C   C492      1.0  0.02838  0.02838  0.50000  1.0000 -0.0225934893
N   N1        1.0  0.48701  0.50464  0.71174  1.0000 0.0018126106
N   N2        1.0  0.23433  0.11289  0.14014  1.0000 0.0018126106
N   N3        1.0  0.23972  0.03578  0.13537  1.0000 0.0018126106
N   N4        1.0  0.49536  0.51299  0.78826  1.0000 0.0018126106
N   N5        1.0  0.88711  0.76567  0.35986  1.0000 0.0018126106
N   N6        1.0  0.96422  0.76028  0.36463  1.0000 0.0018126106
N   N7        1.0  0.51299  0.49536  0.21174  1.0000 0.0018126106
N   N8        1.0  0.76567  0.88711  0.64014  1.0000 0.0018126106
N   N9        1.0  0.76028  0.96422  0.63537  1.0000 0.0018126106
N   N10       1.0  0.50464  0.48701  0.28826  1.0000 0.0018126106
N   N11       1.0  0.11289  0.23433  0.85986  1.0000 0.0018126106
N   N12       1.0  0.03578  0.23972  0.86463  1.0000 0.0018126106
N   N13       1.0  0.99536  0.98701  0.96174  1.0000 0.0018126106
N   N14       1.0  0.38711  0.73433  0.39014  1.0000 -0.0003513745
N   N15       1.0  0.46422  0.73972  0.38537  1.0000 0.0018126106
N   N16       1.0  0.98701  0.99536  0.03826  1.0000 0.0018126106
N   N17       1.0  0.73433  0.38711  0.60986  1.0000 -0.0003513745
N   N18       1.0  0.73972  0.46422  0.61463  1.0000 0.0018126106
N   N19       1.0  0.00464  0.01299  0.46174  1.0000 0.0018126106
N   N20       1.0  0.61289  0.26567  0.89014  1.0000 -0.0003513745
N   N21       1.0  0.53578  0.26028  0.88537  1.0000 0.0018126106
N   N22       1.0  0.01299  0.00464  0.53826  1.0000 0.0018126106
N   N23       1.0  0.26567  0.61289  0.10986  1.0000 -0.0003513745
N   N24       1.0  0.26028  0.53578  0.11463  1.0000 0.0018126106
O   O1        1.0  0.42886  0.71320  0.19167  1.0000 -0.5152530558
O   O2        1.0  0.36886  0.51099  0.34740  1.0000 -0.5525587089
O   O3        1.0  0.35922  0.56293  0.23297  1.0000 -0.7088930346
O   O4        1.0  0.40587  0.58191  0.34532  1.0000 -0.4926104136
O   O5        1.0  0.37584  0.45090  0.24676  1.0000 -0.503484685
O   O6        1.0  0.30102  0.46833  0.26287  1.0000 -0.5116938936
O   O7        1.0  0.35666  0.68025  0.20380  1.0000 -0.5266215838
O   O8        1.0  0.28680  0.57114  0.30833  1.0000 -0.5116938936
O   O9        1.0  0.48901  0.63114  0.15260  1.0000 -0.5525587089
O   O10       1.0  0.43707  0.64078  0.26703  1.0000 -0.7088930346
O   O11       1.0  0.41809  0.59413  0.15468  1.0000 -0.4926104136
O   O12       1.0  0.54910  0.62416  0.25324  1.0000 -0.503484685
O   O13       1.0  0.53167  0.69898  0.23713  1.0000 -0.5116938936
O   O14       1.0  0.31975  0.64334  0.29620  1.0000 -0.5266215838
O   O15       1.0  0.57114  0.28680  0.69167  1.0000 -0.5152530558
O   O16       1.0  0.63114  0.48901  0.84740  1.0000 -0.5525587089
O   O17       1.0  0.64078  0.43707  0.73297  1.0000 -0.7088930346
O   O18       1.0  0.59413  0.41809  0.84532  1.0000 -0.4926104136
O   O19       1.0  0.62416  0.54910  0.74676  1.0000 -0.503484685
O   O20       1.0  0.69898  0.53167  0.76287  1.0000 -0.5116938936
O   O21       1.0  0.64334  0.31975  0.70380  1.0000 -0.5266215838
O   O22       1.0  0.71320  0.42886  0.80833  1.0000 -0.5116938936
O   O23       1.0  0.51099  0.36886  0.65260  1.0000 -0.5525587089
O   O24       1.0  0.56293  0.35922  0.76703  1.0000 -0.7088930346
O   O25       1.0  0.58191  0.40587  0.65468  1.0000 -0.4926104136
O   O26       1.0  0.45090  0.37584  0.75324  1.0000 -0.503484685
O   O27       1.0  0.46833  0.30102  0.73713  1.0000 -0.5116938936
O   O28       1.0  0.68025  0.35666  0.79620  1.0000 -0.5266215838
O   O29       1.0  0.78680  0.92886  0.44167  1.0000 -0.5116938936
O   O30       1.0  0.98901  0.86886  0.59740  1.0000 -0.5525587089
O   O31       1.0  0.93707  0.85922  0.48297  1.0000 -0.7088930346
O   O32       1.0  0.91809  0.90587  0.59532  1.0000 -0.4926104136
O   O33       1.0  0.04910  0.87584  0.49676  1.0000 -0.503484685
O   O34       1.0  0.03167  0.80102  0.51287  1.0000 -0.5116938936
O   O35       1.0  0.81975  0.85666  0.45380  1.0000 -0.5266215838
O   O36       1.0  0.92886  0.78680  0.55833  1.0000 -0.5116938936
O   O37       1.0  0.86886  0.98901  0.40260  1.0000 -0.5525587089
O   O38       1.0  0.85922  0.93707  0.51703  1.0000 -0.7088930346
O   O39       1.0  0.90587  0.91809  0.40468  1.0000 -0.4926104136
O   O40       1.0  0.87584  0.04910  0.50324  1.0000 -0.503484685
O   O41       1.0  0.80102  0.03167  0.48713  1.0000 -0.5116938936
O   O42       1.0  0.85666  0.81975  0.54620  1.0000 -0.5266215838
O   O43       1.0  0.21320  0.07114  0.94167  1.0000 -0.5152530558
O   O44       1.0  0.01099  0.13114  0.09740  1.0000 -0.5525587089
O   O45       1.0  0.06293  0.14078  0.98297  1.0000 -0.7088930346
O   O46       1.0  0.08191  0.09413  0.09532  1.0000 -0.4926104136
O   O47       1.0  0.95090  0.12416  0.99676  1.0000 -0.503484685
O   O48       1.0  0.96833  0.19898  0.01287  1.0000 -0.5116938936
O   O49       1.0  0.18025  0.14334  0.95380  1.0000 -0.5266215838
O   O50       1.0  0.07114  0.21320  0.05833  1.0000 -0.5152530558
O   O51       1.0  0.13114  0.01099  0.90260  1.0000 -0.5525587089
O   O52       1.0  0.14078  0.06293  0.01703  1.0000 -0.7088930346
O   O53       1.0  0.09413  0.08191  0.90468  1.0000 -0.4926104136
O   O54       1.0  0.12416  0.95090  0.00324  1.0000 -0.503484685
O   O55       1.0  0.19898  0.96833  0.98713  1.0000 -0.5116938936
O   O56       1.0  0.14334  0.18025  0.04620  1.0000 -0.5266215838
