# DDEC6 charges by PACMAN v1.1 (https://github.com/mtap-research/PACMAN-charge/)
data_2019[Co][hcb]2[FSR]2
_chemical_formula_sum              "Co4 H76 C104 N20 O20"
_cell_length_a       9.233
_cell_length_b       23.952
_cell_length_c       12.787
_cell_angle_alpha    90
_cell_angle_beta     115.477
_cell_angle_gamma    90

_symmetry_space_group_name_H-M    "P 1"
_symmetry_Int_Tables_number       1

loop_
  _symmetry_equiv_pos_as_xyz
  'x, y, z'

loop_
  _atom_site_type_symbol
  _atom_site_label
  _atom_site_symmetry_multiplicity
  _atom_site_fract_x
  _atom_site_fract_y
  _atom_site_fract_z
  _atom_site_occupancy
  _atom_site_charge
Co  Co1       1.0  0.49035  0.84511  0.08526  1.0000 0.7917092738
Co  Co2       1.0  0.50965  0.34511  0.41474  1.0000 0.7917092738
Co  Co3       1.0  0.50965  0.15489  0.91474  1.0000 0.7917092738
Co  Co4       1.0  0.49035  0.65489  0.58526  1.0000 0.7917092738
H   H1        1.0  0.75300  0.84380  0.50640  1.0000 0.138167991
H   H2        1.0  0.15980  0.75800  0.68220  1.0000 0.131299298
H   H3        1.0  0.96390  0.76370  0.33300  1.0000 0.1202864846
H   H4        1.0  0.77490  0.81440  0.01320  1.0000 0.131299298
H   H5        1.0  0.75830  0.81840  0.81760  1.0000 0.138167991
H   H6        1.0  0.33110  0.85430  0.80450  1.0000 0.1135590893
H   H7        1.0  0.72110  0.05820  0.09470  1.0000 0.1135590893
H   H8        1.0  0.62570  0.95800  0.82670  1.0000 0.131299298
H   H9        1.0  0.47700  0.04480  0.75770  1.0000 0.138167991
H   H10       1.0  0.57130  0.78370  0.60970  1.0000 0.131299298
H   H11       1.0  0.44360  0.79140  0.41060  1.0000 0.131299298
H   H12       1.0  0.19490  0.92310  0.43970  1.0000 0.1202864846
H   H13       1.0  0.31700  0.91370  0.63850  1.0000 0.1202864846
H   H14       1.0  0.97600  0.89590  0.31360  1.0000 0.1202864846
H   H15       1.0  0.14900  0.89120  0.07460  1.0000 0.1202864846
H   H16       1.0  0.93760  0.94510  0.95340  1.0000 0.1202864846
H   H17       1.0  0.76800  0.95150  0.19230  1.0000 0.1202864846
H   H18       1.0  0.26800  0.83890  0.25100  1.0000 0.2861085531
H   H19       1.0  0.03200  0.81640  0.76500  1.0000 0.3469935951
H   H20       1.0  0.24700  0.34380  0.99360  1.0000 0.138167991
H   H21       1.0  0.84020  0.25800  0.81780  1.0000 0.131299298
H   H22       1.0  0.03610  0.26370  0.16700  1.0000 0.1202864846
H   H23       1.0  0.22510  0.31440  0.48680  1.0000 0.131299298
H   H24       1.0  0.24170  0.31840  0.68240  1.0000 0.138167991
H   H25       1.0  0.66890  0.35430  0.69550  1.0000 0.1135590893
H   H26       1.0  0.27890  0.55820  0.40530  1.0000 0.1135590893
H   H27       1.0  0.37430  0.45800  0.67330  1.0000 0.131299298
H   H28       1.0  0.52300  0.54480  0.74230  1.0000 0.138167991
H   H29       1.0  0.42870  0.28370  0.89030  1.0000 0.131299298
H   H30       1.0  0.55640  0.29140  0.08940  1.0000 0.131299298
H   H31       1.0  0.80510  0.42310  0.06030  1.0000 0.1202864846
H   H32       1.0  0.68300  0.41370  0.86150  1.0000 0.1202864846
H   H33       1.0  0.02400  0.39590  0.18640  1.0000 0.1202864846
H   H34       1.0  0.85100  0.39120  0.42540  1.0000 0.1202864846
H   H35       1.0  0.06240  0.44510  0.54660  1.0000 0.1202864846
H   H36       1.0  0.23200  0.45150  0.30770  1.0000 0.1202864846
H   H37       1.0  0.73200  0.33890  0.24900  1.0000 0.2861085531
H   H38       1.0  0.96800  0.31640  0.73500  1.0000 0.3469935951
H   H39       1.0  0.24700  0.15620  0.49360  1.0000 0.138167991
H   H40       1.0  0.84020  0.24200  0.31780  1.0000 0.131299298
H   H41       1.0  0.03610  0.23630  0.66700  1.0000 0.1202864846
H   H42       1.0  0.22510  0.18560  0.98680  1.0000 0.131299298
H   H43       1.0  0.24170  0.18160  0.18240  1.0000 0.138167991
H   H44       1.0  0.66890  0.14570  0.19550  1.0000 0.1135590893
H   H45       1.0  0.27890  0.94180  0.90530  1.0000 0.1135590893
H   H46       1.0  0.37430  0.04200  0.17330  1.0000 0.131299298
H   H47       1.0  0.52300  0.95520  0.24230  1.0000 0.138167991
H   H48       1.0  0.42870  0.21630  0.39030  1.0000 0.131299298
H   H49       1.0  0.55640  0.20860  0.58940  1.0000 0.131299298
H   H50       1.0  0.80510  0.07690  0.56030  1.0000 0.1202864846
H   H51       1.0  0.68300  0.08630  0.36150  1.0000 0.1202864846
H   H52       1.0  0.02400  0.10410  0.68640  1.0000 0.1202864846
H   H53       1.0  0.85100  0.10880  0.92540  1.0000 0.1202864846
H   H54       1.0  0.06240  0.05490  0.04660  1.0000 0.1202864846
H   H55       1.0  0.23200  0.04850  0.80770  1.0000 0.1202864846
H   H56       1.0  0.73200  0.16110  0.74900  1.0000 0.2861085531
H   H57       1.0  0.96800  0.18360  0.23500  1.0000 0.3469935951
H   H58       1.0  0.75300  0.65620  0.00640  1.0000 0.138167991
H   H59       1.0  0.15980  0.74200  0.18220  1.0000 0.131299298
H   H60       1.0  0.96390  0.73630  0.83300  1.0000 0.1202864846
H   H61       1.0  0.77490  0.68560  0.51320  1.0000 0.131299298
H   H62       1.0  0.75830  0.68160  0.31760  1.0000 0.138167991
H   H63       1.0  0.33110  0.64570  0.30450  1.0000 0.1135590893
H   H64       1.0  0.72110  0.44180  0.59470  1.0000 0.1135590893
H   H65       1.0  0.62570  0.54200  0.32670  1.0000 0.131299298
H   H66       1.0  0.47700  0.45520  0.25770  1.0000 0.138167991
H   H67       1.0  0.57130  0.71630  0.10970  1.0000 0.131299298
H   H68       1.0  0.44360  0.70860  0.91060  1.0000 0.131299298
H   H69       1.0  0.19490  0.57690  0.93970  1.0000 0.1202864846
H   H70       1.0  0.31700  0.58630  0.13850  1.0000 0.1202864846
H   H71       1.0  0.97600  0.60410  0.81360  1.0000 0.1202864846
H   H72       1.0  0.14900  0.60880  0.57460  1.0000 0.1202864846
H   H73       1.0  0.93760  0.55490  0.45340  1.0000 0.1202864846
H   H74       1.0  0.76800  0.54850  0.69230  1.0000 0.1202864846
H   H75       1.0  0.26800  0.66110  0.75100  1.0000 0.2861085531
H   H76       1.0  0.03200  0.68360  0.26500  1.0000 0.3469935951
C   C1        1.0  0.70330  0.82554  0.29140  1.0000 0.534739643
C   C2        1.0  0.20430  0.71346  0.50620  1.0000 0.5512671766
C   C3        1.0  0.83790  0.80677  0.40290  1.0000 -0.0122457597
C   C4        1.0  0.83610  0.82178  0.50670  1.0000 -0.2214957777
C   C5        1.0  0.95660  0.80434  0.61130  1.0000 0.3008607325
C   C6        1.0  0.07900  0.76999  0.61220  1.0000 -0.2699581462
C   C7        1.0  0.08010  0.75356  0.50760  1.0000 -0.0122457597
C   C8        1.0  0.96090  0.77313  0.40260  1.0000 -0.1708205785
C   C9        1.0  0.68320  0.82303  0.94650  1.0000 -0.0300999036
C   C10       1.0  0.67540  0.82515  0.83880  1.0000 -0.0917685817
C   C11       1.0  0.43910  0.84504  0.83270  1.0000 0.0886550627
C   C12       1.0  0.67870  0.04442  0.01940  1.0000 0.0886550627
C   C13       1.0  0.62710  0.98859  0.87190  1.0000 -0.1030748862
C   C14       1.0  0.54480  0.03668  0.83450  1.0000 -0.0300999036
C   C15       1.0  0.45020  0.84659  0.64350  1.0000 0.138167991
C   C16       1.0  0.49270  0.81075  0.57530  1.0000 -0.142035872
C   C17       1.0  0.41690  0.81583  0.45610  1.0000 -0.1708205785
C   C18       1.0  0.30070  0.85696  0.40230  1.0000 0.2275592607
C   C19       1.0  0.26760  0.89420  0.47320  1.0000 -0.1761293682
C   C20       1.0  0.34130  0.88875  0.59260  1.0000 -0.1761293682
C   C21       1.0  0.97180  0.90706  0.24270  1.0000 -0.1708205785
C   C22       1.0  0.09290  0.89021  0.21100  1.0000 0.2275592607
C   C23       1.0  0.07450  0.90410  0.10000  1.0000 -0.1761293682
C   C24       1.0  0.94800  0.93650  0.02720  1.0000 -0.1708205785
C   C25       1.0  0.83600  0.95627  0.06350  1.0000 0.131299298
C   C26       1.0  0.84640  0.94008  0.16950  1.0000 -0.1708205785
C   C27       1.0  0.29670  0.32554  0.20860  1.0000 0.534739643
C   C28       1.0  0.79570  0.21346  0.99380  1.0000 0.5512671766
C   C29       1.0  0.16210  0.30677  0.09710  1.0000 -0.0122457597
C   C30       1.0  0.16390  0.32178  0.99330  1.0000 -0.2214957777
C   C31       1.0  0.04340  0.30434  0.88870  1.0000 0.3008607325
C   C32       1.0  0.92100  0.26999  0.88780  1.0000 -0.2699581462
C   C33       1.0  0.91990  0.25356  0.99240  1.0000 -0.0122457597
C   C34       1.0  0.03910  0.27313  0.09740  1.0000 -0.1708205785
C   C35       1.0  0.31680  0.32303  0.55350  1.0000 -0.0300999036
C   C36       1.0  0.32460  0.32515  0.66120  1.0000 -0.0917685817
C   C37       1.0  0.56090  0.34504  0.66730  1.0000 0.0886550627
C   C38       1.0  0.32130  0.54442  0.48060  1.0000 0.0886550627
C   C39       1.0  0.37290  0.48859  0.62810  1.0000 -0.1030748862
C   C40       1.0  0.45520  0.53668  0.66550  1.0000 -0.0300999036
C   C41       1.0  0.54980  0.34659  0.85650  1.0000 0.138167991
C   C42       1.0  0.50730  0.31075  0.92470  1.0000 -0.142035872
C   C43       1.0  0.58310  0.31583  0.04390  1.0000 -0.1708205785
C   C44       1.0  0.69930  0.35696  0.09770  1.0000 0.2275592607
C   C45       1.0  0.73240  0.39420  0.02680  1.0000 -0.1761293682
C   C46       1.0  0.65870  0.38875  0.90740  1.0000 -0.1708205785
C   C47       1.0  0.02820  0.40706  0.25730  1.0000 -0.1708205785
C   C48       1.0  0.90710  0.39021  0.28900  1.0000 0.2275592607
C   C49       1.0  0.92550  0.40410  0.40000  1.0000 -0.1761293682
C   C50       1.0  0.05200  0.43650  0.47280  1.0000 -0.1708205785
C   C51       1.0  0.16400  0.45627  0.43650  1.0000 0.131299298
C   C52       1.0  0.15360  0.44008  0.33050  1.0000 -0.1708205785
C   C53       1.0  0.29670  0.17446  0.70860  1.0000 0.534739643
C   C54       1.0  0.79570  0.28654  0.49380  1.0000 0.5512671766
C   C55       1.0  0.16210  0.19323  0.59710  1.0000 -0.0122457597
C   C56       1.0  0.16390  0.17822  0.49330  1.0000 -0.2214957777
C   C57       1.0  0.04340  0.19566  0.38870  1.0000 0.3008607325
C   C58       1.0  0.92100  0.23001  0.38780  1.0000 -0.2699581462
C   C59       1.0  0.91990  0.24644  0.49240  1.0000 -0.0122457597
C   C60       1.0  0.03910  0.22687  0.59740  1.0000 -0.1708205785
C   C61       1.0  0.31680  0.17697  0.05350  1.0000 -0.0300999036
C   C62       1.0  0.32460  0.17485  0.16120  1.0000 -0.0917685817
C   C63       1.0  0.56090  0.15496  0.16730  1.0000 0.0886550627
C   C64       1.0  0.32130  0.95558  0.98060  1.0000 0.0886550627
C   C65       1.0  0.37290  0.01141  0.12810  1.0000 -0.1030748862
C   C66       1.0  0.45520  0.96332  0.16550  1.0000 -0.0300999036
C   C67       1.0  0.54980  0.15341  0.35650  1.0000 0.138167991
C   C68       1.0  0.50730  0.18925  0.42470  1.0000 -0.142035872
C   C69       1.0  0.58310  0.18417  0.54390  1.0000 -0.1708205785
C   C70       1.0  0.69930  0.14304  0.59770  1.0000 0.2275592607
C   C71       1.0  0.73240  0.10580  0.52680  1.0000 -0.1708205785
C   C72       1.0  0.65870  0.11125  0.40740  1.0000 -0.1761293682
C   C73       1.0  0.02820  0.09294  0.75730  1.0000 -0.1708205785
C   C74       1.0  0.90710  0.10979  0.78900  1.0000 0.2275592607
C   C75       1.0  0.92550  0.09590  0.90000  1.0000 -0.1761293682
C   C76       1.0  0.05200  0.06350  0.97280  1.0000 -0.1708205785
C   C77       1.0  0.16400  0.04373  0.93650  1.0000 0.131299298
C   C78       1.0  0.15360  0.05992  0.83050  1.0000 -0.1708205785
C   C79       1.0  0.70330  0.67446  0.79140  1.0000 0.534739643
C   C80       1.0  0.20430  0.78654  0.00620  1.0000 0.5512671766
C   C81       1.0  0.83790  0.69323  0.90290  1.0000 -0.0122457597
C   C82       1.0  0.83610  0.67822  0.00670  1.0000 -0.2214957777
C   C83       1.0  0.95660  0.69566  0.11130  1.0000 0.3008607325
C   C84       1.0  0.07900  0.73001  0.11220  1.0000 -0.2699581462
C   C85       1.0  0.08010  0.74644  0.00760  1.0000 -0.0122457597
C   C86       1.0  0.96090  0.72687  0.90260  1.0000 -0.1708205785
C   C87       1.0  0.68320  0.67697  0.44650  1.0000 -0.0300999036
C   C88       1.0  0.67540  0.67485  0.33880  1.0000 -0.0917685817
C   C89       1.0  0.43910  0.65496  0.33270  1.0000 0.0886550627
C   C90       1.0  0.67870  0.45558  0.51940  1.0000 0.0886550627
C   C91       1.0  0.62710  0.51141  0.37190  1.0000 -0.1030748862
C   C92       1.0  0.54480  0.46332  0.33450  1.0000 -0.0300999036
C   C93       1.0  0.45020  0.65341  0.14350  1.0000 0.138167991
C   C94       1.0  0.49270  0.68925  0.07530  1.0000 -0.142035872
C   C95       1.0  0.41690  0.68417  0.95610  1.0000 -0.1708205785
C   C96       1.0  0.30070  0.64304  0.90230  1.0000 0.2275592607
C   C97       1.0  0.26760  0.60580  0.97320  1.0000 -0.1761293682
C   C98       1.0  0.34130  0.61125  0.09260  1.0000 -0.1761293682
C   C99       1.0  0.97180  0.59294  0.74270  1.0000 -0.1708205785
C   C100      1.0  0.09290  0.60979  0.71100  1.0000 0.2275592607
C   C101      1.0  0.07450  0.59590  0.60000  1.0000 -0.1761293682
C   C102      1.0  0.94800  0.56350  0.52720  1.0000 -0.1708205785
C   C103      1.0  0.83600  0.54373  0.56350  1.0000 0.131299298
C   C104      1.0  0.84640  0.55992  0.66950  1.0000 -0.1708205785
N   N1        1.0  0.53510  0.83551  0.94350  1.0000 -0.3122685853
N   N2        1.0  0.57620  0.07209  0.92700  1.0000 -0.3181290853
N   N3        1.0  0.51920  0.83946  0.76640  1.0000 0.008404358
N   N4        1.0  0.71320  0.99377  0.98960  1.0000 0.008404358
N   N5        1.0  0.22640  0.85931  0.28210  1.0000 -0.3181290853
N   N6        1.0  0.46490  0.33551  0.55650  1.0000 -0.3122685853
N   N7        1.0  0.42380  0.57209  0.57300  1.0000 -0.3181290853
N   N8        1.0  0.48080  0.33946  0.73360  1.0000 0.008404358
N   N9        1.0  0.28680  0.49377  0.51040  1.0000 0.008404358
N   N10       1.0  0.77360  0.35931  0.21790  1.0000 -0.3181290853
N   N11       1.0  0.46490  0.16449  0.05650  1.0000 -0.3122685853
N   N12       1.0  0.42380  0.92791  0.07300  1.0000 -0.3181290853
N   N13       1.0  0.48080  0.16054  0.23360  1.0000 0.008404358
N   N14       1.0  0.28680  0.00623  0.01040  1.0000 0.008404358
N   N15       1.0  0.77360  0.14069  0.71790  1.0000 -0.3181290853
N   N16       1.0  0.53510  0.66449  0.44350  1.0000 -0.3122685853
N   N17       1.0  0.57620  0.42791  0.42700  1.0000 -0.3181290853
N   N18       1.0  0.51920  0.66054  0.26640  1.0000 0.008404358
N   N19       1.0  0.71320  0.50623  0.48960  1.0000 0.008404358
N   N20       1.0  0.22640  0.64069  0.78210  1.0000 -0.3181290853
O   O1        1.0  0.70020  0.80951  0.19600  1.0000 -0.5285367671
O   O2        1.0  0.59420  0.85660  0.29300  1.0000 -0.5426675979
O   O3        1.0  0.32230  0.70140  0.60300  1.0000 -0.5488711897
O   O4        1.0  0.18930  0.69177  0.41370  1.0000 -0.5717914704
O   O5        1.0  0.94630  0.82204  0.70870  1.0000 -0.4372526858
O   O6        1.0  0.29980  0.30951  0.30400  1.0000 -0.5285367671
O   O7        1.0  0.40580  0.35660  0.20700  1.0000 -0.5426675979
O   O8        1.0  0.67770  0.20140  0.89700  1.0000 -0.5488711897
O   O9        1.0  0.81070  0.19177  0.08630  1.0000 -0.5717914704
O   O10       1.0  0.05370  0.32204  0.79130  1.0000 -0.4372526858
O   O11       1.0  0.29980  0.19049  0.80400  1.0000 -0.5285367671
O   O12       1.0  0.40580  0.14340  0.70700  1.0000 -0.5426675979
O   O13       1.0  0.67770  0.29860  0.39700  1.0000 -0.5488711897
O   O14       1.0  0.81070  0.30823  0.58630  1.0000 -0.5717914704
O   O15       1.0  0.05370  0.17796  0.29130  1.0000 -0.4372526858
O   O16       1.0  0.70020  0.69049  0.69600  1.0000 -0.5285367671
O   O17       1.0  0.59420  0.64340  0.79300  1.0000 -0.5426675979
O   O18       1.0  0.32230  0.79860  0.10300  1.0000 -0.5488711897
O   O19       1.0  0.18930  0.80823  0.91370  1.0000 -0.5717914704
O   O20       1.0  0.94630  0.67796  0.20870  1.0000 -0.4372526858
