# DDEC6 charges by PACMAN v1.1 (https://github.com/mtap-research/PACMAN-charge/)
data_2019[Tb][sql]2[FSR]1
_chemical_formula_sum              "Tb8 H88 C64 O68"
_cell_length_a       8.7271
_cell_length_b       14.0331
_cell_length_c       24.7841
_cell_angle_alpha    90
_cell_angle_beta     90
_cell_angle_gamma    90

_symmetry_space_group_name_H-M    "P 1"
_symmetry_Int_Tables_number       1

loop_
  _symmetry_equiv_pos_as_xyz
  'x, y, z'

loop_
  _atom_site_type_symbol
  _atom_site_label
  _atom_site_symmetry_multiplicity
  _atom_site_fract_x
  _atom_site_fract_y
  _atom_site_fract_z
  _atom_site_occupancy
  _atom_site_charge
Tb  Tb1       1.0  0.47245  0.10538  0.44284  1.0000 1.9627497809
Tb  Tb2       1.0  0.52755  0.89462  0.94284  1.0000 1.9627497809
Tb  Tb3       1.0  0.52755  0.89462  0.55716  1.0000 1.9627497809
Tb  Tb4       1.0  0.47245  0.10538  0.05716  1.0000 1.9627497809
Tb  Tb5       1.0  0.02755  0.60538  0.55716  1.0000 1.9627497809
Tb  Tb6       1.0  0.97245  0.39462  0.05716  1.0000 1.9627497809
Tb  Tb7       1.0  0.97245  0.39462  0.44284  1.0000 1.9627497809
Tb  Tb8       1.0  0.02755  0.60538  0.94284  1.0000 1.9627497809
H   H1        1.0  0.54202  0.28023  0.39803  1.0000 0.3712491186
H   H2        1.0  0.38157  0.27743  0.40005  1.0000 0.3712491186
H   H3        1.0  0.69265  0.12055  0.52280  1.0000 0.3807801472
H   H4        1.0  0.70236  0.20558  0.49403  1.0000 0.3807801472
H   H5        1.0  0.83160  0.83483  0.39762  1.0000 0.141968089
H   H6        1.0  0.75582  0.93094  0.37832  1.0000 0.141968089
H   H7        1.0  0.00772  0.91626  0.45209  1.0000 0.1089815155
H   H8        1.0  0.91928  0.01264  0.44514  1.0000 0.1089815155
H   H9        1.0  0.07946  0.92409  0.36155  1.0000 0.1294976936
H   H10       1.0  0.99893  0.02391  0.35746  1.0000 0.1294976936
H   H11       1.0  0.89737  0.22482  0.30100  1.0000 0.1501749175
H   H12       1.0  0.45798  0.71977  0.89803  1.0000 0.3712491186
H   H13       1.0  0.61843  0.72257  0.90005  1.0000 0.3712491186
H   H14       1.0  0.30735  0.87945  0.02280  1.0000 0.3807801472
H   H15       1.0  0.29764  0.79442  0.99403  1.0000 0.3807801472
H   H16       1.0  0.16840  0.16517  0.89762  1.0000 0.141968089
H   H17       1.0  0.24418  0.06906  0.87832  1.0000 0.141968089
H   H18       1.0  0.99228  0.08374  0.95209  1.0000 0.1089815155
H   H19       1.0  0.08072  0.98736  0.94514  1.0000 0.1089815155
H   H20       1.0  0.92054  0.07591  0.86155  1.0000 0.1294976936
H   H21       1.0  0.00107  0.97609  0.85746  1.0000 0.1294976936
H   H22       1.0  0.10263  0.77518  0.80100  1.0000 0.1501749175
H   H23       1.0  0.45798  0.71977  0.60197  1.0000 0.3712491186
H   H24       1.0  0.61843  0.72257  0.59995  1.0000 0.3712491186
H   H25       1.0  0.30735  0.87945  0.47720  1.0000 0.3807801472
H   H26       1.0  0.29764  0.79442  0.50597  1.0000 0.3807801472
H   H27       1.0  0.16840  0.16517  0.60238  1.0000 0.141968089
H   H28       1.0  0.24418  0.06906  0.62168  1.0000 0.141968089
H   H29       1.0  0.99228  0.08374  0.54791  1.0000 0.1089815155
H   H30       1.0  0.08072  0.98736  0.55486  1.0000 0.1089815155
H   H31       1.0  0.92054  0.07591  0.63845  1.0000 0.1294976936
H   H32       1.0  0.00107  0.97609  0.64254  1.0000 0.1294976936
H   H33       1.0  0.10263  0.77518  0.69900  1.0000 0.1501749175
H   H34       1.0  0.54202  0.28023  0.10197  1.0000 0.3712491186
H   H35       1.0  0.38157  0.27743  0.09995  1.0000 0.3712491186
H   H36       1.0  0.69265  0.12055  0.97720  1.0000 0.3807801472
H   H37       1.0  0.70236  0.20558  0.00597  1.0000 0.3807801472
H   H38       1.0  0.83160  0.83483  0.10238  1.0000 0.141968089
H   H39       1.0  0.75582  0.93094  0.12168  1.0000 0.141968089
H   H40       1.0  0.00772  0.91626  0.04791  1.0000 0.1089815155
H   H41       1.0  0.91928  0.01264  0.05486  1.0000 0.1089815155
H   H42       1.0  0.07946  0.92409  0.13845  1.0000 0.1294976936
H   H43       1.0  0.99893  0.02391  0.14254  1.0000 0.1294976936
H   H44       1.0  0.89737  0.22482  0.19900  1.0000 0.1501749175
H   H45       1.0  0.95798  0.78023  0.60197  1.0000 0.3712491186
H   H46       1.0  0.11843  0.77743  0.59995  1.0000 0.3712491186
H   H47       1.0  0.80735  0.62055  0.47720  1.0000 0.3807801472
H   H48       1.0  0.79764  0.70558  0.50597  1.0000 0.3807801472
H   H49       1.0  0.66840  0.33483  0.60238  1.0000 0.141968089
H   H50       1.0  0.74418  0.43094  0.62168  1.0000 0.141968089
H   H51       1.0  0.49228  0.41626  0.54791  1.0000 0.1089815155
H   H52       1.0  0.58072  0.51264  0.55486  1.0000 0.1089815155
H   H53       1.0  0.42054  0.42409  0.63845  1.0000 0.1294976936
H   H54       1.0  0.50107  0.52391  0.64254  1.0000 0.1294976936
H   H55       1.0  0.60263  0.72482  0.69900  1.0000 0.1501749175
H   H56       1.0  0.04202  0.21977  0.10197  1.0000 0.3712491186
H   H57       1.0  0.88157  0.22257  0.09995  1.0000 0.3712491186
H   H58       1.0  0.19265  0.37945  0.97720  1.0000 0.3807801472
H   H59       1.0  0.20236  0.29442  0.00597  1.0000 0.3807801472
H   H60       1.0  0.33160  0.66517  0.10238  1.0000 0.141968089
H   H61       1.0  0.25582  0.56906  0.12168  1.0000 0.141968089
H   H62       1.0  0.50772  0.58374  0.04791  1.0000 0.1089815155
H   H63       1.0  0.41928  0.48736  0.05486  1.0000 0.1089815155
H   H64       1.0  0.57946  0.57591  0.13845  1.0000 0.1294976936
H   H65       1.0  0.49893  0.47609  0.14254  1.0000 0.1294976936
H   H66       1.0  0.39737  0.27518  0.19900  1.0000 0.1501749175
H   H67       1.0  0.04202  0.21977  0.39803  1.0000 0.3712491186
H   H68       1.0  0.88157  0.22257  0.40005  1.0000 0.3712491186
H   H69       1.0  0.19265  0.37945  0.52280  1.0000 0.3807801472
H   H70       1.0  0.20236  0.29442  0.49403  1.0000 0.3807801472
H   H71       1.0  0.33160  0.66517  0.39762  1.0000 0.141968089
H   H72       1.0  0.25582  0.56906  0.37832  1.0000 0.141968089
H   H73       1.0  0.50772  0.58374  0.45209  1.0000 0.1089815155
H   H74       1.0  0.41928  0.48736  0.44514  1.0000 0.1089815155
H   H75       1.0  0.57946  0.57591  0.36155  1.0000 0.1294976936
H   H76       1.0  0.49893  0.47609  0.35746  1.0000 0.1294976936
H   H77       1.0  0.39737  0.27518  0.30100  1.0000 0.1501749175
H   H78       1.0  0.95798  0.78023  0.89803  1.0000 0.3712491186
H   H79       1.0  0.11843  0.77743  0.90005  1.0000 0.3712491186
H   H80       1.0  0.80735  0.62055  0.02280  1.0000 0.3807801472
H   H81       1.0  0.79764  0.70558  0.99403  1.0000 0.3807801472
H   H82       1.0  0.66840  0.33483  0.89762  1.0000 0.141968089
H   H83       1.0  0.74418  0.43094  0.87832  1.0000 0.141968089
H   H84       1.0  0.49228  0.41626  0.95209  1.0000 0.1089815155
H   H85       1.0  0.58072  0.51264  0.94514  1.0000 0.1089815155
H   H86       1.0  0.42054  0.42409  0.86155  1.0000 0.1294976936
H   H87       1.0  0.50107  0.52391  0.85746  1.0000 0.1294976936
H   H88       1.0  0.60263  0.72482  0.80100  1.0000 0.1501749175
C   C1        1.0  0.70080  0.89740  0.45640  1.0000 0.6755193489
C   C2        1.0  0.64090  0.11970  0.34740  1.0000 0.5179040449
C   C3        1.0  0.80490  0.89910  0.40850  1.0000 -0.3232338263
C   C4        1.0  0.19500  0.02810  0.40250  1.0000 0.6331762092
C   C5        1.0  0.71010  0.14480  0.29510  1.0000 0.0569941493
C   C6        1.0  0.95080  0.95500  0.42660  1.0000 -0.0915525241
C   C7        1.0  0.05220  0.98090  0.38170  1.0000 -0.3232338263
C   C8        1.0  0.82630  0.19450  0.27900  1.0000 -0.1617462767
C   C9        1.0  0.29920  0.10260  0.95640  1.0000 0.6755193489
C   C10       1.0  0.35910  0.88030  0.84740  1.0000 0.5179040449
C   C11       1.0  0.19510  0.10090  0.90850  1.0000 -0.3232338263
C   C12       1.0  0.80500  0.97190  0.90250  1.0000 0.6331762092
C   C13       1.0  0.28990  0.85520  0.79510  1.0000 0.0569941493
C   C14       1.0  0.04920  0.04500  0.92660  1.0000 -0.0915525241
C   C15       1.0  0.94780  0.01910  0.88170  1.0000 -0.3232338263
C   C16       1.0  0.17370  0.80550  0.77900  1.0000 -0.1617462767
C   C17       1.0  0.29920  0.10260  0.54360  1.0000 0.6755193489
C   C18       1.0  0.35910  0.88030  0.65260  1.0000 0.5179040449
C   C19       1.0  0.19510  0.10090  0.59150  1.0000 -0.3232338263
C   C20       1.0  0.80500  0.97190  0.59750  1.0000 0.6331762092
C   C21       1.0  0.28990  0.85520  0.70490  1.0000 0.0569941493
C   C22       1.0  0.04920  0.04500  0.57340  1.0000 -0.0915525241
C   C23       1.0  0.94780  0.01910  0.61830  1.0000 -0.3232338263
C   C24       1.0  0.17370  0.80550  0.72100  1.0000 -0.1617462767
C   C25       1.0  0.70080  0.89740  0.04360  1.0000 0.6755193489
C   C26       1.0  0.64090  0.11970  0.15260  1.0000 0.5179040449
C   C27       1.0  0.80490  0.89910  0.09150  1.0000 -0.3232338263
C   C28       1.0  0.19500  0.02810  0.09750  1.0000 0.6331762092
C   C29       1.0  0.71010  0.14480  0.20490  1.0000 0.0569941493
C   C30       1.0  0.95080  0.95500  0.07340  1.0000 -0.0915525241
C   C31       1.0  0.05220  0.98090  0.11830  1.0000 -0.3232338263
C   C32       1.0  0.82630  0.19450  0.22100  1.0000 -0.1617462767
C   C33       1.0  0.79920  0.39740  0.54360  1.0000 0.6755193489
C   C34       1.0  0.85910  0.61970  0.65260  1.0000 0.5179040449
C   C35       1.0  0.69510  0.39910  0.59150  1.0000 -0.3232338263
C   C36       1.0  0.30500  0.52810  0.59750  1.0000 0.6331762092
C   C37       1.0  0.78990  0.64480  0.70490  1.0000 0.0569941493
C   C38       1.0  0.54920  0.45500  0.57340  1.0000 -0.0915525241
C   C39       1.0  0.44780  0.48090  0.61830  1.0000 -0.3232338263
C   C40       1.0  0.67370  0.69450  0.72100  1.0000 -0.1617462767
C   C41       1.0  0.20080  0.60260  0.04360  1.0000 0.6755193489
C   C42       1.0  0.14090  0.38030  0.15260  1.0000 0.5179040449
C   C43       1.0  0.30490  0.60090  0.09150  1.0000 -0.3232338263
C   C44       1.0  0.69500  0.47190  0.09750  1.0000 0.6331762092
C   C45       1.0  0.21010  0.35520  0.20490  1.0000 0.0569941493
C   C46       1.0  0.45080  0.54500  0.07340  1.0000 -0.0915525241
C   C47       1.0  0.55220  0.51910  0.11830  1.0000 -0.3232338263
C   C48       1.0  0.32630  0.30550  0.22100  1.0000 -0.1617462767
C   C49       1.0  0.20080  0.60260  0.45640  1.0000 0.6755193489
C   C50       1.0  0.14090  0.38030  0.34740  1.0000 0.5179040449
C   C51       1.0  0.30490  0.60090  0.40850  1.0000 -0.3232338263
C   C52       1.0  0.69500  0.47190  0.40250  1.0000 0.6331762092
C   C53       1.0  0.21010  0.35520  0.29510  1.0000 0.0569941493
C   C54       1.0  0.45080  0.54500  0.42660  1.0000 -0.0915525241
C   C55       1.0  0.55220  0.51910  0.38170  1.0000 -0.3232338263
C   C56       1.0  0.32630  0.30550  0.27900  1.0000 -0.1617462767
C   C57       1.0  0.79920  0.39740  0.95640  1.0000 0.6755193489
C   C58       1.0  0.85910  0.61970  0.84740  1.0000 0.5179040449
C   C59       1.0  0.69510  0.39910  0.90850  1.0000 -0.3232338263
C   C60       1.0  0.30500  0.52810  0.90250  1.0000 0.6331762092
C   C61       1.0  0.78990  0.64480  0.79510  1.0000 0.0569941493
C   C62       1.0  0.54920  0.45500  0.92660  1.0000 -0.0915525241
C   C63       1.0  0.44780  0.48090  0.88170  1.0000 -0.3232338263
C   C64       1.0  0.67370  0.69450  0.77900  1.0000 -0.1617462767
O   O1        1.0  0.70850  0.14120  0.39053  1.0000 -0.6087267978
O   O2        1.0  0.60950  0.96660  0.46475  1.0000 -0.7482840477
O   O3        1.0  0.46430  0.26620  0.41786  1.0000 -0.790313123
O   O4        1.0  0.70630  0.83170  0.48996  1.0000 -0.5896822794
O   O5        1.0  0.64120  0.16600  0.50881  1.0000 -0.7682101114
O   O6        1.0  0.29910  0.97680  0.42184  1.0000 -0.6286134256
O   O7        1.0  0.21120  0.11690  0.40014  1.0000 -0.6286134256
O   O8        1.0  0.51300  0.07970  0.34763  1.0000 -0.5781615062
O   O9        1.0  0.29150  0.85880  0.89053  1.0000 -0.6087267978
O   O10       1.0  0.39050  0.03340  0.96475  1.0000 -0.7482840477
O   O11       1.0  0.53570  0.73380  0.91786  1.0000 -0.790313123
O   O12       1.0  0.29370  0.16830  0.98996  1.0000 -0.5896822794
O   O13       1.0  0.35880  0.83400  0.00881  1.0000 -0.7682101114
O   O14       1.0  0.70090  0.02320  0.92184  1.0000 -0.6286134256
O   O15       1.0  0.78880  0.88310  0.90014  1.0000 -0.6286134256
O   O16       1.0  0.48700  0.92030  0.84763  1.0000 -0.5781615062
O   O17       1.0  0.29150  0.85880  0.60947  1.0000 -0.6087267978
O   O18       1.0  0.39050  0.03340  0.53525  1.0000 -0.7482840477
O   O19       1.0  0.53570  0.73380  0.58214  1.0000 -0.790313123
O   O20       1.0  0.29370  0.16830  0.51004  1.0000 -0.5896822794
O   O21       1.0  0.35880  0.83400  0.49119  1.0000 -0.7682101114
O   O22       1.0  0.70090  0.02320  0.57816  1.0000 -0.6286134256
O   O23       1.0  0.78880  0.88310  0.59986  1.0000 -0.6286134256
O   O24       1.0  0.48700  0.92030  0.65237  1.0000 -0.5781615062
O   O25       1.0  0.70850  0.14120  0.10947  1.0000 -0.6087267978
O   O26       1.0  0.60950  0.96660  0.03525  1.0000 -0.7482840477
O   O27       1.0  0.46430  0.26620  0.08214  1.0000 -0.790313123
O   O28       1.0  0.70630  0.83170  0.01004  1.0000 -0.5896822794
O   O29       1.0  0.64120  0.16600  0.99119  1.0000 -0.7682101114
O   O30       1.0  0.29910  0.97680  0.07816  1.0000 -0.6286134256
O   O31       1.0  0.21120  0.11690  0.09986  1.0000 -0.6286134256
O   O32       1.0  0.51300  0.07970  0.15237  1.0000 -0.5781615062
O   O33       1.0  0.63140  0.11330  0.25000  1.0000 -0.042200817
O   O34       1.0  0.36860  0.88670  0.75000  1.0000 -0.042200817
O   O35       1.0  0.79150  0.64120  0.60947  1.0000 -0.6087267978
O   O36       1.0  0.89050  0.46660  0.53525  1.0000 -0.7482840477
O   O37       1.0  0.03570  0.76620  0.58214  1.0000 -0.790313123
O   O38       1.0  0.79370  0.33170  0.51004  1.0000 -0.5896822794
O   O39       1.0  0.85880  0.66600  0.49119  1.0000 -0.7682101114
O   O40       1.0  0.20090  0.47680  0.57816  1.0000 -0.6286134256
O   O41       1.0  0.28880  0.61690  0.59986  1.0000 -0.6286134256
O   O42       1.0  0.98700  0.57970  0.65237  1.0000 -0.5781615062
O   O43       1.0  0.20850  0.35880  0.10947  1.0000 -0.6087267978
O   O44       1.0  0.10950  0.53340  0.03525  1.0000 -0.7482840477
O   O45       1.0  0.96430  0.23380  0.08214  1.0000 -0.790313123
O   O46       1.0  0.20630  0.66830  0.01004  1.0000 -0.5896822794
O   O47       1.0  0.14120  0.33400  0.99119  1.0000 -0.7682101114
O   O48       1.0  0.79910  0.52320  0.07816  1.0000 -0.6286134256
O   O49       1.0  0.71120  0.38310  0.09986  1.0000 -0.6286134256
O   O50       1.0  0.01300  0.42030  0.15237  1.0000 -0.5781615062
O   O51       1.0  0.20850  0.35880  0.39053  1.0000 -0.6087267978
O   O52       1.0  0.10950  0.53340  0.46475  1.0000 -0.7482840477
O   O53       1.0  0.96430  0.23380  0.41786  1.0000 -0.790313123
O   O54       1.0  0.20630  0.66830  0.48996  1.0000 -0.5896822794
O   O55       1.0  0.14120  0.33400  0.50881  1.0000 -0.7682101114
O   O56       1.0  0.79910  0.52320  0.42184  1.0000 -0.6286134256
O   O57       1.0  0.71120  0.38310  0.40014  1.0000 -0.6286134256
O   O58       1.0  0.01300  0.42030  0.34763  1.0000 -0.5781615062
O   O59       1.0  0.79150  0.64120  0.89053  1.0000 -0.6087267978
O   O60       1.0  0.89050  0.46660  0.96475  1.0000 -0.7482840477
O   O61       1.0  0.03570  0.76620  0.91786  1.0000 -0.790313123
O   O62       1.0  0.79370  0.33170  0.98996  1.0000 -0.5896822794
O   O63       1.0  0.85880  0.66600  0.00881  1.0000 -0.7682101114
O   O64       1.0  0.20090  0.47680  0.92184  1.0000 -0.6286134256
O   O65       1.0  0.28880  0.61690  0.90014  1.0000 -0.6286134256
O   O66       1.0  0.98700  0.57970  0.84763  1.0000 -0.5781615062
O   O67       1.0  0.86860  0.61330  0.75000  1.0000 -0.042200817
O   O68       1.0  0.13140  0.38670  0.25000  1.0000 -0.042200817
