# DDEC6 charges by PACMAN v1.1 (https://github.com/mtap-research/PACMAN-charge/)
data_2019[Zn][lon]3[FSR]3
_chemical_formula_sum              "Zn2 H26 C20 N10 O8"
_cell_length_a       9.5538
_cell_length_b       8.7322
_cell_length_c       11.8097
_cell_angle_alpha    90
_cell_angle_beta     110.473
_cell_angle_gamma    90

_symmetry_space_group_name_H-M    "P 1"
_symmetry_Int_Tables_number       1

loop_
  _symmetry_equiv_pos_as_xyz
  'x, y, z'

loop_
  _atom_site_type_symbol
  _atom_site_label
  _atom_site_symmetry_multiplicity
  _atom_site_fract_x
  _atom_site_fract_y
  _atom_site_fract_z
  _atom_site_occupancy
  _atom_site_charge
Zn  Zn1       1.0  0.21240  0.62390  0.07888  1.0000 0.7093621184
Zn  Zn2       1.0  0.78760  0.12390  0.92112  1.0000 0.7093621184
H   H1        1.0  0.58710  0.66700  0.90680  1.0000 0.2741616358
H   H2        1.0  0.43800  0.60930  0.26050  1.0000 0.276976644
H   H3        1.0  0.33840  0.49220  0.27140  1.0000 0.2599042048
H   H4        1.0  0.37830  0.79550  0.55020  1.0000 0.276976644
H   H5        1.0  0.91240  0.62830  0.15900  1.0000 0.1293309898
H   H6        1.0  0.53020  0.96550  0.94510  1.0000 0.0902439644
H   H7        1.0  0.06150  0.92670  0.97770  1.0000 0.0974515778
H   H8        1.0  0.39250  0.56050  0.69590  1.0000 0.1352615234
H   H9        1.0  0.55850  0.60650  0.70470  1.0000 0.1352615234
H   H10       1.0  0.65620  0.74760  0.13550  1.0000 0.1293309898
H   H11       1.0  0.67660  0.92920  0.14540  1.0000 0.1293309898
H   H12       1.0  0.35310  0.78540  0.34740  1.0000 0.1293309898
H   H13       1.0  0.20170  0.69100  0.32290  1.0000 0.1219702055
H   H14       1.0  0.41290  0.16700  0.09320  1.0000 0.2741616358
H   H15       1.0  0.56200  0.10930  0.73950  1.0000 0.276976644
H   H16       1.0  0.66160  0.99220  0.72860  1.0000 0.2599042048
H   H17       1.0  0.62170  0.29550  0.44980  1.0000 0.276976644
H   H18       1.0  0.08760  0.12830  0.84100  1.0000 0.1293309898
H   H19       1.0  0.46980  0.46550  0.05490  1.0000 0.0902439644
H   H20       1.0  0.93850  0.42670  0.02230  1.0000 0.0974515778
H   H21       1.0  0.60750  0.06050  0.30410  1.0000 0.1352615234
H   H22       1.0  0.44150  0.10650  0.29530  1.0000 0.1352615234
H   H23       1.0  0.34380  0.24760  0.86450  1.0000 0.1293309898
H   H24       1.0  0.32340  0.42920  0.85460  1.0000 0.1293309898
H   H25       1.0  0.64690  0.28540  0.65260  1.0000 0.1293309898
H   H26       1.0  0.79830  0.19100  0.67710  1.0000 0.1219702055
C   C1        1.0  0.91960  0.71450  0.11230  1.0000 -0.1447373937
C   C2        1.0  0.53190  0.85940  0.97740  1.0000 0.0011773253
C   C3        1.0  0.39650  0.83610  0.01560  1.0000 0.561371385
C   C4        1.0  0.81430  0.82550  0.07110  1.0000 0.1824298267
C   C5        1.0  0.37550  0.61040  0.46840  1.0000 0.4843033617
C   C6        1.0  0.45550  0.77350  0.76970  1.0000 0.4843033617
C   C7        1.0  0.99990  0.87620  0.01410  1.0000 0.1603237082
C   C8        1.0  0.45550  0.64560  0.68560  1.0000 -0.2053726027
C   C9        1.0  0.67020  0.84000  0.09200  1.0000 -0.2956942032
C   C10       1.0  0.31130  0.68120  0.34520  1.0000 -0.2020807873
C   C11       1.0  0.08040  0.21450  0.88770  1.0000 -0.1447373937
C   C12       1.0  0.46810  0.35940  0.02260  1.0000 0.0011773253
C   C13       1.0  0.60350  0.33610  0.98440  1.0000 0.561371385
C   C14       1.0  0.18570  0.32550  0.92890  1.0000 0.1824298267
C   C15       1.0  0.62450  0.11040  0.53160  1.0000 0.4843033617
C   C16       1.0  0.54450  0.27350  0.23030  1.0000 0.4843033617
C   C17       1.0  0.00010  0.37620  0.98590  1.0000 0.1603237082
C   C18       1.0  0.54450  0.14560  0.31440  1.0000 -0.2053726027
C   C19       1.0  0.32980  0.34000  0.90800  1.0000 -0.2894364904
C   C20       1.0  0.68870  0.18120  0.65480  1.0000 -0.2020807873
N   N1        1.0  0.53430  0.74890  0.88570  1.0000 -0.3519484411
N   N2        1.0  0.03940  0.74690  0.07550  1.0000 -0.3124528388
N   N3        1.0  0.86630  0.92990  0.00750  1.0000 -0.364954413
N   N4        1.0  0.34390  0.59070  0.25400  1.0000 -0.4826533655
N   N5        1.0  0.39850  0.69960  0.56250  1.0000 -0.2894364904
N   N6        1.0  0.46570  0.24890  0.11430  1.0000 -0.3519484411
N   N7        1.0  0.96060  0.24690  0.92450  1.0000 -0.3124528388
N   N8        1.0  0.13370  0.42990  0.99250  1.0000 -0.3664043854
N   N9        1.0  0.65610  0.09070  0.74600  1.0000 -0.4826533655
N   N10       1.0  0.60150  0.19960  0.43750  1.0000 -0.2894364904
O   O1        1.0  0.33430  0.70550  0.99210  1.0000 -0.5325465808
O   O2        1.0  0.38730  0.89430  0.73200  1.0000 -0.5186541687
O   O3        1.0  0.35960  0.93940  0.07070  1.0000 -0.5520213853
O   O4        1.0  0.40110  0.47050  0.47790  1.0000 -0.5186541687
O   O5        1.0  0.66570  0.20550  0.00790  1.0000 -0.5325465808
O   O6        1.0  0.61270  0.39430  0.26800  1.0000 -0.5186541687
O   O7        1.0  0.64040  0.43940  0.92930  1.0000 -0.5520213853
O   O8        1.0  0.59890  0.97050  0.52210  1.0000 -0.5186541687
