# DDEC6 charges by PACMAN v1.1 (https://github.com/mtap-research/PACMAN-charge/)
data_2019[Zn][hcb]2[FSR]6
_chemical_formula_sum              "Zn8 H48 C68 N20 O40"
_cell_length_a       10.3056
_cell_length_b       24.6377
_cell_length_c       10.3794
_cell_angle_alpha    90
_cell_angle_beta     115.594
_cell_angle_gamma    90

_symmetry_space_group_name_H-M    "P 1"
_symmetry_Int_Tables_number       1

loop_
  _symmetry_equiv_pos_as_xyz
  'x, y, z'

loop_
  _atom_site_type_symbol
  _atom_site_label
  _atom_site_symmetry_multiplicity
  _atom_site_fract_x
  _atom_site_fract_y
  _atom_site_fract_z
  _atom_site_occupancy
  _atom_site_charge
Zn  Zn1       1.0  0.85829  0.63416  0.87231  1.0000 0.7251155364
Zn  Zn2       1.0  0.73414  0.99773  0.76030  1.0000 0.915161072
Zn  Zn3       1.0  0.64171  0.13416  0.12769  1.0000 0.7251155364
Zn  Zn4       1.0  0.76586  0.49773  0.23970  1.0000 0.915161072
Zn  Zn5       1.0  0.14171  0.36584  0.12769  1.0000 0.7251155364
Zn  Zn6       1.0  0.26586  0.00227  0.23970  1.0000 0.915161072
Zn  Zn7       1.0  0.35829  0.86584  0.87231  1.0000 0.7251155364
Zn  Zn8       1.0  0.23414  0.50227  0.76030  1.0000 0.915161072
H   H1        1.0  0.86300  0.61960  0.62310  1.0000 0.3574766802
H   H2        1.0  0.94640  0.58340  0.72500  1.0000 0.3842081936
H   H3        1.0  0.00070  0.99240  0.85500  1.0000 0.3423731165
H   H4        1.0  0.97420  0.04420  0.87490  1.0000 0.3492896693
H   H5        1.0  0.54410  0.58660  0.65400  1.0000 0.1397166621
H   H6        1.0  0.32710  0.61910  0.49500  1.0000 0.12803301
H   H7        1.0  0.47160  0.76710  0.58360  1.0000 0.1192654358
H   H8        1.0  0.65690  0.82120  0.71670  1.0000 0.1397166621
H   H9        1.0  0.07270  0.81990  0.00170  1.0000 0.1397166621
H   H10       1.0  0.25740  0.76750  0.12390  1.0000 0.12803301
H   H11       1.0  0.40260  0.62040  0.22270  1.0000 0.1192654358
H   H12       1.0  0.18230  0.58630  0.07780  1.0000 0.1397166621
H   H13       1.0  0.63700  0.11960  0.37690  1.0000 0.3574766802
H   H14       1.0  0.55360  0.08340  0.27500  1.0000 0.3842081936
H   H15       1.0  0.49930  0.49240  0.14500  1.0000 0.3423731165
H   H16       1.0  0.52580  0.54420  0.12510  1.0000 0.3492896693
H   H17       1.0  0.95590  0.08660  0.34600  1.0000 0.1397166621
H   H18       1.0  0.17290  0.11910  0.50500  1.0000 0.12803301
H   H19       1.0  0.02840  0.26710  0.41640  1.0000 0.1192654358
H   H20       1.0  0.84310  0.32120  0.28330  1.0000 0.1397166621
H   H21       1.0  0.42730  0.31990  0.99830  1.0000 0.1397166621
H   H22       1.0  0.24260  0.26750  0.87610  1.0000 0.12803301
H   H23       1.0  0.09740  0.12040  0.77730  1.0000 0.1192654358
H   H24       1.0  0.31770  0.08630  0.92220  1.0000 0.1397166621
H   H25       1.0  0.13700  0.38040  0.37690  1.0000 0.3574766802
H   H26       1.0  0.05360  0.41660  0.27500  1.0000 0.3842081936
H   H27       1.0  0.99930  0.00760  0.14500  1.0000 0.3423731165
H   H28       1.0  0.02580  0.95580  0.12510  1.0000 0.3492896693
H   H29       1.0  0.45590  0.41340  0.34600  1.0000 0.1397166621
H   H30       1.0  0.67290  0.38090  0.50500  1.0000 0.12803301
H   H31       1.0  0.52840  0.23290  0.41640  1.0000 0.1192654358
H   H32       1.0  0.34310  0.17880  0.28330  1.0000 0.1397166621
H   H33       1.0  0.92730  0.18010  0.99830  1.0000 0.1397166621
H   H34       1.0  0.74260  0.23250  0.87610  1.0000 0.12803301
H   H35       1.0  0.59740  0.37960  0.77730  1.0000 0.1192654358
H   H36       1.0  0.81770  0.41370  0.92220  1.0000 0.1397166621
H   H37       1.0  0.36300  0.88040  0.62310  1.0000 0.3574766802
H   H38       1.0  0.44640  0.91660  0.72500  1.0000 0.3842081936
H   H39       1.0  0.50070  0.50760  0.85500  1.0000 0.3423731165
H   H40       1.0  0.47420  0.45580  0.87490  1.0000 0.3492896693
H   H41       1.0  0.04410  0.91340  0.65400  1.0000 0.1397166621
H   H42       1.0  0.82710  0.88090  0.49500  1.0000 0.12803301
H   H43       1.0  0.97160  0.73290  0.58360  1.0000 0.1192654358
H   H44       1.0  0.15690  0.67880  0.71670  1.0000 0.1397166621
H   H45       1.0  0.57270  0.68010  0.00170  1.0000 0.1397166621
H   H46       1.0  0.75740  0.73250  0.12390  1.0000 0.12803301
H   H47       1.0  0.90260  0.87960  0.22270  1.0000 0.1192654358
H   H48       1.0  0.68230  0.91370  0.07780  1.0000 0.1397166621
C   C1        1.0  0.53080  0.62386  0.64160  1.0000 0.0366717378
C   C2        1.0  0.40020  0.64351  0.54610  1.0000 0.0366717378
C   C3        1.0  0.48500  0.72988  0.59800  1.0000 -0.0181326022
C   C4        1.0  0.61710  0.71072  0.69420  1.0000 0.12803301
C   C5        1.0  0.74280  0.74633  0.77800  1.0000 0.1733378979
C   C6        1.0  0.74050  0.80258  0.77440  1.0000 -0.192919155
C   C7        1.0  0.86540  0.83045  0.85850  1.0000 0.0269310625
C   C8        1.0  0.98830  0.80172  0.94420  1.0000 -0.1838118484
C   C9        1.0  0.98340  0.74576  0.94270  1.0000 0.1733378979
C   C10       1.0  0.10790  0.71004  0.02760  1.0000 0.12803301
C   C11       1.0  0.24320  0.73016  0.11610  1.0000 0.0020666846
C   C12       1.0  0.32770  0.64437  0.17330  1.0000 0.0269310625
C   C13       1.0  0.19520  0.62369  0.08580  1.0000 0.0538955765
C   C14       1.0  0.87170  0.89188  0.85770  1.0000 0.5479714858
C   C15       1.0  0.79950  0.54530  0.00700  1.0000 0.4703306767
C   C16       1.0  0.81030  0.59376  0.10650  1.0000 0.4755148354
C   C17       1.0  0.44920  0.99349  0.53500  1.0000 0.4703306767
C   C18       1.0  0.96920  0.12386  0.35840  1.0000 0.0366717378
C   C19       1.0  0.09980  0.14351  0.45390  1.0000 0.0366717378
C   C20       1.0  0.01500  0.22988  0.40200  1.0000 -0.0181326022
C   C21       1.0  0.88290  0.21072  0.30580  1.0000 0.12803301
C   C22       1.0  0.75720  0.24633  0.22200  1.0000 0.1733378979
C   C23       1.0  0.75950  0.30258  0.22560  1.0000 -0.192919155
C   C24       1.0  0.63460  0.33045  0.14150  1.0000 0.0269310625
C   C25       1.0  0.51170  0.30172  0.05580  1.0000 -0.1838118484
C   C26       1.0  0.51660  0.24576  0.05730  1.0000 0.1733378979
C   C27       1.0  0.39210  0.21004  0.97240  1.0000 0.12803301
C   C28       1.0  0.25680  0.23016  0.88390  1.0000 0.0020666846
C   C29       1.0  0.17230  0.14437  0.82670  1.0000 0.0269310625
C   C30       1.0  0.30480  0.12369  0.91420  1.0000 0.0538955765
C   C31       1.0  0.62830  0.39188  0.14230  1.0000 0.5479714858
C   C32       1.0  0.70050  0.04530  0.99300  1.0000 0.4703306767
C   C33       1.0  0.68970  0.09376  0.89350  1.0000 0.4755148354
C   C34       1.0  0.05080  0.49349  0.46500  1.0000 0.4703306767
C   C35       1.0  0.46920  0.37614  0.35840  1.0000 0.0366717378
C   C36       1.0  0.59980  0.35649  0.45390  1.0000 0.0366717378
C   C37       1.0  0.51500  0.27012  0.40200  1.0000 -0.0181326022
C   C38       1.0  0.38290  0.28928  0.30580  1.0000 0.12803301
C   C39       1.0  0.25720  0.25367  0.22200  1.0000 0.1733378979
C   C40       1.0  0.25950  0.19742  0.22560  1.0000 -0.192919155
C   C41       1.0  0.13460  0.16955  0.14150  1.0000 0.0269310625
C   C42       1.0  0.01170  0.19828  0.05580  1.0000 -0.1838118484
C   C43       1.0  0.01660  0.25424  0.05730  1.0000 0.1733378979
C   C44       1.0  0.89210  0.28996  0.97240  1.0000 0.12803301
C   C45       1.0  0.75680  0.26984  0.88390  1.0000 0.0020666846
C   C46       1.0  0.67230  0.35563  0.82670  1.0000 0.0269310625
C   C47       1.0  0.80480  0.37631  0.91420  1.0000 0.0538955765
C   C48       1.0  0.12830  0.10812  0.14230  1.0000 0.5479714858
C   C49       1.0  0.20050  0.45470  0.99300  1.0000 0.4703306767
C   C50       1.0  0.18970  0.40624  0.89350  1.0000 0.4755148354
C   C51       1.0  0.55080  0.00651  0.46500  1.0000 0.4703306767
C   C52       1.0  0.03080  0.87614  0.64160  1.0000 0.0366717378
C   C53       1.0  0.90020  0.85649  0.54610  1.0000 0.0366717378
C   C54       1.0  0.98500  0.77012  0.59800  1.0000 -0.0181326022
C   C55       1.0  0.11710  0.78928  0.69420  1.0000 0.12803301
C   C56       1.0  0.24280  0.75367  0.77800  1.0000 0.1733378979
C   C57       1.0  0.24050  0.69742  0.77440  1.0000 -0.192919155
C   C58       1.0  0.36540  0.66955  0.85850  1.0000 0.0269310625
C   C59       1.0  0.48830  0.69828  0.94420  1.0000 -0.1838118484
C   C60       1.0  0.48340  0.75424  0.94270  1.0000 0.1733378979
C   C61       1.0  0.60790  0.78996  0.02760  1.0000 0.12803301
C   C62       1.0  0.74320  0.76984  0.11610  1.0000 0.0020666846
C   C63       1.0  0.82770  0.85563  0.17330  1.0000 0.0269310625
C   C64       1.0  0.69520  0.87631  0.08580  1.0000 0.0538955765
C   C65       1.0  0.37170  0.60812  0.85770  1.0000 0.5479714858
C   C66       1.0  0.29950  0.95470  0.00700  1.0000 0.4703306767
C   C67       1.0  0.31030  0.90624  0.10650  1.0000 0.4755148354
C   C68       1.0  0.94920  0.50651  0.53500  1.0000 0.4703306767
N   N1        1.0  0.64000  0.65722  0.71750  1.0000 -0.2256049676
N   N2        1.0  0.37500  0.69631  0.52450  1.0000 -0.192919155
N   N3        1.0  0.86220  0.71906  0.86060  1.0000 -0.2916014505
N   N4        1.0  0.08420  0.65628  0.01190  1.0000 -0.2174688218
N   N5        1.0  0.35340  0.69743  0.19030  1.0000 -0.192919155
N   N6        1.0  0.86000  0.15722  0.28250  1.0000 -0.2256049676
N   N7        1.0  0.12500  0.19631  0.47550  1.0000 -0.192919155
N   N8        1.0  0.63780  0.21906  0.13940  1.0000 -0.2916014505
N   N9        1.0  0.41580  0.15628  0.98810  1.0000 -0.2174688218
N   N10       1.0  0.14660  0.19743  0.80970  1.0000 -0.192919155
N   N11       1.0  0.36000  0.34278  0.28250  1.0000 -0.2256049676
N   N12       1.0  0.62500  0.30369  0.47550  1.0000 -0.192919155
N   N13       1.0  0.13780  0.28094  0.13940  1.0000 -0.2916014505
N   N14       1.0  0.91580  0.34372  0.98810  1.0000 -0.2174688218
N   N15       1.0  0.64660  0.30257  0.80970  1.0000 -0.192919155
N   N16       1.0  0.14000  0.84278  0.71750  1.0000 -0.2256049676
N   N17       1.0  0.87500  0.80369  0.52450  1.0000 -0.192919155
N   N18       1.0  0.36220  0.78094  0.86060  1.0000 -0.2916014505
N   N19       1.0  0.58420  0.84372  0.01190  1.0000 -0.2174688218
N   N20       1.0  0.85340  0.80257  0.19030  1.0000 -0.192919155
O   O1        1.0  0.76250  0.91570  0.76950  1.0000 -0.5428355573
O   O2        1.0  0.98420  0.91361  0.94440  1.0000 -0.5428355573
O   O3        1.0  0.82240  0.55513  0.90000  1.0000 -0.4831457449
O   O4        1.0  0.76770  0.49998  0.03870  1.0000 -0.4957245899
O   O5        1.0  0.82550  0.63976  0.06290  1.0000 -0.525120498
O   O6        1.0  0.80310  0.58308  0.22020  1.0000 -0.4883658899
O   O7        1.0  0.50710  0.98511  0.66730  1.0000 -0.5076577974
O   O8        1.0  0.31770  0.99214  0.45620  1.0000 -0.4831457449
O   O9        1.0  0.91670  0.61603  0.71190  1.0000 -0.6382236493
O   O10       1.0  0.94500  0.01879  0.81340  1.0000 -0.6547129763
O   O11       1.0  0.73750  0.41570  0.23050  1.0000 -0.5428355573
O   O12       1.0  0.51580  0.41361  0.05560  1.0000 -0.5428355573
O   O13       1.0  0.67760  0.05513  0.10000  1.0000 -0.4831457449
O   O14       1.0  0.73230  0.99998  0.96130  1.0000 -0.4957245899
O   O15       1.0  0.67450  0.13976  0.93710  1.0000 -0.525120498
O   O16       1.0  0.69690  0.08308  0.77980  1.0000 -0.4883658899
O   O17       1.0  0.99290  0.48511  0.33270  1.0000 -0.5076577974
O   O18       1.0  0.18230  0.49214  0.54380  1.0000 -0.4831457449
O   O19       1.0  0.58330  0.11603  0.28810  1.0000 -0.6382236493
O   O20       1.0  0.55500  0.51879  0.18660  1.0000 -0.6547129763
O   O21       1.0  0.23750  0.08430  0.23050  1.0000 -0.5428355573
O   O22       1.0  0.01580  0.08639  0.05560  1.0000 -0.5428355573
O   O23       1.0  0.17760  0.44487  0.10000  1.0000 -0.4831457449
O   O24       1.0  0.23230  0.50002  0.96130  1.0000 -0.4957245899
O   O25       1.0  0.17450  0.36024  0.93710  1.0000 -0.525120498
O   O26       1.0  0.19690  0.41692  0.77980  1.0000 -0.4883658899
O   O27       1.0  0.49290  0.01489  0.33270  1.0000 -0.5076577974
O   O28       1.0  0.68230  0.00786  0.54380  1.0000 -0.4831457449
O   O29       1.0  0.08330  0.38397  0.28810  1.0000 -0.6382236493
O   O30       1.0  0.05500  0.98121  0.18660  1.0000 -0.6547129763
O   O31       1.0  0.26250  0.58430  0.76950  1.0000 -0.5428355573
O   O32       1.0  0.48420  0.58639  0.94440  1.0000 -0.5428355573
O   O33       1.0  0.32240  0.94487  0.90000  1.0000 -0.4831457449
O   O34       1.0  0.26770  0.00002  0.03870  1.0000 -0.4957245899
O   O35       1.0  0.32550  0.86024  0.06290  1.0000 -0.525120498
O   O36       1.0  0.30310  0.91692  0.22020  1.0000 -0.4883658899
O   O37       1.0  0.00710  0.51489  0.66730  1.0000 -0.5076577974
O   O38       1.0  0.81770  0.50786  0.45620  1.0000 -0.4831457449
O   O39       1.0  0.41670  0.88397  0.71190  1.0000 -0.6382236493
O   O40       1.0  0.44500  0.48121  0.81340  1.0000 -0.6547129763
