# DDEC6 charges by PACMAN v1.1 (https://github.com/mtap-research/PACMAN-charge/)
data_2019[Zn][sqc]3[FSR]1
_chemical_formula_sum              "Zn16 P16 H64 C48 O80"
_cell_length_a       18.0928
_cell_length_b       18.0928
_cell_length_c       18.0928
_cell_angle_alpha    103.904
_cell_angle_beta     103.904
_cell_angle_gamma    121.292

_symmetry_space_group_name_H-M    "P 1"
_symmetry_Int_Tables_number       1

loop_
  _symmetry_equiv_pos_as_xyz
  'x, y, z'

loop_
  _atom_site_type_symbol
  _atom_site_label
  _atom_site_symmetry_multiplicity
  _atom_site_fract_x
  _atom_site_fract_y
  _atom_site_fract_z
  _atom_site_occupancy
  _atom_site_charge
Zn  Zn1       1.0  0.48898  0.11745  0.12777  1.0000 1.0666551073
Zn  Zn2       1.0  0.98968  0.36121  0.87223  1.0000 1.0666551073
Zn  Zn3       1.0  0.61121  0.23898  0.87153  1.0000 1.0666551073
Zn  Zn4       1.0  0.36745  0.73968  0.12847  1.0000 1.0666551073
Zn  Zn5       1.0  0.26102  0.88879  0.12847  1.0000 1.0666551073
Zn  Zn6       1.0  0.76032  0.13255  0.87153  1.0000 1.0666551073
Zn  Zn7       1.0  0.13879  0.51032  0.12777  1.0000 1.0666551073
Zn  Zn8       1.0  0.38255  0.01102  0.87223  1.0000 1.0666551073
Zn  Zn9       1.0  0.76102  0.63255  0.37223  1.0000 1.0666551073
Zn  Zn10      1.0  0.26032  0.38879  0.62777  1.0000 1.0666551073
Zn  Zn11      1.0  0.63879  0.51102  0.62847  1.0000 1.0666551073
Zn  Zn12      1.0  0.88255  0.01032  0.37153  1.0000 1.0666551073
Zn  Zn13      1.0  0.98898  0.86121  0.37153  1.0000 1.0666551073
Zn  Zn14      1.0  0.48968  0.61745  0.62847  1.0000 1.0666551073
Zn  Zn15      1.0  0.11121  0.23968  0.37223  1.0000 1.0666551073
Zn  Zn16      1.0  0.86745  0.73898  0.62777  1.0000 1.0666551073
P   P1        1.0  0.70814  0.53088  0.48940  1.0000 1.3528985684
P   P2        1.0  0.04148  0.21874  0.51060  1.0000 1.3528985684
P   P3        1.0  0.46874  0.45814  0.67726  1.0000 1.3528985684
P   P4        1.0  0.78088  0.79148  0.32274  1.0000 1.3528985684
P   P5        1.0  0.04186  0.03126  0.32274  1.0000 1.3528985684
P   P6        1.0  0.70852  0.71912  0.67726  1.0000 1.3528985684
P   P7        1.0  0.28126  0.45852  0.48940  1.0000 1.3528985684
P   P8        1.0  0.96912  0.79186  0.51060  1.0000 1.3528985684
P   P9        1.0  0.54186  0.21912  0.01060  1.0000 1.3528985684
P   P10       1.0  0.20852  0.53126  0.98940  1.0000 1.3528985684
P   P11       1.0  0.78126  0.29186  0.82274  1.0000 1.3528985684
P   P12       1.0  0.46912  0.95852  0.17726  1.0000 1.3528985684
P   P13       1.0  0.20814  0.71874  0.17726  1.0000 1.3528985684
P   P14       1.0  0.54148  0.03088  0.82274  1.0000 1.3528985684
P   P15       1.0  0.96874  0.29148  0.01060  1.0000 1.3528985684
P   P16       1.0  0.28088  0.95814  0.98940  1.0000 1.3528985684
H   H1        1.0  0.56110  0.32400  0.37810  1.0000 0.1496532783
H   H2        1.0  0.58580  0.38570  0.32550  1.0000 0.1496532783
H   H3        1.0  0.72190  0.40750  0.46480  1.0000 0.1669457038
H   H4        1.0  0.75380  0.45950  0.40590  1.0000 0.16001913
H   H5        1.0  0.94590  0.18300  0.62190  1.0000 0.1496532783
H   H6        1.0  0.06020  0.26030  0.67450  1.0000 0.1496532783
H   H7        1.0  0.94270  0.25710  0.53520  1.0000 0.1669457038
H   H8        1.0  0.05360  0.34790  0.59410  1.0000 0.16001913
H   H9        1.0  0.43300  0.31110  0.73710  1.0000 0.1496532783
H   H10       1.0  0.51030  0.33580  0.70010  1.0000 0.1496532783
H   H11       1.0  0.50710  0.47190  0.81440  1.0000 0.1669457038
H   H12       1.0  0.59790  0.50380  0.79430  1.0000 0.16001913
H   H13       1.0  0.57400  0.69590  0.26290  1.0000 0.1496532783
H   H14       1.0  0.63570  0.81020  0.29990  1.0000 0.1496532783
H   H15       1.0  0.65750  0.69270  0.18560  1.0000 0.1669457038
H   H16       1.0  0.70950  0.80360  0.20570  1.0000 0.16001913
H   H17       1.0  0.18890  0.06700  0.26290  1.0000 0.1496532783
H   H18       1.0  0.16420  0.98970  0.29990  1.0000 0.1496532783
H   H19       1.0  0.02810  0.99290  0.18560  1.0000 0.1669457038
H   H20       1.0  0.99620  0.90210  0.20570  1.0000 0.16001913
H   H21       1.0  0.80410  0.92600  0.73710  1.0000 0.1496532783
H   H22       1.0  0.68980  0.86430  0.70010  1.0000 0.1496532783
H   H23       1.0  0.80730  0.84250  0.81440  1.0000 0.1669457038
H   H24       1.0  0.69640  0.79050  0.79430  1.0000 0.16001913
H   H25       1.0  0.31700  0.55410  0.37810  1.0000 0.1496532783
H   H26       1.0  0.23970  0.43980  0.32550  1.0000 0.1496532783
H   H27       1.0  0.24290  0.55730  0.46480  1.0000 0.1669457038
H   H28       1.0  0.15210  0.44640  0.40590  1.0000 0.16001913
H   H29       1.0  0.17600  0.93890  0.62190  1.0000 0.1496532783
H   H30       1.0  0.11430  0.91420  0.67450  1.0000 0.1496532783
H   H31       1.0  0.09250  0.77810  0.53520  1.0000 0.1669457038
H   H32       1.0  0.04050  0.74620  0.59410  1.0000 0.16001913
H   H33       1.0  0.68890  0.42600  0.12190  1.0000 0.1496532783
H   H34       1.0  0.66420  0.36430  0.17450  1.0000 0.1496532783
H   H35       1.0  0.52810  0.34250  0.03520  1.0000 0.1669457038
H   H36       1.0  0.49620  0.29050  0.09410  1.0000 0.16001913
H   H37       1.0  0.30410  0.56700  0.87810  1.0000 0.1496532783
H   H38       1.0  0.18980  0.48970  0.82550  1.0000 0.1496532783
H   H39       1.0  0.30730  0.49290  0.96480  1.0000 0.1669457038
H   H40       1.0  0.19640  0.40210  0.90590  1.0000 0.16001913
H   H41       1.0  0.81700  0.43890  0.76290  1.0000 0.1496532783
H   H42       1.0  0.73970  0.41420  0.79990  1.0000 0.1496532783
H   H43       1.0  0.74290  0.27810  0.68560  1.0000 0.1669457038
H   H44       1.0  0.65210  0.24620  0.70570  1.0000 0.16001913
H   H45       1.0  0.67600  0.05410  0.23710  1.0000 0.1496532783
H   H46       1.0  0.61430  0.93980  0.20010  1.0000 0.1496532783
H   H47       1.0  0.59250  0.05730  0.31440  1.0000 0.1669457038
H   H48       1.0  0.54050  0.94640  0.29430  1.0000 0.16001913
H   H49       1.0  0.06110  0.68300  0.23710  1.0000 0.1496532783
H   H50       1.0  0.08580  0.76030  0.20010  1.0000 0.1496532783
H   H51       1.0  0.22190  0.75710  0.31440  1.0000 0.1669457038
H   H52       1.0  0.25380  0.84790  0.29430  1.0000 0.16001913
H   H53       1.0  0.44590  0.82400  0.76290  1.0000 0.1496532783
H   H54       1.0  0.56020  0.88570  0.79990  1.0000 0.1496532783
H   H55       1.0  0.44270  0.90750  0.68560  1.0000 0.1669457038
H   H56       1.0  0.55360  0.95950  0.70570  1.0000 0.16001913
H   H57       1.0  0.93300  0.19590  0.12190  1.0000 0.1496532783
H   H58       1.0  0.01030  0.31020  0.17450  1.0000 0.1496532783
H   H59       1.0  0.00710  0.19270  0.03520  1.0000 0.1669457038
H   H60       1.0  0.09790  0.30360  0.09410  1.0000 0.16001913
H   H61       1.0  0.07400  0.81110  0.87810  1.0000 0.1496532783
H   H62       1.0  0.13570  0.83580  0.82550  1.0000 0.1496532783
H   H63       1.0  0.15750  0.97190  0.96480  1.0000 0.1669457038
H   H64       1.0  0.20950  0.00380  0.90590  1.0000 0.16001913
C   C1        1.0  0.60010  0.27820  0.28950  1.0000 0.6300955643
C   C2        1.0  0.60690  0.35560  0.35490  1.0000 -0.2089235014
C   C3        1.0  0.70530  0.43430  0.42800  1.0000 -0.4119916295
C   C4        1.0  0.98870  0.31060  0.71050  1.0000 0.6300955643
C   C5        1.0  0.00070  0.25200  0.64510  1.0000 -0.2089235014
C   C6        1.0  0.00630  0.27730  0.57200  1.0000 -0.4119916295
C   C7        1.0  0.56060  0.35010  0.82190  1.0000 0.6300955643
C   C8        1.0  0.50200  0.35690  0.75130  1.0000 -0.2089235014
C   C9        1.0  0.52730  0.45530  0.77100  1.0000 -0.4119916295
C   C10       1.0  0.52820  0.73870  0.17810  1.0000 0.6300955643
C   C11       1.0  0.60560  0.75070  0.24870  1.0000 -0.2089235014
C   C12       1.0  0.68430  0.75630  0.22900  1.0000 -0.4119916295
C   C13       1.0  0.14990  0.93940  0.17810  1.0000 0.6300955643
C   C14       1.0  0.14310  0.99800  0.24870  1.0000 -0.2089235014
C   C15       1.0  0.04470  0.97270  0.22900  1.0000 -0.4119916295
C   C16       1.0  0.76130  0.97180  0.82190  1.0000 0.6300955643
C   C17       1.0  0.74930  0.89440  0.75130  1.0000 -0.2089235014
C   C18       1.0  0.74370  0.81570  0.77100  1.0000 -0.4119916295
C   C19       1.0  0.18940  0.51130  0.28950  1.0000 0.6300955643
C   C20       1.0  0.24800  0.49930  0.35490  1.0000 -0.2089235014
C   C21       1.0  0.22270  0.49370  0.42800  1.0000 -0.4119916295
C   C22       1.0  0.22180  0.89990  0.71050  1.0000 0.6300955643
C   C23       1.0  0.14440  0.89310  0.64510  1.0000 -0.2089235014
C   C24       1.0  0.06570  0.79470  0.57200  1.0000 -0.4119916295
C   C25       1.0  0.64990  0.47180  0.21050  1.0000 0.6300955643
C   C26       1.0  0.64310  0.39440  0.14510  1.0000 -0.2089235014
C   C27       1.0  0.54470  0.31570  0.07200  1.0000 -0.4119916295
C   C28       1.0  0.26130  0.43940  0.78950  1.0000 0.6300955643
C   C29       1.0  0.24930  0.49800  0.85490  1.0000 -0.2089235014
C   C30       1.0  0.24370  0.47270  0.92800  1.0000 -0.4119916295
C   C31       1.0  0.68940  0.39990  0.67810  1.0000 0.6300955643
C   C32       1.0  0.74800  0.39310  0.74870  1.0000 -0.2089235014
C   C33       1.0  0.72270  0.29470  0.72900  1.0000 -0.4119916295
C   C34       1.0  0.72180  0.01130  0.32190  1.0000 0.6300955643
C   C35       1.0  0.64440  0.99930  0.25130  1.0000 -0.2089235014
C   C36       1.0  0.56570  0.99370  0.27100  1.0000 -0.4119916295
C   C37       1.0  0.10010  0.81060  0.32190  1.0000 0.6300955643
C   C38       1.0  0.10690  0.75200  0.25130  1.0000 -0.2089235014
C   C39       1.0  0.20530  0.77730  0.27100  1.0000 -0.4119916295
C   C40       1.0  0.48870  0.77820  0.67810  1.0000 0.6300955643
C   C41       1.0  0.50070  0.85560  0.74870  1.0000 -0.2089235014
C   C42       1.0  0.50630  0.93430  0.72900  1.0000 -0.4119916295
C   C43       1.0  0.06060  0.23870  0.21050  1.0000 0.6300955643
C   C44       1.0  0.00200  0.25070  0.14510  1.0000 -0.2089235014
C   C45       1.0  0.02730  0.25630  0.07200  1.0000 -0.4119916295
C   C46       1.0  0.02820  0.85010  0.78950  1.0000 0.6300955643
C   C47       1.0  0.10560  0.85690  0.85490  1.0000 -0.2089235014
C   C48       1.0  0.18430  0.95530  0.92800  1.0000 -0.4119916295
O   O1        1.0  0.80590  0.60190  0.56660  1.0000 -0.739990707
O   O2        1.0  0.62590  0.48700  0.51510  1.0000 -0.6962294723
O   O3        1.0  0.51640  0.21390  0.22910  1.0000 -0.4862560979
O   O4        1.0  0.69050  0.57600  0.43310  1.0000 -0.7124571051
O   O5        1.0  0.67070  0.28230  0.29360  1.0000 -0.4206108163
O   O6        1.0  0.03530  0.23930  0.43340  1.0000 -0.739990707
O   O7        1.0  0.97190  0.11080  0.48490  1.0000 -0.6962294723
O   O8        1.0  0.98480  0.28730  0.77090  1.0000 -0.4862560979
O   O9        1.0  0.14290  0.25740  0.56690  1.0000 -0.7124571051
O   O10       1.0  0.98870  0.37710  0.70640  1.0000 -0.4206108163
O   O11       1.0  0.48930  0.55590  0.70400  1.0000 -0.739990707
O   O12       1.0  0.36080  0.37590  0.63890  1.0000 -0.6962294723
O   O13       1.0  0.53730  0.26640  0.80250  1.0000 -0.4862560979
O   O14       1.0  0.50740  0.44050  0.61450  1.0000 -0.7124571051
O   O15       1.0  0.62710  0.42070  0.88840  1.0000 -0.4206108163
O   O16       1.0  0.85190  0.78530  0.29600  1.0000 -0.739990707
O   O17       1.0  0.73700  0.72190  0.36110  1.0000 -0.6962294723
O   O18       1.0  0.46390  0.73480  0.19750  1.0000 -0.4862560979
O   O19       1.0  0.82600  0.89290  0.38550  1.0000 -0.7124571051
O   O20       1.0  0.53230  0.73870  0.11160  1.0000 -0.4119916295
O   O21       1.0  0.94410  0.01070  0.29600  1.0000 -0.739990707
O   O22       1.0  0.12410  0.13920  0.36110  1.0000 -0.6962294723
O   O23       1.0  0.23360  0.96270  0.19750  1.0000 -0.4862560979
O   O24       1.0  0.05950  0.99260  0.38550  1.0000 -0.7124571051
O   O25       1.0  0.07930  0.87290  0.11160  1.0000 -0.4206108163
O   O26       1.0  0.71470  0.64810  0.70400  1.0000 -0.739990707
O   O27       1.0  0.77810  0.76300  0.63890  1.0000 -0.6962294723
O   O28       1.0  0.76520  0.03610  0.80250  1.0000 -0.4862560979
O   O29       1.0  0.60710  0.67400  0.61450  1.0000 -0.7124571051
O   O30       1.0  0.76130  0.96770  0.88840  1.0000 -0.4206108163
O   O31       1.0  0.26070  0.46470  0.56660  1.0000 -0.739990707
O   O32       1.0  0.38920  0.52810  0.51510  1.0000 -0.6962294723
O   O33       1.0  0.21270  0.51520  0.22910  1.0000 -0.4862560979
O   O34       1.0  0.24260  0.35710  0.43310  1.0000 -0.7124571051
O   O35       1.0  0.12290  0.51130  0.29360  1.0000 -0.4206108163
O   O36       1.0  0.89810  0.69410  0.43340  1.0000 -0.739990707
O   O37       1.0  0.01300  0.87410  0.48490  1.0000 -0.6962294723
O   O38       1.0  0.28610  0.98360  0.77090  1.0000 -0.4862560979
O   O39       1.0  0.92400  0.80950  0.56690  1.0000 -0.7124571051
O   O40       1.0  0.21770  0.82930  0.70640  1.0000 -0.4206108163
O   O41       1.0  0.44410  0.14810  0.93340  1.0000 -0.739990707
O   O42       1.0  0.62410  0.26300  0.98490  1.0000 -0.6962294723
O   O43       1.0  0.73360  0.53610  0.27090  1.0000 -0.4862560979
O   O44       1.0  0.55950  0.17400  0.06690  1.0000 -0.7124571051
O   O45       1.0  0.57930  0.46770  0.20640  1.0000 -0.4206108163
O   O46       1.0  0.21470  0.51070  0.06660  1.0000 -0.739990707
O   O47       1.0  0.27810  0.63920  0.01510  1.0000 -0.6962294723
O   O48       1.0  0.26520  0.46270  0.72910  1.0000 -0.4862560979
O   O49       1.0  0.10710  0.49260  0.93310  1.0000 -0.7124571051
O   O50       1.0  0.26130  0.37290  0.79360  1.0000 -0.4206108163
O   O51       1.0  0.76070  0.19410  0.79600  1.0000 -0.739990707
O   O52       1.0  0.88920  0.37410  0.86110  1.0000 -0.6962294723
O   O53       1.0  0.71270  0.48360  0.69750  1.0000 -0.4862560979
O   O54       1.0  0.74260  0.30950  0.88550  1.0000 -0.7124571051
O   O55       1.0  0.62290  0.32930  0.61160  1.0000 -0.4206108163
O   O56       1.0  0.39810  0.96470  0.20400  1.0000 -0.739990707
O   O57       1.0  0.51300  0.02810  0.13890  1.0000 -0.6962294723
O   O58       1.0  0.78610  0.01520  0.30250  1.0000 -0.4862560979
O   O59       1.0  0.42400  0.85710  0.11450  1.0000 -0.7124571051
O   O60       1.0  0.71770  0.01130  0.38840  1.0000 -0.4206108163
O   O61       1.0  0.30590  0.73930  0.20400  1.0000 -0.739990707
O   O62       1.0  0.12590  0.61080  0.13890  1.0000 -0.6962294723
O   O63       1.0  0.01640  0.78730  0.30250  1.0000 -0.4862560979
O   O64       1.0  0.19050  0.75740  0.11450  1.0000 -0.7124571051
O   O65       1.0  0.17070  0.87710  0.38840  1.0000 -0.4206108163
O   O66       1.0  0.53530  0.10190  0.79600  1.0000 -0.739990707
O   O67       1.0  0.47190  0.98700  0.86110  1.0000 -0.6962294723
O   O68       1.0  0.48480  0.71390  0.69750  1.0000 -0.4862560979
O   O69       1.0  0.64290  0.07600  0.88550  1.0000 -0.7124571051
O   O70       1.0  0.48870  0.78230  0.61160  1.0000 -0.4206108163
O   O71       1.0  0.98930  0.28530  0.93340  1.0000 -0.739990707
O   O72       1.0  0.86080  0.22190  0.98490  1.0000 -0.6962294723
O   O73       1.0  0.03730  0.23480  0.27090  1.0000 -0.4862560979
O   O74       1.0  0.00740  0.39290  0.06690  1.0000 -0.7124571051
O   O75       1.0  0.12710  0.23870  0.20640  1.0000 -0.4206108163
O   O76       1.0  0.35190  0.05590  0.06660  1.0000 -0.739990707
O   O77       1.0  0.23700  0.87590  0.01510  1.0000 -0.6962294723
O   O78       1.0  0.96390  0.76640  0.72910  1.0000 -0.4862560979
O   O79       1.0  0.32600  0.94050  0.93310  1.0000 -0.7124571051
O   O80       1.0  0.03230  0.92070  0.79360  1.0000 -0.4206108163
