# DDEC6 charges by PACMAN v1.1 (https://github.com/mtap-research/PACMAN-charge/)
data_2019[Co][sql]2[FSR]3
_chemical_formula_sum              "Co2 H68 C92 S4 N16 O4"
_cell_length_a       11.0555
_cell_length_b       13.2414
_cell_length_c       18.5561
_cell_angle_alpha    90
_cell_angle_beta     96.956
_cell_angle_gamma    90

_symmetry_space_group_name_H-M    "P 1"
_symmetry_Int_Tables_number       1

loop_
  _symmetry_equiv_pos_as_xyz
  'x, y, z'

loop_
  _atom_site_type_symbol
  _atom_site_label
  _atom_site_symmetry_multiplicity
  _atom_site_fract_x
  _atom_site_fract_y
  _atom_site_fract_z
  _atom_site_occupancy
  _atom_site_charge
Co  Co1       1.0  0.50000  0.50000  0.50000  1.0000 0.688652091
Co  Co2       1.0  0.50000  0.00000  0.00000  1.0000 0.688652091
H   H1        1.0  0.63180  0.47930  0.35770  1.0000 0.101640519
H   H2        1.0  0.58630  0.19080  0.08830  1.0000 0.1122872736
H   H3        1.0  0.68980  0.55000  0.24910  1.0000 0.1201992306
H   H4        1.0  0.86180  0.41810  0.09250  1.0000 0.1266249793
H   H5        1.0  0.88280  0.75120  0.02070  1.0000 0.1266249793
H   H6        1.0  0.99520  0.78720  0.23640  1.0000 0.1201992306
H   H7        1.0  0.90730  0.63300  0.25900  1.0000 0.1122872736
H   H8        1.0  0.94550  0.24610  0.09180  1.0000 0.1201992306
H   H9        1.0  0.78970  0.99810  0.99490  1.0000 0.101640519
H   H10       1.0  0.80130  0.59450  0.04470  1.0000 0.1122872736
H   H11       1.0  0.96130  0.09360  0.02730  1.0000 0.1201992306
H   H12       1.0  0.44810  0.28460  0.21770  1.0000 0.1201992306
H   H13       1.0  0.33210  0.35290  0.40900  1.0000 0.101640519
H   H14       1.0  0.30330  0.26800  0.30020  1.0000 0.1201992306
H   H15       1.0  0.08290  0.99700  0.14460  1.0000 0.1122872736
H   H16       1.0  0.01890  0.93850  0.20530  1.0000 0.1122872736
H   H17       1.0  0.13730  0.89180  0.17610  1.0000 0.1122872736
H   H18       1.0  0.36820  0.97930  0.14230  1.0000 0.101640519
H   H19       1.0  0.41370  0.69080  0.41170  1.0000 0.1122872736
H   H20       1.0  0.31020  0.05000  0.25090  1.0000 0.1201992306
H   H21       1.0  0.13820  0.91810  0.40750  1.0000 0.1266249793
H   H22       1.0  0.11720  0.25120  0.47930  1.0000 0.1266249793
H   H23       1.0  0.00480  0.28720  0.26360  1.0000 0.1201992306
H   H24       1.0  0.09270  0.13300  0.24100  1.0000 0.1122872736
H   H25       1.0  0.05450  0.74610  0.40820  1.0000 0.1201992306
H   H26       1.0  0.21030  0.49810  0.50510  1.0000 0.101640519
H   H27       1.0  0.19870  0.09450  0.45530  1.0000 0.1122872736
H   H28       1.0  0.03870  0.59360  0.47270  1.0000 0.1201992306
H   H29       1.0  0.55190  0.78460  0.28230  1.0000 0.1201992306
H   H30       1.0  0.66790  0.85290  0.09100  1.0000 0.101640519
H   H31       1.0  0.69670  0.76800  0.19980  1.0000 0.1201992306
H   H32       1.0  0.91710  0.49700  0.35540  1.0000 0.1122872736
H   H33       1.0  0.98110  0.43850  0.29470  1.0000 0.1122872736
H   H34       1.0  0.86270  0.39180  0.32390  1.0000 0.1122872736
H   H35       1.0  0.36820  0.52070  0.64230  1.0000 0.101640519
H   H36       1.0  0.41370  0.80920  0.91170  1.0000 0.1122872736
H   H37       1.0  0.31020  0.45000  0.75090  1.0000 0.1201992306
H   H38       1.0  0.13820  0.58190  0.90750  1.0000 0.1266249793
H   H39       1.0  0.11720  0.24880  0.97930  1.0000 0.1266249793
H   H40       1.0  0.00480  0.21280  0.76360  1.0000 0.1201992306
H   H41       1.0  0.09270  0.36700  0.74100  1.0000 0.1122872736
H   H42       1.0  0.05450  0.75390  0.90820  1.0000 0.1201992306
H   H43       1.0  0.21030  0.00190  0.00510  1.0000 0.101640519
H   H44       1.0  0.19870  0.40550  0.95530  1.0000 0.1122872736
H   H45       1.0  0.03870  0.90640  0.97270  1.0000 0.1201992306
H   H46       1.0  0.55190  0.71540  0.78230  1.0000 0.1201992306
H   H47       1.0  0.66790  0.64710  0.59100  1.0000 0.101640519
H   H48       1.0  0.69670  0.73200  0.69980  1.0000 0.1201992306
H   H49       1.0  0.91710  0.00300  0.85540  1.0000 0.1122872736
H   H50       1.0  0.98110  0.06150  0.79470  1.0000 0.1122872736
H   H51       1.0  0.86270  0.10820  0.82390  1.0000 0.1122872736
H   H52       1.0  0.63180  0.02070  0.85770  1.0000 0.101640519
H   H53       1.0  0.58630  0.30920  0.58830  1.0000 0.1122872736
H   H54       1.0  0.68980  0.95000  0.74910  1.0000 0.1201992306
H   H55       1.0  0.86180  0.08190  0.59250  1.0000 0.1266249793
H   H56       1.0  0.88280  0.74880  0.52070  1.0000 0.1266249793
H   H57       1.0  0.99520  0.71280  0.73640  1.0000 0.1201992306
H   H58       1.0  0.90730  0.86700  0.75900  1.0000 0.1122872736
H   H59       1.0  0.94550  0.25390  0.59180  1.0000 0.1201992306
H   H60       1.0  0.78970  0.50190  0.49490  1.0000 0.101640519
H   H61       1.0  0.80130  0.90550  0.54470  1.0000 0.1122872736
H   H62       1.0  0.96130  0.40640  0.52730  1.0000 0.1201992306
H   H63       1.0  0.44810  0.21540  0.71770  1.0000 0.1201992306
H   H64       1.0  0.33210  0.14710  0.90900  1.0000 0.101640519
H   H65       1.0  0.30330  0.23200  0.80020  1.0000 0.1201992306
H   H66       1.0  0.08290  0.50300  0.64460  1.0000 0.1122872736
H   H67       1.0  0.01890  0.56150  0.70530  1.0000 0.1122872736
H   H68       1.0  0.13730  0.60820  0.67610  1.0000 0.1122872736
C   C1        1.0  0.56480  0.43500  0.34580  1.0000 0.0224427993
C   C2        1.0  0.67270  0.65220  0.42530  1.0000 0.2540877092
C   C3        1.0  0.66360  0.17140  0.07540  1.0000 0.0498499026
C   C4        1.0  0.74530  0.32650  0.13920  1.0000 0.2128323915
C   C5        1.0  0.78640  0.50100  0.16830  1.0000 0.1201992306
C   C6        1.0  0.76230  0.23240  0.09750  1.0000 0.0089147161
C   C7        1.0  0.64480  0.40110  0.22700  1.0000 0.2271087061
C   C8        1.0  0.55560  0.38550  0.28000  1.0000 0.0018258581
C   C9        1.0  0.84480  0.59800  0.15430  1.0000 0.0274784717
C   C10       1.0  0.70470  0.49370  0.21970  1.0000 -0.2561742959
C   C11       1.0  0.80640  0.41550  0.12790  1.0000 -0.247673731
C   C12       1.0  0.88800  0.72720  0.06930  1.0000 -0.2143128884
C   C13       1.0  0.95410  0.74910  0.19750  1.0000 -0.2282198143
C   C14       1.0  0.90290  0.65700  0.21050  1.0000 -0.1220605939
C   C15       1.0  0.87590  0.20500  0.07870  1.0000 -0.0981358976
C   C16       1.0  0.94500  0.78590  0.12630  1.0000 0.2559189128
C   C17       1.0  0.78210  0.05920  0.02090  1.0000 0.0657853208
C   C18       1.0  0.83920  0.63430  0.08370  1.0000 -0.1220605939
C   C19       1.0  0.88480  0.11540  0.04010  1.0000 -0.1308908777
C   C20       1.0  0.45710  0.32070  0.26220  1.0000 -0.0689014659
C   C21       1.0  0.39010  0.36190  0.37580  1.0000 0.0843565839
C   C22       1.0  0.37250  0.31030  0.31120  1.0000 -0.1308908777
C   C23       1.0  0.06230  0.93040  0.16270  1.0000 -0.247673731
C   C24       1.0  0.43520  0.93500  0.15420  1.0000 0.0224427993
C   C25       1.0  0.32730  0.15220  0.07470  1.0000 0.2540877092
C   C26       1.0  0.33640  0.67140  0.42460  1.0000 0.0498499026
C   C27       1.0  0.25470  0.82650  0.36080  1.0000 0.2128323915
C   C28       1.0  0.21360  0.00100  0.33170  1.0000 0.1201992306
C   C29       1.0  0.23770  0.73240  0.40250  1.0000 0.0089147161
C   C30       1.0  0.35520  0.90110  0.27300  1.0000 0.2271087061
C   C31       1.0  0.44440  0.88550  0.22000  1.0000 0.0018258581
C   C32       1.0  0.15520  0.09800  0.34570  1.0000 0.0274784717
C   C33       1.0  0.29530  0.99370  0.28030  1.0000 -0.2561742959
C   C34       1.0  0.19360  0.91550  0.37210  1.0000 -0.247673731
C   C35       1.0  0.11200  0.22720  0.43070  1.0000 -0.2143128884
C   C36       1.0  0.04590  0.24910  0.30250  1.0000 -0.2282198143
C   C37       1.0  0.09710  0.15700  0.28950  1.0000 -0.1220605939
C   C38       1.0  0.12410  0.70500  0.42130  1.0000 -0.0981358976
C   C39       1.0  0.05500  0.28590  0.37370  1.0000 0.2559189128
C   C40       1.0  0.21790  0.55920  0.47910  1.0000 0.0657853208
C   C41       1.0  0.16080  0.13430  0.41630  1.0000 -0.1220605939
C   C42       1.0  0.11520  0.61540  0.45990  1.0000 -0.1308908777
C   C43       1.0  0.54290  0.82070  0.23780  1.0000 -0.0689014659
C   C44       1.0  0.60990  0.86190  0.12420  1.0000 0.0843565839
C   C45       1.0  0.62750  0.81030  0.18880  1.0000 -0.1308908777
C   C46       1.0  0.93770  0.43040  0.33730  1.0000 -0.247673731
C   C47       1.0  0.43520  0.56500  0.65420  1.0000 0.0224427993
C   C48       1.0  0.32730  0.34780  0.57470  1.0000 0.2540877092
C   C49       1.0  0.33640  0.82860  0.92460  1.0000 0.0498499026
C   C50       1.0  0.25470  0.67350  0.86080  1.0000 0.2128323915
C   C51       1.0  0.21360  0.49900  0.83170  1.0000 0.1201992306
C   C52       1.0  0.23770  0.76760  0.90250  1.0000 0.0089147161
C   C53       1.0  0.35520  0.59890  0.77300  1.0000 0.2271087061
C   C54       1.0  0.44440  0.61450  0.72000  1.0000 0.0018258581
C   C55       1.0  0.15520  0.40200  0.84570  1.0000 0.0274784717
C   C56       1.0  0.29530  0.50630  0.78030  1.0000 -0.2561742959
C   C57       1.0  0.19360  0.58450  0.87210  1.0000 -0.247673731
C   C58       1.0  0.11200  0.27280  0.93070  1.0000 -0.2143128884
C   C59       1.0  0.04590  0.25090  0.80250  1.0000 -0.2282198143
C   C60       1.0  0.09710  0.34300  0.78950  1.0000 -0.1220605939
C   C61       1.0  0.12410  0.79500  0.92130  1.0000 -0.0981358976
C   C62       1.0  0.05500  0.21410  0.87370  1.0000 0.2559189128
C   C63       1.0  0.21790  0.94080  0.97910  1.0000 0.0657853208
C   C64       1.0  0.16080  0.36570  0.91630  1.0000 -0.1220605939
C   C65       1.0  0.11520  0.88460  0.95990  1.0000 -0.1308908777
C   C66       1.0  0.54290  0.67930  0.73780  1.0000 -0.0689014659
C   C67       1.0  0.60990  0.63810  0.62420  1.0000 0.0843565839
C   C68       1.0  0.62750  0.68970  0.68880  1.0000 -0.1308908777
C   C69       1.0  0.93770  0.06960  0.83730  1.0000 -0.247673731
C   C70       1.0  0.56480  0.06500  0.84580  1.0000 0.0224427993
C   C71       1.0  0.67270  0.84780  0.92530  1.0000 0.2540877092
C   C72       1.0  0.66360  0.32860  0.57540  1.0000 0.0498499026
C   C73       1.0  0.74530  0.17350  0.63920  1.0000 0.2128323915
C   C74       1.0  0.78640  0.99900  0.66830  1.0000 0.1201992306
C   C75       1.0  0.76230  0.26760  0.59750  1.0000 0.0089147161
C   C76       1.0  0.64480  0.09890  0.72700  1.0000 0.2271087061
C   C77       1.0  0.55560  0.11450  0.78000  1.0000 0.0018258581
C   C78       1.0  0.84480  0.90200  0.65430  1.0000 0.0274784717
C   C79       1.0  0.70470  0.00630  0.71970  1.0000 -0.2561742959
C   C80       1.0  0.80640  0.08450  0.62790  1.0000 -0.247673731
C   C81       1.0  0.88800  0.77280  0.56930  1.0000 -0.2143128884
C   C82       1.0  0.95410  0.75090  0.69750  1.0000 -0.2282198143
C   C83       1.0  0.90290  0.84300  0.71050  1.0000 -0.1220605939
C   C84       1.0  0.87590  0.29500  0.57870  1.0000 -0.0981358976
C   C85       1.0  0.94500  0.71410  0.62630  1.0000 0.2559189128
C   C86       1.0  0.78210  0.44080  0.52090  1.0000 0.0657853208
C   C87       1.0  0.83920  0.86570  0.58370  1.0000 -0.1220605939
C   C88       1.0  0.88480  0.38460  0.54010  1.0000 -0.1308908777
C   C89       1.0  0.45710  0.17930  0.76220  1.0000 -0.0689014659
C   C90       1.0  0.39010  0.13810  0.87580  1.0000 0.0843565839
C   C91       1.0  0.37250  0.18970  0.81120  1.0000 -0.1308908777
C   C92       1.0  0.06230  0.56960  0.66270  1.0000 -0.247673731
S   S1        1.0  0.76759  0.70720  0.37677  1.0000 -0.3713492823
S   S2        1.0  0.23241  0.20720  0.12323  1.0000 -0.3713492823
S   S3        1.0  0.23241  0.29280  0.62323  1.0000 -0.3713492823
S   S4        1.0  0.76759  0.79280  0.87677  1.0000 -0.3713492823
N   N1        1.0  0.67020  0.08610  0.03680  1.0000 -0.2170970437
N   N2        1.0  0.60570  0.61130  0.45860  1.0000 -0.4824575332
N   N3        1.0  0.66370  0.31860  0.18760  1.0000 -0.34435942
N   N4        1.0  0.48400  0.42420  0.39470  1.0000 -0.2143128884
N   N5        1.0  0.32980  0.58610  0.46320  1.0000 -0.2170970437
N   N6        1.0  0.39430  0.11130  0.04140  1.0000 -0.4824575332
N   N7        1.0  0.33630  0.81860  0.31240  1.0000 -0.3458701742
N   N8        1.0  0.51600  0.92420  0.10530  1.0000 -0.2143128884
N   N9        1.0  0.32980  0.91390  0.96320  1.0000 -0.2170970437
N   N10       1.0  0.39430  0.38870  0.54140  1.0000 -0.4824575332
N   N11       1.0  0.33630  0.68140  0.81240  1.0000 -0.3458701742
N   N12       1.0  0.51600  0.57580  0.60530  1.0000 -0.2143128884
N   N13       1.0  0.67020  0.41390  0.53680  1.0000 -0.2170970437
N   N14       1.0  0.60570  0.88870  0.95860  1.0000 -0.4824575332
N   N15       1.0  0.66370  0.18140  0.68760  1.0000 -0.34435942
N   N16       1.0  0.48400  0.07580  0.89470  1.0000 -0.2143128884
O   O1        1.0  0.98670  0.87790  0.10730  1.0000 -0.1308908777
O   O2        1.0  0.01330  0.37790  0.39270  1.0000 -0.1308908777
O   O3        1.0  0.01330  0.12210  0.89270  1.0000 -0.1308908777
O   O4        1.0  0.98670  0.62210  0.60730  1.0000 -0.1308908777
