# DDEC6 charges by PACMAN v1.1 (https://github.com/mtap-research/PACMAN-charge/)
data_2019[Cu][bto]3[FSR]1
_chemical_formula_sum              "Cu6 H36 C42 N18 O18"
_cell_length_a       10.5867
_cell_length_b       10.5867
_cell_length_c       16.8414
_cell_angle_alpha    90
_cell_angle_beta     90
_cell_angle_gamma    120

_symmetry_space_group_name_H-M    "P 1"
_symmetry_Int_Tables_number       1

loop_
  _symmetry_equiv_pos_as_xyz
  'x, y, z'

loop_
  _atom_site_type_symbol
  _atom_site_label
  _atom_site_symmetry_multiplicity
  _atom_site_fract_x
  _atom_site_fract_y
  _atom_site_fract_z
  _atom_site_occupancy
  _atom_site_charge
Cu  Cu1       1.0  0.57831  0.86500  0.69658  1.0000 0.7273105103
Cu  Cu2       1.0  0.13500  0.71331  0.02991  1.0000 0.7273105103
Cu  Cu3       1.0  0.28669  0.42169  0.36325  1.0000 0.7273105103
Cu  Cu4       1.0  0.86500  0.57831  0.30342  1.0000 0.7273105103
Cu  Cu5       1.0  0.71331  0.13500  0.97009  1.0000 0.7273105103
Cu  Cu6       1.0  0.42169  0.28669  0.63675  1.0000 0.7273105103
H   H1        1.0  0.53170  0.92460  0.41200  1.0000 0.3034881222
H   H2        1.0  0.44000  0.76360  0.52410  1.0000 0.1210510761
H   H3        1.0  0.74270  0.16100  0.44900  1.0000 0.1367083657
H   H4        1.0  0.88360  0.26310  0.58670  1.0000 0.1210510761
H   H5        1.0  0.88680  0.13020  0.62990  1.0000 0.1298565212
H   H6        1.0  0.84740  0.27020  0.72560  1.0000 0.0939239356
H   H7        1.0  0.07540  0.60710  0.74533  1.0000 0.3034881222
H   H8        1.0  0.23640  0.67640  0.85743  1.0000 0.1210510761
H   H9        1.0  0.83900  0.58170  0.78233  1.0000 0.1367083657
H   H10       1.0  0.73690  0.62050  0.92003  1.0000 0.1210510761
H   H11       1.0  0.86980  0.75660  0.96323  1.0000 0.1298565212
H   H12       1.0  0.72980  0.57720  0.05893  1.0000 0.0939239356
H   H13       1.0  0.39290  0.46830  0.07867  1.0000 0.3034881222
H   H14       1.0  0.32360  0.56000  0.19077  1.0000 0.1210510761
H   H15       1.0  0.41830  0.25730  0.11567  1.0000 0.1367083657
H   H16       1.0  0.37950  0.11640  0.25337  1.0000 0.1210510761
H   H17       1.0  0.24340  0.11320  0.29657  1.0000 0.1298565212
H   H18       1.0  0.42280  0.15260  0.39227  1.0000 0.0939239356
H   H19       1.0  0.92460  0.53170  0.58800  1.0000 0.3034881222
H   H20       1.0  0.76360  0.44000  0.47590  1.0000 0.1210510761
H   H21       1.0  0.16100  0.74270  0.55100  1.0000 0.1367083657
H   H22       1.0  0.26310  0.88360  0.41330  1.0000 0.1210510761
H   H23       1.0  0.13020  0.88680  0.37010  1.0000 0.1298565212
H   H24       1.0  0.27020  0.84740  0.27440  1.0000 0.0939239356
H   H25       1.0  0.60710  0.07540  0.25467  1.0000 0.3034881222
H   H26       1.0  0.67640  0.23640  0.14257  1.0000 0.1210510761
H   H27       1.0  0.58170  0.83900  0.21767  1.0000 0.1367083657
H   H28       1.0  0.62050  0.73690  0.07997  1.0000 0.1210510761
H   H29       1.0  0.75660  0.86980  0.03677  1.0000 0.1298565212
H   H30       1.0  0.57720  0.72980  0.94107  1.0000 0.0939239356
H   H31       1.0  0.46830  0.39290  0.92133  1.0000 0.3034881222
H   H32       1.0  0.56000  0.32360  0.80923  1.0000 0.1210510761
H   H33       1.0  0.25730  0.41830  0.88433  1.0000 0.1367083657
H   H34       1.0  0.11640  0.37950  0.74663  1.0000 0.1210510761
H   H35       1.0  0.11320  0.24340  0.70343  1.0000 0.1298565212
H   H36       1.0  0.15260  0.42280  0.60773  1.0000 0.0939239356
C   C1        1.0  0.67440  0.07300  0.81331  1.0000 0.3507440108
C   C2        1.0  0.52040  0.86040  0.52368  1.0000 0.1724375157
C   C3        1.0  0.68670  0.07860  0.48188  1.0000 -0.1107334973
C   C4        1.0  0.70620  0.06540  0.56092  1.0000 0.1760826278
C   C5        1.0  0.82300  0.17010  0.61530  1.0000 -0.2950437945
C   C6        1.0  0.76280  0.20130  0.69211  1.0000 0.0263827722
C   C7        1.0  0.67450  0.27490  0.67074  1.0000 0.5570944268
C   C8        1.0  0.92700  0.60140  0.14664  1.0000 0.3507440108
C   C9        1.0  0.13960  0.66000  0.85701  1.0000 0.1724375157
C   C10       1.0  0.92140  0.60810  0.81521  1.0000 -0.1107334973
C   C11       1.0  0.93460  0.64080  0.89425  1.0000 0.1760826278
C   C12       1.0  0.82990  0.65290  0.94863  1.0000 -0.2950437945
C   C13       1.0  0.79870  0.56150  0.02544  1.0000 0.0263827722
C   C14       1.0  0.72510  0.39960  0.00407  1.0000 0.5570944268
C   C15       1.0  0.39860  0.32560  0.47998  1.0000 0.3507440108
C   C16       1.0  0.34000  0.47960  0.19035  1.0000 0.1724375157
C   C17       1.0  0.39190  0.31330  0.14855  1.0000 -0.1107334973
C   C18       1.0  0.35920  0.29380  0.22759  1.0000 0.1760826278
C   C19       1.0  0.34710  0.17700  0.28197  1.0000 -0.2938620132
C   C20       1.0  0.43850  0.23720  0.35878  1.0000 0.0263827722
C   C21       1.0  0.60040  0.32550  0.33741  1.0000 0.5570944268
C   C22       1.0  0.07300  0.67440  0.18669  1.0000 0.3507440108
C   C23       1.0  0.86040  0.52040  0.47632  1.0000 0.1724375157
C   C24       1.0  0.07860  0.68670  0.51812  1.0000 -0.1107334973
C   C25       1.0  0.06540  0.70620  0.43908  1.0000 0.1760826278
C   C26       1.0  0.17010  0.82300  0.38470  1.0000 -0.2938620132
C   C27       1.0  0.20130  0.76280  0.30789  1.0000 0.0263827722
C   C28       1.0  0.27490  0.67450  0.32926  1.0000 0.5570944268
C   C29       1.0  0.60140  0.92700  0.85336  1.0000 0.3507440108
C   C30       1.0  0.66000  0.13960  0.14299  1.0000 0.1724375157
C   C31       1.0  0.60810  0.92140  0.18479  1.0000 -0.1107334973
C   C32       1.0  0.64080  0.93460  0.10575  1.0000 0.1760826278
C   C33       1.0  0.65290  0.82990  0.05137  1.0000 -0.2950437945
C   C34       1.0  0.56150  0.79870  0.97456  1.0000 0.0263827722
C   C35       1.0  0.39960  0.72510  0.99593  1.0000 0.5570944268
C   C36       1.0  0.32560  0.39860  0.52002  1.0000 0.3507440108
C   C37       1.0  0.47960  0.34000  0.80965  1.0000 0.1724375157
C   C38       1.0  0.31330  0.39190  0.85145  1.0000 -0.1107334973
C   C39       1.0  0.29380  0.35920  0.77241  1.0000 0.1760826278
C   C40       1.0  0.17700  0.34710  0.71803  1.0000 -0.2950437945
C   C41       1.0  0.23720  0.43850  0.64122  1.0000 0.0263827722
C   C42       1.0  0.32550  0.60040  0.66259  1.0000 0.5570944268
N   N1        1.0  0.60190  0.93000  0.58606  1.0000 -0.3520732504
N   N2        1.0  0.56910  0.94760  0.46001  1.0000 -0.1822574568
N   N3        1.0  0.67910  0.06590  0.73612  1.0000 -0.4141637764
N   N4        1.0  0.07000  0.67190  0.91939  1.0000 -0.3520732504
N   N5        1.0  0.05240  0.62150  0.79334  1.0000 -0.1822574568
N   N6        1.0  0.93410  0.61320  0.06945  1.0000 -0.4141637764
N   N7        1.0  0.32810  0.39810  0.25273  1.0000 -0.3520732504
N   N8        1.0  0.37850  0.43090  0.12668  1.0000 -0.1822574568
N   N9        1.0  0.38680  0.32090  0.40279  1.0000 -0.4141637764
N   N10       1.0  0.93000  0.60190  0.41394  1.0000 -0.3520732504
N   N11       1.0  0.94760  0.56910  0.53999  1.0000 -0.1822574568
N   N12       1.0  0.06590  0.67910  0.26388  1.0000 -0.4141637764
N   N13       1.0  0.67190  0.07000  0.08061  1.0000 -0.3520732504
N   N14       1.0  0.62150  0.05240  0.20666  1.0000 -0.1822574568
N   N15       1.0  0.61320  0.93410  0.93055  1.0000 -0.4141637764
N   N16       1.0  0.39810  0.32810  0.74727  1.0000 -0.3520732504
N   N17       1.0  0.43090  0.37850  0.87332  1.0000 -0.1822574568
N   N18       1.0  0.32090  0.38680  0.59721  1.0000 -0.4141637764
O   O1        1.0  0.72840  0.18760  0.85642  1.0000 -0.4744239431
O   O2        1.0  0.53720  0.19630  0.66814  1.0000 -0.4943072281
O   O3        1.0  0.74550  0.40860  0.65563  1.0000 -0.5935219409
O   O4        1.0  0.81240  0.54080  0.18975  1.0000 -0.4744239431
O   O5        1.0  0.80370  0.34090  0.00147  1.0000 -0.4943072281
O   O6        1.0  0.59140  0.33690  0.98896  1.0000 -0.5935219409
O   O7        1.0  0.45920  0.27160  0.52309  1.0000 -0.4744239431
O   O8        1.0  0.65910  0.46280  0.33481  1.0000 -0.4943072281
O   O9        1.0  0.66310  0.25450  0.32230  1.0000 -0.5935219409
O   O10       1.0  0.18760  0.72840  0.14358  1.0000 -0.4744239431
O   O11       1.0  0.19630  0.53720  0.33186  1.0000 -0.4943072281
O   O12       1.0  0.40860  0.74550  0.34437  1.0000 -0.5935219409
O   O13       1.0  0.54080  0.81240  0.81025  1.0000 -0.4744239431
O   O14       1.0  0.34090  0.80370  0.99853  1.0000 -0.4943072281
O   O15       1.0  0.33690  0.59140  0.01104  1.0000 -0.5935219409
O   O16       1.0  0.27160  0.45920  0.47691  1.0000 -0.4744239431
O   O17       1.0  0.46280  0.65910  0.66519  1.0000 -0.4943072281
O   O18       1.0  0.25450  0.66310  0.67770  1.0000 -0.5935219409
