# DDEC6 charges by PACMAN v1.1 (https://github.com/mtap-research/PACMAN-charge/)
data_2019[Cd][nbo]3[FSR]1
_chemical_formula_sum              "Cd8 H96 C108 S8 N16 O48"
_cell_length_a       13.965
_cell_length_b       12.587
_cell_length_c       20.273
_cell_angle_alpha    90
_cell_angle_beta     109.178
_cell_angle_gamma    90

_symmetry_space_group_name_H-M    "P 1"
_symmetry_Int_Tables_number       1

loop_
  _symmetry_equiv_pos_as_xyz
  'x, y, z'

loop_
  _atom_site_type_symbol
  _atom_site_label
  _atom_site_symmetry_multiplicity
  _atom_site_fract_x
  _atom_site_fract_y
  _atom_site_fract_z
  _atom_site_occupancy
  _atom_site_charge
Cd  Cd1       1.0  0.37709  0.40578  0.80171  1.0000 0.9273802003
Cd  Cd2       1.0  0.11226  0.41532  0.20764  1.0000 0.9273802003
Cd  Cd3       1.0  0.62291  0.90578  0.69829  1.0000 0.9273802003
Cd  Cd4       1.0  0.88774  0.91532  0.29236  1.0000 0.9273802003
Cd  Cd5       1.0  0.62291  0.59422  0.19829  1.0000 0.9273802003
Cd  Cd6       1.0  0.88774  0.58468  0.79236  1.0000 0.9273802003
Cd  Cd7       1.0  0.37709  0.09422  0.30171  1.0000 0.9273802003
Cd  Cd8       1.0  0.11226  0.08468  0.70764  1.0000 0.9273802003
H   H1        1.0  0.17700  0.34630  0.77230  1.0000 0.3922451397
H   H2        1.0  0.17630  0.46090  0.77720  1.0000 0.3677136263
H   H3        1.0  0.31500  0.36520  0.24310  1.0000 0.3922451397
H   H4        1.0  0.31090  0.47880  0.23420  1.0000 0.3607763609
H   H5        1.0  0.32610  0.68270  0.60160  1.0000 0.2739007881
H   H6        1.0  0.17370  0.69310  0.40560  1.0000 0.2739007881
H   H7        1.0  0.38170  0.08950  0.65480  1.0000 0.1204128029
H   H8        1.0  0.39880  0.02230  0.54580  1.0000 0.1295524511
H   H9        1.0  0.12270  0.46490  0.97280  1.0000 0.1295524511
H   H10       1.0  0.12950  0.39310  0.86190  1.0000 0.1204128029
H   H11       1.0  0.36480  0.62020  0.88130  1.0000 0.1089517463
H   H12       1.0  0.37050  0.80370  0.87530  1.0000 0.1204128029
H   H13       1.0  0.38840  0.88440  0.77540  1.0000 0.1204128029
H   H14       1.0  0.40300  0.59150  0.69780  1.0000 0.1204128029
H   H15       1.0  0.40960  0.83400  0.53820  1.0000 0.1089517463
H   H16       1.0  0.34390  0.73460  0.49880  1.0000 0.0922205595
H   H17       1.0  0.24950  0.90840  0.54430  1.0000 0.1204128029
H   H18       1.0  0.26470  0.91150  0.46950  1.0000 0.1204128029
H   H19       1.0  0.09740  0.85260  0.46740  1.0000 0.1089517463
H   H20       1.0  0.15010  0.74620  0.50610  1.0000 0.0922205595
H   H21       1.0  0.13720  0.62140  0.12730  1.0000 0.1089517463
H   H22       1.0  0.15270  0.80430  0.13580  1.0000 0.1204128029
H   H23       1.0  0.13510  0.89040  0.23410  1.0000 0.1204128029
H   H24       1.0  0.09180  0.60430  0.30890  1.0000 0.1204128029
H   H25       1.0  0.82300  0.84630  0.72770  1.0000 0.3922451397
H   H26       1.0  0.82370  0.96090  0.72280  1.0000 0.3677136263
H   H27       1.0  0.68500  0.86520  0.25690  1.0000 0.3922451397
H   H28       1.0  0.68910  0.97880  0.26580  1.0000 0.3607763609
H   H29       1.0  0.67390  0.18270  0.89840  1.0000 0.2739007881
H   H30       1.0  0.82630  0.19310  0.09440  1.0000 0.2739007881
H   H31       1.0  0.61830  0.58950  0.84520  1.0000 0.1204128029
H   H32       1.0  0.60120  0.52230  0.95420  1.0000 0.1295524511
H   H33       1.0  0.87730  0.96490  0.52720  1.0000 0.1295524511
H   H34       1.0  0.87050  0.89310  0.63810  1.0000 0.1204128029
H   H35       1.0  0.63520  0.12020  0.61870  1.0000 0.1089517463
H   H36       1.0  0.62950  0.30370  0.62470  1.0000 0.1204128029
H   H37       1.0  0.61160  0.38440  0.72460  1.0000 0.1204128029
H   H38       1.0  0.59700  0.09150  0.80220  1.0000 0.1204128029
H   H39       1.0  0.59040  0.33400  0.96180  1.0000 0.1089517463
H   H40       1.0  0.65610  0.23460  0.00120  1.0000 0.0922205595
H   H41       1.0  0.75050  0.40840  0.95570  1.0000 0.1204128029
H   H42       1.0  0.73530  0.41150  0.03050  1.0000 0.1204128029
H   H43       1.0  0.90260  0.35260  0.03260  1.0000 0.1089517463
H   H44       1.0  0.84990  0.24620  0.99390  1.0000 0.0922205595
H   H45       1.0  0.86280  0.12140  0.37270  1.0000 0.1089517463
H   H46       1.0  0.84730  0.30430  0.36420  1.0000 0.1204128029
H   H47       1.0  0.86490  0.39040  0.26590  1.0000 0.1204128029
H   H48       1.0  0.90820  0.10430  0.19110  1.0000 0.1204128029
H   H49       1.0  0.82300  0.65370  0.22770  1.0000 0.3922451397
H   H50       1.0  0.82370  0.53910  0.22280  1.0000 0.3677136263
H   H51       1.0  0.68500  0.63480  0.75690  1.0000 0.3922451397
H   H52       1.0  0.68910  0.52120  0.76580  1.0000 0.3607763609
H   H53       1.0  0.67390  0.31730  0.39840  1.0000 0.2739007881
H   H54       1.0  0.82630  0.30690  0.59440  1.0000 0.2739007881
H   H55       1.0  0.61830  0.91050  0.34520  1.0000 0.1204128029
H   H56       1.0  0.60120  0.97770  0.45420  1.0000 0.1295524511
H   H57       1.0  0.87730  0.53510  0.02720  1.0000 0.1295524511
H   H58       1.0  0.87050  0.60690  0.13810  1.0000 0.1204128029
H   H59       1.0  0.63520  0.37980  0.11870  1.0000 0.1089517463
H   H60       1.0  0.62950  0.19630  0.12470  1.0000 0.1204128029
H   H61       1.0  0.61160  0.11560  0.22460  1.0000 0.1204128029
H   H62       1.0  0.59700  0.40850  0.30220  1.0000 0.1204128029
H   H63       1.0  0.59040  0.16600  0.46180  1.0000 0.1089517463
H   H64       1.0  0.65610  0.26540  0.50120  1.0000 0.0922205595
H   H65       1.0  0.75050  0.09160  0.45570  1.0000 0.1204128029
H   H66       1.0  0.73530  0.08850  0.53050  1.0000 0.1204128029
H   H67       1.0  0.90260  0.14740  0.53260  1.0000 0.1089517463
H   H68       1.0  0.84990  0.25380  0.49390  1.0000 0.0922205595
H   H69       1.0  0.86280  0.37860  0.87270  1.0000 0.1089517463
H   H70       1.0  0.84730  0.19570  0.86420  1.0000 0.1204128029
H   H71       1.0  0.86490  0.10960  0.76590  1.0000 0.1204128029
H   H72       1.0  0.90820  0.39570  0.69110  1.0000 0.1204128029
H   H73       1.0  0.17700  0.15370  0.27230  1.0000 0.3922451397
H   H74       1.0  0.17630  0.03910  0.27720  1.0000 0.3677136263
H   H75       1.0  0.31500  0.13480  0.74310  1.0000 0.3922451397
H   H76       1.0  0.31090  0.02120  0.73420  1.0000 0.3607763609
H   H77       1.0  0.32610  0.81730  0.10160  1.0000 0.2739007881
H   H78       1.0  0.17370  0.80690  0.90560  1.0000 0.2739007881
H   H79       1.0  0.38170  0.41050  0.15480  1.0000 0.1204128029
H   H80       1.0  0.39880  0.47770  0.04580  1.0000 0.1295524511
H   H81       1.0  0.12270  0.03510  0.47280  1.0000 0.1295524511
H   H82       1.0  0.12950  0.10690  0.36190  1.0000 0.1204128029
H   H83       1.0  0.36480  0.87980  0.38130  1.0000 0.1089517463
H   H84       1.0  0.37050  0.69630  0.37530  1.0000 0.1204128029
H   H85       1.0  0.38840  0.61560  0.27540  1.0000 0.1204128029
H   H86       1.0  0.40300  0.90850  0.19780  1.0000 0.1204128029
H   H87       1.0  0.40960  0.66600  0.03820  1.0000 0.1089517463
H   H88       1.0  0.34390  0.76540  0.99880  1.0000 0.0922205595
H   H89       1.0  0.24950  0.59160  0.04430  1.0000 0.1204128029
H   H90       1.0  0.26470  0.58850  0.96950  1.0000 0.1204128029
H   H91       1.0  0.09740  0.64740  0.96740  1.0000 0.1089517463
H   H92       1.0  0.15010  0.75380  0.00610  1.0000 0.0922205595
H   H93       1.0  0.13720  0.87860  0.62730  1.0000 0.1089517463
H   H94       1.0  0.15270  0.69570  0.63580  1.0000 0.1204128029
H   H95       1.0  0.13510  0.60960  0.73410  1.0000 0.1204128029
H   H96       1.0  0.09180  0.89570  0.80890  1.0000 0.1204128029
C   C1        1.0  0.36600  0.30940  0.67524  1.0000 0.5704830249
C   C2        1.0  0.36990  0.24110  0.61689  1.0000 -0.1096750446
C   C3        1.0  0.38050  0.13380  0.61663  1.0000 -0.1212637954
C   C4        1.0  0.38950  0.09520  0.55405  1.0000 -0.1037177408
C   C5        1.0  0.38350  0.17300  0.50644  1.0000 -0.1096750446
C   C6        1.0  0.38190  0.15790  0.43341  1.0000 0.5507286449
C   C7        1.0  0.10740  0.33140  0.07909  1.0000 0.5507286449
C   C8        1.0  0.10670  0.31520  0.00635  1.0000 -0.1096750446
C   C9        1.0  0.11780  0.39120  0.96195  1.0000 -0.1037177408
C   C10       1.0  0.12150  0.35040  0.89837  1.0000 -0.1212637954
C   C11       1.0  0.11240  0.24270  0.89498  1.0000 -0.1212637954
C   C12       1.0  0.10970  0.17330  0.83654  1.0000 0.5704830249
C   C13       1.0  0.37360  0.65210  0.84124  1.0000 0.0751707366
C   C14       1.0  0.37600  0.76160  0.83782  1.0000 -0.1437564718
C   C15       1.0  0.38660  0.80930  0.77909  1.0000 -0.0674003552
C   C16       1.0  0.39460  0.74460  0.72556  1.0000 -0.0593898503
C   C17       1.0  0.39460  0.63530  0.73362  1.0000 0.027828954
C   C18       1.0  0.40150  0.79560  0.66020  1.0000 0.457054015
C   C19       1.0  0.34760  0.79200  0.53297  1.0000 -0.0288828064
C   C20       1.0  0.25470  0.86360  0.50544  1.0000 -0.2347220333
C   C21       1.0  0.15500  0.80340  0.47374  1.0000 -0.0288828064
C   C22       1.0  0.10720  0.80860  0.34661  1.0000 0.4545983037
C   C23       1.0  0.13060  0.65580  0.16735  1.0000 0.0573651825
C   C24       1.0  0.13990  0.76460  0.17187  1.0000 -0.1437564718
C   C25       1.0  0.13040  0.81520  0.23007  1.0000 -0.0593898503
C   C26       1.0  0.11380  0.75470  0.28234  1.0000 -0.0593898503
C   C27       1.0  0.10450  0.64570  0.27344  1.0000 0.0361297501
C   C28       1.0  0.63400  0.80940  0.82476  1.0000 0.5704830249
C   C29       1.0  0.63010  0.74110  0.88311  1.0000 -0.1096750446
C   C30       1.0  0.61950  0.63380  0.88337  1.0000 -0.1212637954
C   C31       1.0  0.61050  0.59520  0.94595  1.0000 -0.1037177408
C   C32       1.0  0.61650  0.67300  0.99356  1.0000 -0.1096750446
C   C33       1.0  0.61810  0.65790  0.06659  1.0000 0.5507286449
C   C34       1.0  0.89260  0.83140  0.42091  1.0000 0.5507286449
C   C35       1.0  0.89330  0.81520  0.49365  1.0000 -0.1096750446
C   C36       1.0  0.88220  0.89120  0.53805  1.0000 -0.1096750446
C   C37       1.0  0.87850  0.85040  0.60163  1.0000 -0.1212637954
C   C38       1.0  0.88760  0.74270  0.60502  1.0000 -0.1212637954
C   C39       1.0  0.89030  0.67330  0.66346  1.0000 0.5704830249
C   C40       1.0  0.62640  0.15210  0.65876  1.0000 0.0751707366
C   C41       1.0  0.62400  0.26160  0.66218  1.0000 -0.1437564718
C   C42       1.0  0.61340  0.30930  0.72091  1.0000 -0.0674003552
C   C43       1.0  0.60540  0.24460  0.77444  1.0000 -0.0593898503
C   C44       1.0  0.60540  0.13530  0.76638  1.0000 0.027828954
C   C45       1.0  0.59850  0.29560  0.83980  1.0000 0.457054015
C   C46       1.0  0.65240  0.29200  0.96703  1.0000 -0.0288828064
C   C47       1.0  0.74530  0.36360  0.99456  1.0000 -0.2347220333
C   C48       1.0  0.84500  0.30340  0.02626  1.0000 -0.0288828064
C   C49       1.0  0.89280  0.30860  0.15339  1.0000 0.4545983037
C   C50       1.0  0.86940  0.15580  0.33265  1.0000 0.0573651825
C   C51       1.0  0.86010  0.26460  0.32813  1.0000 -0.1437564718
C   C52       1.0  0.86960  0.31520  0.26993  1.0000 -0.0593898503
C   C53       1.0  0.88620  0.25470  0.21766  1.0000 -0.0593898503
C   C54       1.0  0.89550  0.14570  0.22656  1.0000 0.0361297501
C   C55       1.0  0.63400  0.69060  0.32476  1.0000 0.5704830249
C   C56       1.0  0.63010  0.75890  0.38311  1.0000 -0.1096750446
C   C57       1.0  0.61950  0.86620  0.38337  1.0000 -0.1212637954
C   C58       1.0  0.61050  0.90480  0.44595  1.0000 -0.1037177408
C   C59       1.0  0.61650  0.82700  0.49356  1.0000 -0.1096750446
C   C60       1.0  0.61810  0.84210  0.56659  1.0000 0.5507286449
C   C61       1.0  0.89260  0.66860  0.92091  1.0000 0.5507286449
C   C62       1.0  0.89330  0.68480  0.99365  1.0000 -0.1096750446
C   C63       1.0  0.88220  0.60880  0.03805  1.0000 -0.1037177408
C   C64       1.0  0.87850  0.64960  0.10163  1.0000 -0.1212637954
C   C65       1.0  0.88760  0.75730  0.10502  1.0000 -0.1212637954
C   C66       1.0  0.89030  0.82670  0.16346  1.0000 0.5704830249
C   C67       1.0  0.62640  0.34790  0.15876  1.0000 0.0751707366
C   C68       1.0  0.62400  0.23840  0.16218  1.0000 -0.1437564718
C   C69       1.0  0.61340  0.19070  0.22091  1.0000 -0.0674003552
C   C70       1.0  0.60540  0.25540  0.27444  1.0000 -0.0593898503
C   C71       1.0  0.60540  0.36470  0.26638  1.0000 0.027828954
C   C72       1.0  0.59850  0.20440  0.33980  1.0000 0.457054015
C   C73       1.0  0.65240  0.20800  0.46703  1.0000 -0.0288828064
C   C74       1.0  0.74530  0.13640  0.49456  1.0000 -0.2347220333
C   C75       1.0  0.84500  0.19660  0.52626  1.0000 -0.0288828064
C   C76       1.0  0.89280  0.19140  0.65339  1.0000 0.4545983037
C   C77       1.0  0.86940  0.34420  0.83265  1.0000 0.0573651825
C   C78       1.0  0.86010  0.23540  0.82813  1.0000 -0.1437564718
C   C79       1.0  0.86960  0.18480  0.76993  1.0000 -0.0593898503
C   C80       1.0  0.88620  0.24530  0.71766  1.0000 -0.0593898503
C   C81       1.0  0.89550  0.35430  0.72656  1.0000 0.0361297501
C   C82       1.0  0.36600  0.19060  0.17524  1.0000 0.5704830249
C   C83       1.0  0.36990  0.25890  0.11689  1.0000 -0.1096750446
C   C84       1.0  0.38050  0.36620  0.11663  1.0000 -0.1212637954
C   C85       1.0  0.38950  0.40480  0.05405  1.0000 -0.1037177408
C   C86       1.0  0.38350  0.32700  0.00644  1.0000 -0.1096750446
C   C87       1.0  0.38190  0.34210  0.93341  1.0000 0.5507286449
C   C88       1.0  0.10740  0.16860  0.57909  1.0000 0.5507286449
C   C89       1.0  0.10670  0.18480  0.50635  1.0000 -0.1096750446
C   C90       1.0  0.11780  0.10880  0.46195  1.0000 -0.1037177408
C   C91       1.0  0.12150  0.14960  0.39837  1.0000 -0.1212637954
C   C92       1.0  0.11240  0.25730  0.39498  1.0000 -0.1212637954
C   C93       1.0  0.10970  0.32670  0.33654  1.0000 0.5704830249
C   C94       1.0  0.37360  0.84790  0.34124  1.0000 0.0751707366
C   C95       1.0  0.37600  0.73840  0.33782  1.0000 -0.1437564718
C   C96       1.0  0.38660  0.69070  0.27909  1.0000 -0.0674003552
C   C97       1.0  0.39460  0.75540  0.22556  1.0000 -0.0593898503
C   C98       1.0  0.39460  0.86470  0.23362  1.0000 0.027828954
C   C99       1.0  0.40150  0.70440  0.16020  1.0000 0.457054015
C   C100      1.0  0.34760  0.70800  0.03297  1.0000 -0.0288828064
C   C101      1.0  0.25470  0.63640  0.00544  1.0000 -0.2347220333
C   C102      1.0  0.15500  0.69660  0.97374  1.0000 -0.0288828064
C   C103      1.0  0.10720  0.69140  0.84661  1.0000 0.4545983037
C   C104      1.0  0.13060  0.84420  0.66735  1.0000 0.0573651825
C   C105      1.0  0.13990  0.73540  0.67187  1.0000 -0.1437564718
C   C106      1.0  0.13040  0.68480  0.73007  1.0000 -0.0593898503
C   C107      1.0  0.11380  0.74530  0.78234  1.0000 -0.0593898503
C   C108      1.0  0.10450  0.85430  0.77344  1.0000 0.0361297501
S   S1        1.0  0.36970  0.29653  0.53903  1.0000 0.1465981712
S   S2        1.0  0.09815  0.19047  0.96986  1.0000 0.1295524511
S   S3        1.0  0.63030  0.79653  0.96097  1.0000 0.1438786249
S   S4        1.0  0.90185  0.69047  0.53014  1.0000 0.1295524511
S   S5        1.0  0.63030  0.70347  0.46097  1.0000 0.1438786249
S   S6        1.0  0.90185  0.80953  0.03014  1.0000 0.1295524511
S   S7        1.0  0.36970  0.20347  0.03903  1.0000 0.1438786249
S   S8        1.0  0.09815  0.30953  0.46986  1.0000 0.1295524511
N   N1        1.0  0.38310  0.58880  0.79065  1.0000 -0.2372625882
N   N2        1.0  0.35400  0.74500  0.60039  1.0000 -0.329229925
N   N3        1.0  0.14890  0.75720  0.40655  1.0000 -0.3180337513
N   N4        1.0  0.11270  0.59590  0.21695  1.0000 -0.2372625882
N   N5        1.0  0.61690  0.08880  0.70935  1.0000 -0.2372625882
N   N6        1.0  0.64600  0.24500  0.89961  1.0000 -0.329229925
N   N7        1.0  0.85110  0.25720  0.09345  1.0000 -0.3180337513
N   N8        1.0  0.88730  0.09590  0.28305  1.0000 -0.2372625882
N   N9        1.0  0.61690  0.41120  0.20935  1.0000 -0.2372625882
N   N10       1.0  0.64600  0.25500  0.39961  1.0000 -0.329229925
N   N11       1.0  0.85110  0.24280  0.59345  1.0000 -0.3180337513
N   N12       1.0  0.88730  0.40410  0.78305  1.0000 -0.2372625882
N   N13       1.0  0.38310  0.91120  0.29065  1.0000 -0.2372625882
N   N14       1.0  0.35400  0.75500  0.10039  1.0000 -0.329229925
N   N15       1.0  0.14890  0.74280  0.90655  1.0000 -0.3180337513
N   N16       1.0  0.11270  0.90410  0.71695  1.0000 -0.2372625882
O   O1        1.0  0.20108  0.40604  0.75993  1.0000 -0.6819069723
O   O2        1.0  0.36910  0.26331  0.73182  1.0000 -0.5501835311
O   O3        1.0  0.36290  0.40852  0.66995  1.0000 -0.5587851296
O   O4        1.0  0.37910  0.23560  0.39456  1.0000 -0.533930544
O   O5        1.0  0.38400  0.06310  0.41394  1.0000 -0.5501835311
O   O6        1.0  0.28760  0.42450  0.25253  1.0000 -0.6819069723
O   O7        1.0  0.11740  0.42700  0.09935  1.0000 -0.5587851296
O   O8        1.0  0.09800  0.25530  0.11602  1.0000 -0.533930544
O   O9        1.0  0.09630  0.07452  0.84059  1.0000 -0.5709915797
O   O10       1.0  0.11908  0.21548  0.78215  1.0000 -0.5427236894
O   O11       1.0  0.06681  0.89758  0.34236  1.0000 -0.5080405811
O   O12       1.0  0.44480  0.88195  0.66265  1.0000 -0.5032356421
O   O13       1.0  0.79892  0.90604  0.74007  1.0000 -0.6819069723
O   O14       1.0  0.63090  0.76331  0.76818  1.0000 -0.5501835311
O   O15       1.0  0.63710  0.90852  0.83005  1.0000 -0.5587851296
O   O16       1.0  0.62090  0.73560  0.10544  1.0000 -0.533930544
O   O17       1.0  0.61600  0.56310  0.08606  1.0000 -0.5501835311
O   O18       1.0  0.71240  0.92450  0.24747  1.0000 -0.6819069723
O   O19       1.0  0.88260  0.92700  0.40065  1.0000 -0.5587851296
O   O20       1.0  0.90200  0.75530  0.38398  1.0000 -0.533930544
O   O21       1.0  0.90370  0.57452  0.65941  1.0000 -0.5709915797
O   O22       1.0  0.88092  0.71548  0.71785  1.0000 -0.5427236894
O   O23       1.0  0.93319  0.39758  0.15764  1.0000 -0.5080405811
O   O24       1.0  0.55520  0.38195  0.83735  1.0000 -0.5032356421
O   O25       1.0  0.79892  0.59396  0.24007  1.0000 -0.6819069723
O   O26       1.0  0.63090  0.73669  0.26818  1.0000 -0.5501835311
O   O27       1.0  0.63710  0.59148  0.33005  1.0000 -0.5587851296
O   O28       1.0  0.62090  0.76440  0.60544  1.0000 -0.533930544
O   O29       1.0  0.61600  0.93690  0.58606  1.0000 -0.5501835311
O   O30       1.0  0.71240  0.57550  0.74747  1.0000 -0.6819069723
O   O31       1.0  0.88260  0.57300  0.90065  1.0000 -0.5587851296
O   O32       1.0  0.90200  0.74470  0.88398  1.0000 -0.533930544
O   O33       1.0  0.90370  0.92548  0.15941  1.0000 -0.5709915797
O   O34       1.0  0.88092  0.78452  0.21785  1.0000 -0.5427236894
O   O35       1.0  0.93319  0.10242  0.65764  1.0000 -0.5080405811
O   O36       1.0  0.55520  0.11805  0.33735  1.0000 -0.5032356421
O   O37       1.0  0.20108  0.09396  0.25993  1.0000 -0.6819069723
O   O38       1.0  0.36910  0.23669  0.23182  1.0000 -0.5501835311
O   O39       1.0  0.36290  0.09148  0.16995  1.0000 -0.5587851296
O   O40       1.0  0.37910  0.26440  0.89456  1.0000 -0.533930544
O   O41       1.0  0.38400  0.43690  0.91394  1.0000 -0.5501835311
O   O42       1.0  0.28760  0.07550  0.75253  1.0000 -0.6819069723
O   O43       1.0  0.11740  0.07300  0.59935  1.0000 -0.5587851296
O   O44       1.0  0.09800  0.24470  0.61602  1.0000 -0.533930544
O   O45       1.0  0.09630  0.42548  0.34059  1.0000 -0.5709915797
O   O46       1.0  0.11908  0.28452  0.28215  1.0000 -0.5427236894
O   O47       1.0  0.06681  0.60242  0.84236  1.0000 -0.5080405811
O   O48       1.0  0.44480  0.61805  0.16265  1.0000 -0.5032356421
