# DDEC6 charges by PACMAN v1.1 (https://github.com/mtap-research/PACMAN-charge/)
data_2019[Zn][lon]3[FSR]4
_chemical_formula_sum              "Zn2 H26 C20 N10 O8"
_cell_length_a       9.5309
_cell_length_b       9.0153
_cell_length_c       11.0339
_cell_angle_alpha    90
_cell_angle_beta     108.349
_cell_angle_gamma    90

_symmetry_space_group_name_H-M    "P 1"
_symmetry_Int_Tables_number       1

loop_
  _symmetry_equiv_pos_as_xyz
  'x, y, z'

loop_
  _atom_site_type_symbol
  _atom_site_label
  _atom_site_symmetry_multiplicity
  _atom_site_fract_x
  _atom_site_fract_y
  _atom_site_fract_z
  _atom_site_occupancy
  _atom_site_charge
Zn  Zn1       1.0  0.85348  0.43167  0.07598  1.0000 0.7147867706
Zn  Zn2       1.0  0.14652  0.93167  0.92402  1.0000 0.7153694656
H   H1        1.0  0.83000  0.54800  0.26960  1.0000 0.2704194215
H   H2        1.0  0.97680  0.57790  0.26720  1.0000 0.2428619441
H   H3        1.0  0.34470  0.41390  0.92620  1.0000 0.2704194215
H   H4        1.0  0.15210  0.29890  0.54930  1.0000 0.2763341692
H   H5        1.0  0.44990  0.29110  0.15810  1.0000 0.1305320314
H   H6        1.0  0.43750  0.11810  0.14680  1.0000 0.1305320314
H   H7        1.0  0.20800  0.41910  0.15700  1.0000 0.1183740635
H   H8        1.0  0.29320  0.51400  0.68980  1.0000 0.1363056328
H   H9        1.0  0.15960  0.47680  0.73910  1.0000 0.1305320314
H   H10       1.0  0.88610  0.34200  0.36650  1.0000 0.1363056328
H   H11       1.0  0.03490  0.33660  0.33450  1.0000 0.1183740635
H   H12       1.0  0.41470  0.12080  0.93710  1.0000 0.099186587
H   H13       1.0  0.92190  0.11840  0.99020  1.0000 0.099186587
H   H14       1.0  0.17000  0.04800  0.73040  1.0000 0.2704194215
H   H15       1.0  0.02320  0.07790  0.73280  1.0000 0.2428619441
H   H16       1.0  0.65530  0.91390  0.07380  1.0000 0.2704194215
H   H17       1.0  0.84790  0.79890  0.45070  1.0000 0.2763341692
H   H18       1.0  0.55010  0.79110  0.84190  1.0000 0.1305320314
H   H19       1.0  0.56250  0.61810  0.85320  1.0000 0.1305320314
H   H20       1.0  0.79200  0.91910  0.84300  1.0000 0.1183740635
H   H21       1.0  0.70680  0.01400  0.31020  1.0000 0.1363056328
H   H22       1.0  0.84040  0.97680  0.26090  1.0000 0.1305320314
H   H23       1.0  0.11390  0.84200  0.63350  1.0000 0.1363056328
H   H24       1.0  0.96510  0.83660  0.66550  1.0000 0.1183740635
H   H25       1.0  0.58530  0.62080  0.06290  1.0000 0.099186587
H   H26       1.0  0.07810  0.61840  0.00980  1.0000 0.099186587
C   C1        1.0  0.23780  0.22030  0.08340  1.0000 0.1628705811
C   C2        1.0  0.40050  0.21030  0.10310  1.0000 -0.2977464322
C   C3        1.0  0.16500  0.33250  0.11600  1.0000 -0.1339905534
C   C4        1.0  0.60810  0.23700  0.01650  1.0000 0.552421334
C   C5        1.0  0.22530  0.43630  0.69580  1.0000 -0.2058876578
C   C6        1.0  0.96680  0.40200  0.35780  1.0000 -0.1939542789
C   C7        1.0  0.44010  0.21660  0.98040  1.0000 -0.0042097444
C   C8        1.0  0.30970  0.31040  0.77090  1.0000 0.4682996746
C   C9        1.0  0.01060  0.16890  0.02510  1.0000 0.1628705811
C   C10       1.0  0.04570  0.47270  0.48440  1.0000 0.4793296781
C   C11       1.0  0.76220  0.72030  0.91660  1.0000 0.1628705811
C   C12       1.0  0.59950  0.71030  0.89690  1.0000 -0.2977464322
C   C13       1.0  0.83500  0.83250  0.88400  1.0000 -0.1339905534
C   C14       1.0  0.39190  0.73700  0.98350  1.0000 0.552421334
C   C15       1.0  0.77470  0.93630  0.30420  1.0000 -0.2058876578
C   C16       1.0  0.03320  0.90200  0.64220  1.0000 -0.1939542789
C   C17       1.0  0.55990  0.71660  0.01960  1.0000 -0.0042097444
C   C18       1.0  0.69030  0.81040  0.22910  1.0000 0.4682996746
C   C19       1.0  0.98940  0.66890  0.97490  1.0000 0.1628705811
C   C20       1.0  0.95430  0.97270  0.51560  1.0000 0.4793296781
N   N1        1.0  0.13730  0.11450  0.02330  1.0000 -0.3595046077
N   N2        1.0  0.90970  0.50660  0.25820  1.0000 -0.4786593292
N   N3        1.0  0.01680  0.29960  0.07930  1.0000 -0.3094094369
N   N4        1.0  0.36030  0.33040  0.89490  1.0000 -0.3454251859
N   N5        1.0  0.14040  0.38890  0.57010  1.0000 -0.2900119249
N   N6        1.0  0.86270  0.61450  0.97670  1.0000 -0.3595046077
N   N7        1.0  0.09030  0.00660  0.74180  1.0000 -0.4786593292
N   N8        1.0  0.98320  0.79960  0.92070  1.0000 -0.3094094369
N   N9        1.0  0.63970  0.83040  0.10510  1.0000 -0.3435876641
N   N10       1.0  0.85960  0.88890  0.42990  1.0000 -0.2900119249
O   O1        1.0  0.32340  0.19630  0.71630  1.0000 -0.4786593292
O   O2        1.0  0.69060  0.13150  0.05150  1.0000 -0.5492012177
O   O3        1.0  0.65030  0.37140  0.01300  1.0000 -0.5416246626
O   O4        1.0  0.02130  0.60050  0.50680  1.0000 -0.5128679846
O   O5        1.0  0.67660  0.69630  0.28370  1.0000 -0.4786593292
O   O6        1.0  0.30940  0.63150  0.94850  1.0000 -0.5492012177
O   O7        1.0  0.34970  0.87140  0.98700  1.0000 -0.5416246626
O   O8        1.0  0.97870  0.10050  0.49320  1.0000 -0.5128679846
