# DDEC6 charges by PACMAN v1.1 (https://github.com/mtap-research/PACMAN-charge/)
data_2019[CoMn][nan]3[FSR]1
_chemical_formula_sum              "O48 F72 C204 H96 Co6 Mn6"
_cell_length_a       21.2761
_cell_length_b       21.2761
_cell_length_c       15.1699
_cell_angle_alpha    90
_cell_angle_beta     90
_cell_angle_gamma    120

_symmetry_space_group_name_H-M    "P 1"
_symmetry_Int_Tables_number       1

loop_
  _symmetry_equiv_pos_as_xyz
  'x, y, z'

loop_
  _atom_site_type_symbol
  _atom_site_label
  _atom_site_symmetry_multiplicity
  _atom_site_fract_x
  _atom_site_fract_y
  _atom_site_fract_z
  _atom_site_occupancy
  _atom_site_charge
O   O1        1.0  0.74418  0.37427  0.02129  1.0000 -0.5994504833
O   O2        1.0  0.23075  0.65576  0.77500  1.0000 -0.551600858
F   F1        1.0  0.90605  0.70240  0.81550  1.0000 -0.1905700066
C   C1        1.0  0.19510  0.67980  0.73730  1.0000 0.5774960276
O   O3        1.0  0.20467  0.70200  0.65840  1.0000 -0.5304531225
C   C2        1.0  0.88810  0.63170  0.05760  1.0000 -0.1405450137
H   H1        1.0  0.90210  0.67260  0.09250  1.0000 0.1199042303
C   C3        1.0  0.89670  0.57760  0.92390  1.0000 -0.1259580298
H   H2        1.0  0.91690  0.58190  0.86830  1.0000 0.1199042303
C   C4        1.0  0.97970  0.71240  0.93760  1.0000 -0.2784447987
F   F2        1.0  0.04760  0.73740  0.07160  1.0000 -0.1905700066
F   F3        1.0  0.98440  0.81080  0.85540  1.0000 -0.1960792306
C   C5        1.0  0.83540  0.56440  0.08740  1.0000 -0.0907558401
H   H3        1.0  0.81440  0.56030  0.14240  1.0000 0.1294512071
C   C6        1.0  0.75907  0.42940  0.07100  1.0000 0.598325874
C   C7        1.0  0.81350  0.50300  0.03630  1.0000 -0.0163290691
C   C8        1.0  0.13730  0.68480  0.78710  1.0000 -0.0322428302
C   C9        1.0  0.10290  0.71850  0.74880  1.0000 -0.0840410895
H   H4        1.0  0.11390  0.73510  0.69110  1.0000 0.1199042303
F   F4        1.0  0.98810  0.79329  0.05460  1.0000 -0.1905700066
F   F5        1.0  0.88920  0.74670  0.93370  1.0000 -0.1905700066
F   F6        1.0  0.08350  0.82414  0.97740  1.0000 -0.1905700066
C   C10       1.0  0.92050  0.63880  0.97560  1.0000 0.0785267086
C   C11       1.0  0.02480  0.76710  0.01140  1.0000 0.6620429661
C   C12       1.0  0.11940  0.65870  0.87300  1.0000 -0.0840410895
H   H5        1.0  0.14220  0.63600  0.89960  1.0000 0.1294512071
C   C13       1.0  0.84350  0.51030  0.95270  1.0000 -0.0984461984
H   H6        1.0  0.82780  0.46990  0.91650  1.0000 0.1199042303
C   C14       1.0  0.93970  0.74330  0.88430  1.0000 0.6620429661
C   C15       1.0  0.05190  0.72780  0.79590  1.0000 -0.1545052522
H   H7        1.0  0.02990  0.75140  0.77000  1.0000 0.1199042303
O   O4        1.0  0.73324  0.42468  0.14518  1.0000 -0.5304531225
C   C16       1.0  0.03410  0.70190  0.88120  1.0000 0.0743011776
C   C17       1.0  0.06760  0.66680  0.91880  1.0000 -0.1405450137
H   H8        1.0  0.05510  0.64830  0.97560  1.0000 0.1199042303
O   O5        1.0  0.62573  0.36991  0.68796  1.0000 -0.5994504833
O   O6        1.0  0.34424  0.57499  0.44167  1.0000 -0.551600858
F   F7        1.0  0.29760  0.20365  0.48217  1.0000 -0.1905700066
C   C18       1.0  0.32020  0.51530  0.40397  1.0000 0.5774960276
O   O7        1.0  0.29800  0.50267  0.32507  1.0000 -0.5304531225
C   C19       1.0  0.36830  0.25640  0.72427  1.0000 -0.1405450137
H   H9        1.0  0.32740  0.22950  0.75917  1.0000 0.1199042303
C   C20       1.0  0.42240  0.31910  0.59057  1.0000 -0.1259580298
H   H10       1.0  0.41810  0.33500  0.53497  1.0000 0.1199042303
C   C21       1.0  0.28760  0.26730  0.60427  1.0000 -0.2784447987
F   F8        1.0  0.26260  0.31020  0.73827  1.0000 -0.1905700066
F   F9        1.0  0.18920  0.17360  0.52207  1.0000 -0.1960792306
C   C22       1.0  0.43560  0.27100  0.75407  1.0000 -0.0907558401
H   H11       1.0  0.43970  0.25410  0.80907  1.0000 0.1294512071
C   C23       1.0  0.57060  0.32967  0.73767  1.0000 0.598325874
C   C24       1.0  0.49700  0.31050  0.70297  1.0000 -0.0163290691
C   C25       1.0  0.31520  0.45250  0.45377  1.0000 -0.0322428302
C   C26       1.0  0.28150  0.38440  0.41547  1.0000 -0.0840410895
H   H12       1.0  0.26490  0.37880  0.35777  1.0000 0.1199042303
F   F10       1.0  0.20671  0.19481  0.72127  1.0000 -0.1905700066
F   F11       1.0  0.25330  0.14250  0.60037  1.0000 -0.1905700066
F   F12       1.0  0.17586  0.25936  0.64407  1.0000 -0.1905700066
C   C27       1.0  0.36120  0.28170  0.64227  1.0000 0.0785267086
C   C28       1.0  0.23290  0.25770  0.67807  1.0000 0.6620429661
C   C29       1.0  0.34130  0.46070  0.53967  1.0000 -0.0840410895
H   H13       1.0  0.36400  0.50620  0.56627  1.0000 0.1294512071
C   C30       1.0  0.48970  0.33320  0.61937  1.0000 -0.0984461984
H   H14       1.0  0.53010  0.35790  0.58317  1.0000 0.1199042303
C   C31       1.0  0.25670  0.19640  0.55097  1.0000 0.6620429661
C   C32       1.0  0.27220  0.32410  0.46257  1.0000 -0.1551682049
H   H15       1.0  0.24860  0.27850  0.43667  1.0000 0.1199042303
O   O8        1.0  0.57532  0.30856  0.81185  1.0000 -0.5304531225
C   C33       1.0  0.29810  0.33220  0.54787  1.0000 0.0743011776
C   C34       1.0  0.33320  0.40080  0.58547  1.0000 -0.1405450137
H   H16       1.0  0.35170  0.40680  0.64227  1.0000 0.1199042303
O   O9        1.0  0.63009  0.25582  0.35462  1.0000 -0.5994504833
O   O10       1.0  0.42501  0.76925  0.10833  1.0000 -0.551600858
F   F13       1.0  0.79635  0.09395  0.14883  1.0000 -0.1905700066
C   C35       1.0  0.48470  0.80490  0.07063  1.0000 0.5774960276
O   O11       1.0  0.49733  0.79533  0.99173  1.0000 -0.5304531225
C   C36       1.0  0.74360  0.11190  0.39093  1.0000 -0.1405450137
H   H17       1.0  0.77050  0.09790  0.42583  1.0000 0.1199042303
C   C37       1.0  0.68090  0.10330  0.25723  1.0000 -0.1259580298
H   H18       1.0  0.66500  0.08310  0.20163  1.0000 0.1199042303
C   C38       1.0  0.73270  0.02030  0.27093  1.0000 -0.2784447987
F   F14       1.0  0.68980  0.95240  0.40493  1.0000 -0.1905700066
F   F15       1.0  0.82640  0.01560  0.18873  1.0000 -0.1960792306
C   C39       1.0  0.72900  0.16460  0.42073  1.0000 -0.0907558401
H   H19       1.0  0.74590  0.18560  0.47573  1.0000 0.1294512071
C   C40       1.0  0.67033  0.24093  0.40433  1.0000 0.598325874
C   C41       1.0  0.68950  0.18650  0.36963  1.0000 -0.0163290691
C   C42       1.0  0.54750  0.86270  0.12043  1.0000 -0.0322428302
C   C43       1.0  0.61560  0.89710  0.08213  1.0000 -0.0840410895
H   H20       1.0  0.62120  0.88610  0.02443  1.0000 0.1199042303
F   F16       1.0  0.80519  0.01190  0.38793  1.0000 -0.1905700066
F   F17       1.0  0.85750  0.11080  0.26703  1.0000 -0.1905700066
F   F18       1.0  0.74064  0.91650  0.31073  1.0000 -0.1905700066
C   C44       1.0  0.71830  0.07950  0.30893  1.0000 0.0785267086
C   C45       1.0  0.74230  0.97520  0.34473  1.0000 0.6620429661
C   C46       1.0  0.53930  0.88060  0.20633  1.0000 -0.0840410895
H   H21       1.0  0.49380  0.85780  0.23293  1.0000 0.1294512071
C   C47       1.0  0.66680  0.15650  0.28603  1.0000 -0.0984461984
H   H22       1.0  0.64210  0.17220  0.24983  1.0000 0.1199042303
C   C48       1.0  0.80360  0.06030  0.21763  1.0000 0.6620429661
C   C49       1.0  0.67590  0.94810  0.12923  1.0000 -0.1551682049
H   H23       1.0  0.72150  0.97010  0.10333  1.0000 0.1199042303
O   O12       1.0  0.69144  0.26676  0.47851  1.0000 -0.5304531225
C   C50       1.0  0.66780  0.96590  0.21453  1.0000 0.0743011776
C   C51       1.0  0.59920  0.93240  0.25213  1.0000 -0.1405450137
H   H24       1.0  0.59320  0.94490  0.30893  1.0000 0.1199042303
O   O13       1.0  0.25582  0.62573  0.52129  1.0000 -0.5994504833
O   O14       1.0  0.76925  0.34424  0.27500  1.0000 -0.551600858
F   F19       1.0  0.09395  0.29760  0.31550  1.0000 -0.1905700066
C   C52       1.0  0.80490  0.32020  0.23730  1.0000 0.5774960276
O   O15       1.0  0.79533  0.29800  0.15840  1.0000 -0.5304531225
C   C53       1.0  0.11190  0.36830  0.55760  1.0000 -0.1405450137
H   H25       1.0  0.09790  0.32740  0.59250  1.0000 0.1199042303
C   C54       1.0  0.10330  0.42240  0.42390  1.0000 -0.1259580298
H   H26       1.0  0.08310  0.41810  0.36830  1.0000 0.1199042303
C   C55       1.0  0.02030  0.28760  0.43760  1.0000 -0.2784447987
F   F20       1.0  0.95240  0.26260  0.57160  1.0000 -0.1905700066
F   F21       1.0  0.01560  0.18920  0.35540  1.0000 -0.1960792306
C   C56       1.0  0.16460  0.43560  0.58740  1.0000 -0.0907558401
H   H27       1.0  0.18560  0.43970  0.64240  1.0000 0.1294512071
C   C57       1.0  0.24093  0.57060  0.57100  1.0000 0.598325874
C   C58       1.0  0.18650  0.49700  0.53630  1.0000 -0.0163290691
C   C59       1.0  0.86270  0.31520  0.28710  1.0000 -0.0322428302
C   C60       1.0  0.89710  0.28150  0.24880  1.0000 -0.0840410895
H   H28       1.0  0.88610  0.26490  0.19110  1.0000 0.1199042303
F   F22       1.0  0.01190  0.20671  0.55460  1.0000 -0.1905700066
F   F23       1.0  0.11080  0.25330  0.43370  1.0000 -0.1905700066
F   F24       1.0  0.91650  0.17586  0.47740  1.0000 -0.1905700066
C   C61       1.0  0.07950  0.36120  0.47560  1.0000 0.0785267086
C   C62       1.0  0.97520  0.23290  0.51140  1.0000 0.6620429661
C   C63       1.0  0.88060  0.34130  0.37300  1.0000 -0.0840410895
H   H29       1.0  0.85780  0.36400  0.39960  1.0000 0.1294512071
C   C64       1.0  0.15650  0.48970  0.45270  1.0000 -0.0984461984
H   H30       1.0  0.17220  0.53010  0.41650  1.0000 0.1199042303
C   C65       1.0  0.06030  0.25670  0.38430  1.0000 0.6620429661
C   C66       1.0  0.94810  0.27220  0.29590  1.0000 -0.1545052522
H   H31       1.0  0.97010  0.24860  0.27000  1.0000 0.1199042303
O   O16       1.0  0.26676  0.57532  0.64518  1.0000 -0.5304531225
C   C67       1.0  0.96590  0.29810  0.38120  1.0000 0.0743011776
C   C68       1.0  0.93240  0.33320  0.41880  1.0000 -0.1405450137
H   H32       1.0  0.94490  0.35170  0.47560  1.0000 0.1199042303
O   O17       1.0  0.37427  0.63009  0.18796  1.0000 -0.5994504833
O   O18       1.0  0.65576  0.42501  0.94167  1.0000 -0.551600858
F   F25       1.0  0.70240  0.79635  0.98217  1.0000 -0.1905700066
C   C69       1.0  0.67980  0.48470  0.90397  1.0000 0.5774960276
O   O19       1.0  0.70200  0.49733  0.82507  1.0000 -0.5304531225
C   C70       1.0  0.63170  0.74360  0.22427  1.0000 -0.1405450137
H   H33       1.0  0.67260  0.77050  0.25917  1.0000 0.1199042303
C   C71       1.0  0.57760  0.68090  0.09057  1.0000 -0.1259580298
H   H34       1.0  0.58190  0.66500  0.03497  1.0000 0.1199042303
C   C72       1.0  0.71240  0.73270  0.10427  1.0000 -0.2784447987
F   F26       1.0  0.73740  0.68980  0.23827  1.0000 -0.1905700066
F   F27       1.0  0.81080  0.82640  0.02207  1.0000 -0.1960792306
C   C73       1.0  0.56440  0.72900  0.25407  1.0000 -0.0907558401
H   H35       1.0  0.56030  0.74590  0.30907  1.0000 0.1294512071
C   C74       1.0  0.42940  0.67033  0.23767  1.0000 0.598325874
C   C75       1.0  0.50300  0.68950  0.20297  1.0000 -0.0163290691
C   C76       1.0  0.68480  0.54750  0.95377  1.0000 -0.0322428302
C   C77       1.0  0.71850  0.61560  0.91547  1.0000 -0.0840410895
H   H36       1.0  0.73510  0.62120  0.85777  1.0000 0.1199042303
F   F28       1.0  0.79329  0.80519  0.22127  1.0000 -0.1905700066
F   F29       1.0  0.74670  0.85750  0.10037  1.0000 -0.1905700066
F   F30       1.0  0.82414  0.74064  0.14407  1.0000 -0.1905700066
C   C78       1.0  0.63880  0.71830  0.14227  1.0000 0.0785267086
C   C79       1.0  0.76710  0.74230  0.17807  1.0000 0.6620429661
C   C80       1.0  0.65870  0.53930  0.03967  1.0000 -0.0840410895
H   H37       1.0  0.63600  0.49380  0.06627  1.0000 0.1294512071
C   C81       1.0  0.51030  0.66680  0.11937  1.0000 -0.0984461984
H   H38       1.0  0.46990  0.64210  0.08317  1.0000 0.1199042303
C   C82       1.0  0.74330  0.80360  0.05097  1.0000 0.6620429661
C   C83       1.0  0.72780  0.67590  0.96257  1.0000 -0.1545052522
H   H39       1.0  0.75140  0.72150  0.93667  1.0000 0.1199042303
O   O20       1.0  0.42468  0.69144  0.31185  1.0000 -0.5304531225
C   C84       1.0  0.70190  0.66780  0.04787  1.0000 0.0743011776
C   C85       1.0  0.66680  0.59920  0.08547  1.0000 -0.1405450137
H   H40       1.0  0.64830  0.59320  0.14227  1.0000 0.1199042303
O   O21       1.0  0.36991  0.74418  0.85462  1.0000 -0.5994504833
O   O22       1.0  0.57499  0.23075  0.60833  1.0000 -0.551600858
F   F31       1.0  0.20365  0.90605  0.64883  1.0000 -0.1905700066
C   C86       1.0  0.51530  0.19510  0.57063  1.0000 0.5774960276
O   O23       1.0  0.50267  0.20467  0.49173  1.0000 -0.5304531225
C   C87       1.0  0.25640  0.88810  0.89093  1.0000 -0.1405450137
H   H41       1.0  0.22950  0.90210  0.92583  1.0000 0.1199042303
C   C88       1.0  0.31910  0.89670  0.75723  1.0000 -0.1259580298
H   H42       1.0  0.33500  0.91690  0.70163  1.0000 0.1199042303
C   C89       1.0  0.26730  0.97970  0.77093  1.0000 -0.2784447987
F   F32       1.0  0.31020  0.04760  0.90493  1.0000 -0.1905700066
F   F33       1.0  0.17360  0.98440  0.68873  1.0000 -0.1960792306
C   C90       1.0  0.27100  0.83540  0.92073  1.0000 -0.0907558401
H   H43       1.0  0.25410  0.81440  0.97573  1.0000 0.1294512071
C   C91       1.0  0.32967  0.75907  0.90433  1.0000 0.598325874
C   C92       1.0  0.31050  0.81350  0.86963  1.0000 -0.0163290691
C   C93       1.0  0.45250  0.13730  0.62043  1.0000 -0.0322428302
C   C94       1.0  0.38440  0.10290  0.58213  1.0000 -0.0840410895
H   H44       1.0  0.37880  0.11390  0.52443  1.0000 0.1199042303
F   F34       1.0  0.19481  0.98810  0.88793  1.0000 -0.1905700066
F   F35       1.0  0.14250  0.88920  0.76703  1.0000 -0.1905700066
F   F36       1.0  0.25936  0.08350  0.81073  1.0000 -0.1905700066
C   C95       1.0  0.28170  0.92050  0.80893  1.0000 0.0785267086
C   C96       1.0  0.25770  0.02480  0.84473  1.0000 0.6620429661
C   C97       1.0  0.46070  0.11940  0.70633  1.0000 -0.0840410895
H   H45       1.0  0.50620  0.14220  0.73293  1.0000 0.1294512071
C   C98       1.0  0.33320  0.84350  0.78603  1.0000 -0.0984461984
H   H46       1.0  0.35790  0.82780  0.74983  1.0000 0.1199042303
C   C99       1.0  0.19640  0.93970  0.71763  1.0000 0.6620429661
C   C100      1.0  0.32410  0.05190  0.62923  1.0000 -0.1545052522
H   H47       1.0  0.27850  0.02990  0.60333  1.0000 0.1199042303
O   O24       1.0  0.30856  0.73324  0.97851  1.0000 -0.5304531225
C   C101      1.0  0.33220  0.03410  0.71453  1.0000 0.0743011776
C   C102      1.0  0.40080  0.06760  0.75213  1.0000 -0.1405450137
H   H48       1.0  0.40680  0.05510  0.80893  1.0000 0.1199042303
O   O25       1.0  0.37427  0.74418  0.64538  1.0000 -0.5994504833
O   O26       1.0  0.65576  0.23075  0.89167  1.0000 -0.551600858
F   F37       1.0  0.70240  0.90605  0.85117  1.0000 -0.1905700066
C   C103      1.0  0.67980  0.19510  0.92937  1.0000 0.5774960276
O   O27       1.0  0.70200  0.20467  0.00827  1.0000 -0.5304531225
C   C104      1.0  0.63170  0.88810  0.60907  1.0000 -0.1405450137
H   H49       1.0  0.67260  0.90210  0.57417  1.0000 0.1199042303
C   C105      1.0  0.57760  0.89670  0.74277  1.0000 -0.1259580298
H   H50       1.0  0.58190  0.91690  0.79837  1.0000 0.1199042303
C   C106      1.0  0.71240  0.97970  0.72907  1.0000 -0.2784447987
F   F38       1.0  0.73740  0.04760  0.59507  1.0000 -0.1905700066
F   F39       1.0  0.81080  0.98440  0.81127  1.0000 -0.1960792306
C   C107      1.0  0.56440  0.83540  0.57927  1.0000 -0.0907558401
H   H51       1.0  0.56030  0.81440  0.52427  1.0000 0.1294512071
C   C108      1.0  0.42940  0.75907  0.59567  1.0000 0.598325874
C   C109      1.0  0.50300  0.81350  0.63037  1.0000 -0.0163290691
C   C110      1.0  0.68480  0.13730  0.87957  1.0000 -0.0322428302
C   C111      1.0  0.71850  0.10290  0.91787  1.0000 -0.0840410895
H   H52       1.0  0.73510  0.11390  0.97557  1.0000 0.1199042303
F   F40       1.0  0.79329  0.98810  0.61207  1.0000 -0.1905700066
F   F41       1.0  0.74670  0.88920  0.73297  1.0000 -0.1905700066
F   F42       1.0  0.82414  0.08350  0.68927  1.0000 -0.1905700066
C   C112      1.0  0.63880  0.92050  0.69107  1.0000 0.0785267086
C   C113      1.0  0.76710  0.02480  0.65527  1.0000 0.6620429661
C   C114      1.0  0.65870  0.11940  0.79367  1.0000 -0.0840410895
H   H53       1.0  0.63600  0.14220  0.76707  1.0000 0.1294512071
C   C115      1.0  0.51030  0.84350  0.71397  1.0000 -0.0984461984
H   H54       1.0  0.46990  0.82780  0.75017  1.0000 0.1199042303
C   C116      1.0  0.74330  0.93970  0.78237  1.0000 0.6620429661
C   C117      1.0  0.72780  0.05190  0.87077  1.0000 -0.1545052522
H   H55       1.0  0.75140  0.02990  0.89667  1.0000 0.1199042303
O   O28       1.0  0.42468  0.73324  0.52149  1.0000 -0.5304531225
C   C118      1.0  0.70190  0.03410  0.78547  1.0000 0.0743011776
C   C119      1.0  0.66680  0.06760  0.74787  1.0000 -0.1405450137
H   H56       1.0  0.64830  0.05510  0.69107  1.0000 0.1199042303
O   O29       1.0  0.36991  0.62573  0.97871  1.0000 -0.5994504833
O   O30       1.0  0.57499  0.34424  0.22500  1.0000 -0.551600858
F   F43       1.0  0.20365  0.29760  0.18450  1.0000 -0.1905700066
C   C120      1.0  0.51530  0.32020  0.26270  1.0000 0.5774960276
O   O31       1.0  0.50267  0.29800  0.34160  1.0000 -0.5304531225
C   C121      1.0  0.25640  0.36830  0.94240  1.0000 -0.1405450137
H   H57       1.0  0.22950  0.32740  0.90750  1.0000 0.1199042303
C   C122      1.0  0.31910  0.42240  0.07610  1.0000 -0.1259580298
H   H58       1.0  0.33500  0.41810  0.13170  1.0000 0.1199042303
C   C123      1.0  0.26730  0.28760  0.06240  1.0000 -0.2784447987
F   F44       1.0  0.31020  0.26260  0.92840  1.0000 -0.1905700066
F   F45       1.0  0.17360  0.18920  0.14460  1.0000 -0.1960792306
C   C124      1.0  0.27100  0.43560  0.91260  1.0000 -0.0907558401
H   H59       1.0  0.25410  0.43970  0.85760  1.0000 0.1294512071
C   C125      1.0  0.32967  0.57060  0.92900  1.0000 0.598325874
C   C126      1.0  0.31050  0.49700  0.96370  1.0000 -0.0163290691
C   C127      1.0  0.45250  0.31520  0.21290  1.0000 -0.0322428302
C   C128      1.0  0.38440  0.28150  0.25120  1.0000 -0.0840410895
H   H60       1.0  0.37880  0.26490  0.30890  1.0000 0.1199042303
F   F46       1.0  0.19481  0.20671  0.94540  1.0000 -0.1905700066
F   F47       1.0  0.14250  0.25330  0.06630  1.0000 -0.1905700066
F   F48       1.0  0.25936  0.17586  0.02260  1.0000 -0.1905700066
C   C129      1.0  0.28170  0.36120  0.02440  1.0000 0.0785267086
C   C130      1.0  0.25770  0.23290  0.98860  1.0000 0.6620429661
C   C131      1.0  0.46070  0.34130  0.12700  1.0000 -0.0840410895
H   H61       1.0  0.50620  0.36400  0.10040  1.0000 0.1294512071
C   C132      1.0  0.33320  0.48970  0.04730  1.0000 -0.0984461984
H   H62       1.0  0.35790  0.53010  0.08350  1.0000 0.1199042303
C   C133      1.0  0.19640  0.25670  0.11570  1.0000 0.6620429661
C   C134      1.0  0.32410  0.27220  0.20410  1.0000 -0.1551682049
H   H63       1.0  0.27850  0.24860  0.23000  1.0000 0.1199042303
O   O32       1.0  0.30856  0.57532  0.85482  1.0000 -0.5304531225
C   C135      1.0  0.33220  0.29810  0.11880  1.0000 0.0743011776
C   C136      1.0  0.40080  0.33320  0.08120  1.0000 -0.1405450137
H   H64       1.0  0.40680  0.35170  0.02440  1.0000 0.1199042303
O   O33       1.0  0.25582  0.63009  0.31204  1.0000 -0.5994504833
O   O34       1.0  0.76925  0.42501  0.55833  1.0000 -0.551600858
F   F49       1.0  0.09395  0.79635  0.51783  1.0000 -0.1905700066
C   C137      1.0  0.80490  0.48470  0.59603  1.0000 0.5774960276
O   O35       1.0  0.79533  0.49733  0.67493  1.0000 -0.5304531225
C   C138      1.0  0.11190  0.74360  0.27573  1.0000 -0.1405450137
H   H65       1.0  0.09790  0.77050  0.24083  1.0000 0.1199042303
C   C139      1.0  0.10330  0.68090  0.40943  1.0000 -0.1259580298
H   H66       1.0  0.08310  0.66500  0.46503  1.0000 0.1199042303
C   C140      1.0  0.02030  0.73270  0.39573  1.0000 -0.2784447987
F   F50       1.0  0.95240  0.68980  0.26173  1.0000 -0.1905700066
F   F51       1.0  0.01560  0.82640  0.47793  1.0000 -0.1960792306
C   C141      1.0  0.16460  0.72900  0.24593  1.0000 -0.0907558401
H   H67       1.0  0.18560  0.74590  0.19093  1.0000 0.1294512071
C   C142      1.0  0.24093  0.67033  0.26233  1.0000 0.598325874
C   C143      1.0  0.18650  0.68950  0.29703  1.0000 -0.0163290691
C   C144      1.0  0.86270  0.54750  0.54623  1.0000 -0.0322428302
C   C145      1.0  0.89710  0.61560  0.58453  1.0000 -0.0840410895
H   H68       1.0  0.88610  0.62120  0.64223  1.0000 0.1199042303
F   F52       1.0  0.01190  0.80519  0.27873  1.0000 -0.1905700066
F   F53       1.0  0.11080  0.85750  0.39963  1.0000 -0.1905700066
F   F54       1.0  0.91650  0.74064  0.35593  1.0000 -0.1905700066
C   C146      1.0  0.07950  0.71830  0.35773  1.0000 0.0785267086
C   C147      1.0  0.97520  0.74230  0.32193  1.0000 0.6620429661
C   C148      1.0  0.88060  0.53930  0.46033  1.0000 -0.0840410895
H   H69       1.0  0.85780  0.49380  0.43373  1.0000 0.1294512071
C   C149      1.0  0.15650  0.66680  0.38063  1.0000 -0.0984461984
H   H70       1.0  0.17220  0.64210  0.41683  1.0000 0.1199042303
C   C150      1.0  0.06030  0.80360  0.44903  1.0000 0.6620429661
C   C151      1.0  0.94810  0.67590  0.53743  1.0000 -0.1545052522
H   H71       1.0  0.97010  0.72150  0.56333  1.0000 0.1199042303
O   O36       1.0  0.26676  0.69144  0.18815  1.0000 -0.5304531225
C   C152      1.0  0.96590  0.66780  0.45213  1.0000 0.0743011776
C   C153      1.0  0.93240  0.59920  0.41453  1.0000 -0.1405450137
H   H72       1.0  0.94490  0.59320  0.35773  1.0000 0.1199042303
O   O37       1.0  0.62573  0.25582  0.14538  1.0000 -0.5994504833
O   O38       1.0  0.34424  0.76925  0.39167  1.0000 -0.551600858
F   F55       1.0  0.29760  0.09395  0.35117  1.0000 -0.1905700066
C   C154      1.0  0.32020  0.80490  0.42937  1.0000 0.5774960276
O   O39       1.0  0.29800  0.79533  0.50827  1.0000 -0.5304531225
C   C155      1.0  0.36830  0.11190  0.10907  1.0000 -0.1405450137
H   H73       1.0  0.32740  0.09790  0.07417  1.0000 0.1199042303
C   C156      1.0  0.42240  0.10330  0.24277  1.0000 -0.1259580298
H   H74       1.0  0.41810  0.08310  0.29837  1.0000 0.1199042303
C   C157      1.0  0.28760  0.02030  0.22907  1.0000 -0.2784447987
F   F56       1.0  0.26260  0.95240  0.09507  1.0000 -0.1905700066
F   F57       1.0  0.18920  0.01560  0.31127  1.0000 -0.1960792306
C   C158      1.0  0.43560  0.16460  0.07927  1.0000 -0.0907558401
H   H75       1.0  0.43970  0.18560  0.02427  1.0000 0.1294512071
C   C159      1.0  0.57060  0.24093  0.09567  1.0000 0.598325874
C   C160      1.0  0.49700  0.18650  0.13037  1.0000 -0.0163290691
C   C161      1.0  0.31520  0.86270  0.37957  1.0000 -0.0322428302
C   C162      1.0  0.28150  0.89710  0.41787  1.0000 -0.0840410895
H   H76       1.0  0.26490  0.88610  0.47557  1.0000 0.1199042303
F   F58       1.0  0.20671  0.01190  0.11207  1.0000 -0.1960792306
F   F59       1.0  0.25330  0.11080  0.23297  1.0000 -0.1905700066
F   F60       1.0  0.17586  0.91650  0.18927  1.0000 -0.1905700066
C   C163      1.0  0.36120  0.07950  0.19107  1.0000 0.0785267086
C   C164      1.0  0.23290  0.97520  0.15527  1.0000 0.6620429661
C   C165      1.0  0.34130  0.88060  0.29367  1.0000 -0.0840410895
H   H77       1.0  0.36400  0.85780  0.26707  1.0000 0.1294512071
C   C166      1.0  0.48970  0.15650  0.21397  1.0000 -0.0984461984
H   H78       1.0  0.53010  0.17220  0.25017  1.0000 0.1199042303
C   C167      1.0  0.25670  0.06030  0.28237  1.0000 0.6620429661
C   C168      1.0  0.27220  0.94810  0.37077  1.0000 -0.1551682049
H   H79       1.0  0.24860  0.97010  0.39667  1.0000 0.1199042303
O   O40       1.0  0.57532  0.26676  0.02149  1.0000 -0.5304531225
C   C169      1.0  0.29810  0.96590  0.28547  1.0000 0.0743011776
C   C170      1.0  0.33320  0.93240  0.24787  1.0000 -0.1405450137
H   H80       1.0  0.35170  0.94490  0.19107  1.0000 0.1199042303
O   O41       1.0  0.63009  0.37427  0.47871  1.0000 -0.5994504833
O   O42       1.0  0.42501  0.65576  0.72500  1.0000 -0.551600858
F   F61       1.0  0.79635  0.70240  0.68450  1.0000 -0.1905700066
C   C171      1.0  0.48470  0.67980  0.76270  1.0000 0.5774960276
O   O43       1.0  0.49733  0.70200  0.84160  1.0000 -0.5304531225
C   C172      1.0  0.74360  0.63170  0.44240  1.0000 -0.1405450137
H   H81       1.0  0.77050  0.67260  0.40750  1.0000 0.1199042303
C   C173      1.0  0.68090  0.57760  0.57610  1.0000 -0.1259580298
H   H82       1.0  0.66500  0.58190  0.63170  1.0000 0.1199042303
C   C174      1.0  0.73270  0.71240  0.56240  1.0000 -0.2784447987
F   F62       1.0  0.68980  0.73740  0.42840  1.0000 -0.1905700066
F   F63       1.0  0.82640  0.81080  0.64460  1.0000 -0.1960792306
C   C175      1.0  0.72900  0.56440  0.41260  1.0000 -0.0907558401
H   H83       1.0  0.74590  0.56030  0.35760  1.0000 0.1294512071
C   C176      1.0  0.67033  0.42940  0.42900  1.0000 0.598325874
C   C177      1.0  0.68950  0.50300  0.46370  1.0000 -0.0163290691
C   C178      1.0  0.54750  0.68480  0.71290  1.0000 -0.0322428302
C   C179      1.0  0.61560  0.71850  0.75120  1.0000 -0.0840410895
H   H84       1.0  0.62120  0.73510  0.80890  1.0000 0.1199042303
F   F64       1.0  0.80519  0.79329  0.44540  1.0000 -0.1905700066
F   F65       1.0  0.85750  0.74670  0.56630  1.0000 -0.1905700066
F   F66       1.0  0.74064  0.82414  0.52260  1.0000 -0.1905700066
C   C180      1.0  0.71830  0.63880  0.52440  1.0000 0.0785267086
C   C181      1.0  0.74230  0.76710  0.48860  1.0000 0.6620429661
C   C182      1.0  0.53930  0.65870  0.62700  1.0000 -0.0840410895
H   H85       1.0  0.49380  0.63600  0.60040  1.0000 0.1294512071
C   C183      1.0  0.66680  0.51030  0.54730  1.0000 -0.0984461984
H   H86       1.0  0.64210  0.46990  0.58350  1.0000 0.1199042303
C   C184      1.0  0.80360  0.74330  0.61570  1.0000 0.6620429661
C   C185      1.0  0.67590  0.72780  0.70410  1.0000 -0.1545052522
H   H87       1.0  0.72150  0.75140  0.73000  1.0000 0.1199042303
O   O44       1.0  0.69144  0.42468  0.35482  1.0000 -0.5304531225
C   C186      1.0  0.66780  0.70190  0.61880  1.0000 0.0743011776
C   C187      1.0  0.59920  0.66680  0.58120  1.0000 -0.1405450137
H   H88       1.0  0.59320  0.64830  0.52440  1.0000 0.1199042303
O   O45       1.0  0.74418  0.36991  0.81204  1.0000 -0.5994504833
O   O46       1.0  0.23075  0.57499  0.05833  1.0000 -0.551600858
F   F67       1.0  0.90605  0.20365  0.01783  1.0000 -0.1905700066
C   C188      1.0  0.19510  0.51530  0.09603  1.0000 0.5774960276
O   O47       1.0  0.20467  0.50267  0.17493  1.0000 -0.5304531225
C   C189      1.0  0.88810  0.25640  0.77573  1.0000 -0.1405450137
H   H89       1.0  0.90210  0.22950  0.74083  1.0000 0.1199042303
C   C190      1.0  0.89670  0.31910  0.90943  1.0000 -0.1259580298
H   H90       1.0  0.91690  0.33500  0.96503  1.0000 0.1199042303
C   C191      1.0  0.97970  0.26730  0.89573  1.0000 -0.2784447987
F   F68       1.0  0.04760  0.31020  0.76173  1.0000 -0.1905700066
F   F69       1.0  0.98440  0.17360  0.97793  1.0000 -0.1960792306
C   C192      1.0  0.83540  0.27100  0.74593  1.0000 -0.0907558401
H   H91       1.0  0.81440  0.25410  0.69093  1.0000 0.1294512071
C   C193      1.0  0.75907  0.32967  0.76233  1.0000 0.598325874
C   C194      1.0  0.81350  0.31050  0.79703  1.0000 -0.0163290691
C   C195      1.0  0.13730  0.45250  0.04623  1.0000 -0.0322428302
C   C196      1.0  0.10290  0.38440  0.08453  1.0000 -0.0840410895
H   H92       1.0  0.11390  0.37880  0.14223  1.0000 0.1199042303
F   F70       1.0  0.98810  0.19481  0.77873  1.0000 -0.1905700066
F   F71       1.0  0.88920  0.14250  0.89963  1.0000 -0.1905700066
F   F72       1.0  0.08350  0.25936  0.85593  1.0000 -0.1905700066
C   C197      1.0  0.92050  0.28170  0.85773  1.0000 0.0785267086
C   C198      1.0  0.02480  0.25770  0.82193  1.0000 0.6620429661
C   C199      1.0  0.11940  0.46070  0.96033  1.0000 -0.0840410895
H   H93       1.0  0.14220  0.50620  0.93373  1.0000 0.1294512071
C   C200      1.0  0.84350  0.33320  0.88063  1.0000 -0.0984461984
H   H94       1.0  0.82780  0.35790  0.91683  1.0000 0.1199042303
C   C201      1.0  0.93970  0.19640  0.94903  1.0000 0.6620429661
C   C202      1.0  0.05190  0.32410  0.03743  1.0000 -0.1545052522
H   H95       1.0  0.02990  0.27850  0.06333  1.0000 0.1199042303
O   O48       1.0  0.73324  0.30856  0.68815  1.0000 -0.5304531225
C   C203      1.0  0.03410  0.33220  0.95213  1.0000 0.0743011776
C   C204      1.0  0.06760  0.40080  0.91453  1.0000 -0.1405450137
H   H96       1.0  0.05510  0.40680  0.85773  1.0000 0.1199042303
Co  Co1       1.0  0.71723  0.28277  0.08333  1.0000 0.9006140089
Co  Co2       1.0  0.71723  0.43446  0.75000  1.0000 0.9006140089
Co  Co3       1.0  0.56554  0.28277  0.41667  1.0000 0.9006140089
Co  Co4       1.0  0.28277  0.71723  0.58333  1.0000 0.9006140089
Co  Co5       1.0  0.28277  0.56554  0.25000  1.0000 0.9006140089
Co  Co6       1.0  0.43446  0.71723  0.91667  1.0000 0.9006140089
Mn  Mn1       1.0  0.64904  0.32452  0.91667  1.0000 1.0521012799
Mn  Mn2       1.0  0.67548  0.32452  0.58333  1.0000 1.0521012799
Mn  Mn3       1.0  0.67548  0.35096  0.25000  1.0000 1.0521012799
Mn  Mn4       1.0  0.35096  0.67548  0.41667  1.0000 1.0521012799
Mn  Mn5       1.0  0.32452  0.67548  0.08333  1.0000 1.0521012799
Mn  Mn6       1.0  0.32452  0.64904  0.75000  1.0000 1.0521012799
