# DDEC6 charges by PACMAN v1.1 (https://github.com/mtap-research/PACMAN-charge/)
data_2019[Cu][sql]2[FSR]4
_chemical_formula_sum              "Cu4 H16 C32 Br8 O20"
_cell_length_a       9.8371
_cell_length_b       12.8565
_cell_length_c       12.3951
_cell_angle_alpha    90
_cell_angle_beta     101.217
_cell_angle_gamma    90

_symmetry_space_group_name_H-M    "P 1"
_symmetry_Int_Tables_number       1

loop_
  _symmetry_equiv_pos_as_xyz
  'x, y, z'

loop_
  _atom_site_type_symbol
  _atom_site_label
  _atom_site_symmetry_multiplicity
  _atom_site_fract_x
  _atom_site_fract_y
  _atom_site_fract_z
  _atom_site_occupancy
  _atom_site_charge
Cu  Cu1       1.0  0.63206  0.97405  0.50517  1.0000 0.842578764
Cu  Cu2       1.0  0.36794  0.47405  0.99483  1.0000 0.842578764
Cu  Cu3       1.0  0.36794  0.02595  0.49483  1.0000 0.842578764
Cu  Cu4       1.0  0.63206  0.52595  0.00517  1.0000 0.842578764
H   H1        1.0  0.84780  0.86700  0.49240  1.0000 0.3787419928
H   H2        1.0  0.88040  0.96970  0.47030  1.0000 0.3787419928
H   H3        1.0  0.49840  0.20290  0.79520  1.0000 0.1298641217
H   H4        1.0  0.73170  0.98680  0.06950  1.0000 0.14303328
H   H5        1.0  0.15220  0.36700  0.00760  1.0000 0.3787419928
H   H6        1.0  0.11960  0.46970  0.02970  1.0000 0.3740074985
H   H7        1.0  0.50160  0.70290  0.70480  1.0000 0.1298641217
H   H8        1.0  0.26830  0.48680  0.43050  1.0000 0.14303328
H   H9        1.0  0.15220  0.13300  0.50760  1.0000 0.3787419928
H   H10       1.0  0.11960  0.03030  0.52970  1.0000 0.3740074985
H   H11       1.0  0.50160  0.79710  0.20480  1.0000 0.1298641217
H   H12       1.0  0.26830  0.01320  0.93050  1.0000 0.14303328
H   H13       1.0  0.84780  0.63300  0.99240  1.0000 0.3787419928
H   H14       1.0  0.88040  0.53030  0.97030  1.0000 0.3740074985
H   H15       1.0  0.49840  0.29710  0.29520  1.0000 0.1298641217
H   H16       1.0  0.73170  0.51320  0.56950  1.0000 0.14303328
C   C1        1.0  0.58120  0.06020  0.82430  1.0000 -0.0548905666
C   C2        1.0  0.54870  0.16070  0.84970  1.0000 -0.1026698379
C   C3        1.0  0.59070  0.20030  0.95710  1.0000 -0.0675254874
C   C4        1.0  0.66050  0.13420  0.03700  1.0000 0.0903502935
C   C5        1.0  0.68810  0.03100  0.01410  1.0000 -0.1885147924
C   C6        1.0  0.64970  0.99630  0.90830  1.0000 0.0903502935
C   C7        1.0  0.54660  0.02910  0.70440  1.0000 0.5892704231
C   C8        1.0  0.55880  0.31230  0.97680  1.0000 0.5892704231
C   C9        1.0  0.41880  0.56020  0.67570  1.0000 -0.0570888343
C   C10       1.0  0.45130  0.66070  0.65030  1.0000 -0.1026698379
C   C11       1.0  0.40930  0.70030  0.54290  1.0000 -0.0675254874
C   C12       1.0  0.33950  0.63420  0.46300  1.0000 0.0903502935
C   C13       1.0  0.31190  0.53100  0.48590  1.0000 -0.1885147924
C   C14       1.0  0.35030  0.49630  0.59170  1.0000 0.0903502935
C   C15       1.0  0.45340  0.52910  0.79560  1.0000 0.5892704231
C   C16       1.0  0.44120  0.81230  0.52320  1.0000 0.5892704231
C   C17       1.0  0.41880  0.93980  0.17570  1.0000 -0.0570888343
C   C18       1.0  0.45130  0.83930  0.15030  1.0000 -0.1026698379
C   C19       1.0  0.40930  0.79970  0.04290  1.0000 -0.0675254874
C   C20       1.0  0.33950  0.86580  0.96300  1.0000 0.0903502935
C   C21       1.0  0.31190  0.96900  0.98590  1.0000 -0.1885147924
C   C22       1.0  0.35030  0.00370  0.09170  1.0000 0.0903502935
C   C23       1.0  0.45340  0.97090  0.29560  1.0000 0.5892704231
C   C24       1.0  0.44120  0.68770  0.02320  1.0000 0.5892704231
C   C25       1.0  0.58120  0.43980  0.32430  1.0000 -0.0570888343
C   C26       1.0  0.54870  0.33930  0.34970  1.0000 -0.1026698379
C   C27       1.0  0.59070  0.29970  0.45710  1.0000 -0.0675254874
C   C28       1.0  0.66050  0.36580  0.53700  1.0000 0.0903502935
C   C29       1.0  0.68810  0.46900  0.51410  1.0000 -0.1885147924
C   C30       1.0  0.64970  0.50370  0.40830  1.0000 0.0903502935
C   C31       1.0  0.54660  0.47090  0.20440  1.0000 0.5892704231
C   C32       1.0  0.55880  0.18770  0.47680  1.0000 0.5892704231
Br  Br1       1.0  0.68850  0.85841  0.88213  1.0000 -0.0570888343
Br  Br2       1.0  0.71920  0.18056  0.18041  1.0000 -0.0675254874
Br  Br3       1.0  0.31150  0.35841  0.61787  1.0000 -0.0570888343
Br  Br4       1.0  0.28080  0.68056  0.31959  1.0000 -0.0675254874
Br  Br5       1.0  0.31150  0.14159  0.11787  1.0000 -0.0570888343
Br  Br6       1.0  0.28080  0.81944  0.81959  1.0000 -0.0675254874
Br  Br7       1.0  0.68850  0.64159  0.38213  1.0000 -0.0570888343
Br  Br8       1.0  0.71920  0.31944  0.68041  1.0000 -0.0675254874
O   O1        1.0  0.64610  0.99770  0.66410  1.0000 -0.5023803758
O   O2        1.0  0.84340  0.93060  0.51300  1.0000 -0.629267578
O   O3        1.0  0.42640  0.04480  0.65470  1.0000 -0.519046351
O   O4        1.0  0.43420  0.33250  0.97480  1.0000 -0.519046351
O   O5        1.0  0.65820  0.37480  0.98590  1.0000 -0.519046351
O   O6        1.0  0.35390  0.49770  0.83590  1.0000 -0.5023803758
O   O7        1.0  0.15660  0.43060  0.98700  1.0000 -0.629267578
O   O8        1.0  0.57360  0.54480  0.84530  1.0000 -0.519046351
O   O9        1.0  0.56580  0.83250  0.52520  1.0000 -0.519046351
O   O10       1.0  0.34180  0.87480  0.51410  1.0000 -0.519046351
O   O11       1.0  0.35390  0.00230  0.33590  1.0000 -0.5023803758
O   O12       1.0  0.15660  0.06940  0.48700  1.0000 -0.629267578
O   O13       1.0  0.57360  0.95520  0.34530  1.0000 -0.519046351
O   O14       1.0  0.56580  0.66750  0.02520  1.0000 -0.519046351
O   O15       1.0  0.34180  0.62520  0.01410  1.0000 -0.519046351
O   O16       1.0  0.64610  0.50230  0.16410  1.0000 -0.5023803758
O   O17       1.0  0.84340  0.56940  0.01300  1.0000 -0.629267578
O   O18       1.0  0.42640  0.45520  0.15470  1.0000 -0.519046351
O   O19       1.0  0.43420  0.16750  0.47480  1.0000 -0.519046351
O   O20       1.0  0.65820  0.12520  0.48590  1.0000 -0.519046351
