# DDEC6 charges by PACMAN v1.1 (https://github.com/mtap-research/PACMAN-charge/)
data_2019[Sm][nan]3[FSR]1
_chemical_formula_sum              "Sm16 H116 C92 S12 O120"
_cell_length_a       13.4869
_cell_length_b       13.4869
_cell_length_c       30.143
_cell_angle_alpha    72.828
_cell_angle_beta     107.172
_cell_angle_gamma    119.882

_symmetry_space_group_name_H-M    "P 1"
_symmetry_Int_Tables_number       1

loop_
  _symmetry_equiv_pos_as_xyz
  'x, y, z'

loop_
  _atom_site_type_symbol
  _atom_site_label
  _atom_site_symmetry_multiplicity
  _atom_site_fract_x
  _atom_site_fract_y
  _atom_site_fract_z
  _atom_site_occupancy
  _atom_site_charge
Sm  Sm1       1.0  0.48000  0.00120  0.65172  1.0000 2.1466733196
Sm  Sm2       1.0  0.49758  0.71866  0.65838  1.0000 2.182340739
Sm  Sm3       1.0  0.20573  0.71407  0.66026  1.0000 2.2137542942
Sm  Sm4       1.0  0.33364  0.83872  0.54326  1.0000 2.1630732595
Sm  Sm5       1.0  0.00120  0.48000  0.84828  1.0000 2.1466733196
Sm  Sm6       1.0  0.71866  0.49758  0.84162  1.0000 2.182340739
Sm  Sm7       1.0  0.71407  0.20573  0.83974  1.0000 2.2137542942
Sm  Sm8       1.0  0.83872  0.33364  0.95674  1.0000 2.1630732595
Sm  Sm9       1.0  0.52000  0.99880  0.34828  1.0000 2.1466733196
Sm  Sm10      1.0  0.50242  0.28134  0.34162  1.0000 2.182340739
Sm  Sm11      1.0  0.79427  0.28593  0.33974  1.0000 2.2137542942
Sm  Sm12      1.0  0.66636  0.16128  0.45674  1.0000 2.1630732595
Sm  Sm13      1.0  0.99880  0.52000  0.15172  1.0000 2.1466733196
Sm  Sm14      1.0  0.28134  0.50242  0.15838  1.0000 2.182340739
Sm  Sm15      1.0  0.28593  0.79427  0.16026  1.0000 2.2137542942
Sm  Sm16      1.0  0.16128  0.66636  0.04326  1.0000 2.1655040958
H   H1        1.0  0.58884  0.55270  0.72090  1.0000 0.3987110609
H   H2        1.0  0.61768  0.58242  0.66991  1.0000 0.3987110609
H   H3        1.0  0.43523  0.54013  0.62052  1.0000 0.3682401494
H   H4        1.0  0.43880  0.60392  0.56797  1.0000 0.4310326257
H   H5        1.0  0.09352  0.68126  0.73356  1.0000 0.3682401494
H   H6        1.0  0.01729  0.59155  0.71050  1.0000 0.3432271757
H   H7        1.0  0.07647  0.81889  0.59834  1.0000 0.2681312316
H   H8        1.0  0.98449  0.74801  0.60399  1.0000 0.3064759253
H   H9        1.0  0.17148  0.63468  0.49079  1.0000 0.3549946227
H   H10       1.0  0.25350  0.62676  0.52502  1.0000 0.2799666652
H   H11       1.0  0.10994  0.77568  0.50988  1.0000 0.3549946227
H   H12       1.0  0.16346  0.89442  0.49275  1.0000 0.3432271757
H   H13       1.0  0.26581  0.91047  0.45448  1.0000 0.3766452499
H   H14       1.0  0.33280  0.86176  0.44237  1.0000 0.4181674549
H   H15       1.0  0.56997  0.90277  0.60149  1.0000 0.3873207398
H   H16       1.0  0.25203  0.92799  0.59036  1.0000 0.3987110609
H   H17       1.0  0.28396  0.62822  0.59509  1.0000 0.3873207398
H   H18       1.0  0.42350  0.80804  0.71982  1.0000 0.3873207398
H   H19       1.0  0.73198  0.79098  0.80203  1.0000 0.129306046
H   H20       1.0  0.02424  0.01302  0.87383  1.0000 0.1384950837
H   H21       1.0  0.03365  0.15757  0.80966  1.0000 0.1190382196
H   H22       1.0  0.88244  0.06844  0.68151  1.0000 0.1190382196
H   H23       1.0  0.93410  0.21836  0.61733  1.0000 0.1384950837
H   H24       1.0  0.97707  0.44049  0.69185  1.0000 0.1384950837
H   H25       1.0  0.31256  0.17918  0.81302  1.0000 0.1190382196
H   H26       1.0  0.28099  0.20085  0.88083  1.0000 0.1384950837
H   H27       1.0  0.24114  0.48458  0.80815  1.0000 0.1598484346
H   H28       1.0  0.71131  0.31043  0.62010  1.0000 0.1031738834
H   H29       1.0  0.42200  0.18624  0.50720  1.0000 0.092612473
H   H30       1.0  0.55270  0.58884  0.77910  1.0000 0.3987110609
H   H31       1.0  0.58242  0.61768  0.83009  1.0000 0.3987110609
H   H32       1.0  0.54013  0.43523  0.87948  1.0000 0.3682401494
H   H33       1.0  0.60392  0.43880  0.93203  1.0000 0.4310326257
H   H34       1.0  0.68126  0.09352  0.76644  1.0000 0.3682401494
H   H35       1.0  0.59155  0.01729  0.78950  1.0000 0.3432271757
H   H36       1.0  0.81889  0.07647  0.90166  1.0000 0.2681312316
H   H37       1.0  0.74801  0.98449  0.89601  1.0000 0.3064759253
H   H38       1.0  0.63468  0.17148  0.00921  1.0000 0.3549946227
H   H39       1.0  0.62676  0.25350  0.97498  1.0000 0.2799666652
H   H40       1.0  0.77568  0.10994  0.99012  1.0000 0.3549946227
H   H41       1.0  0.89442  0.16346  0.00725  1.0000 0.3432271757
H   H42       1.0  0.91047  0.26581  0.04552  1.0000 0.3766452499
H   H43       1.0  0.86176  0.33280  0.05763  1.0000 0.4181674549
H   H44       1.0  0.90277  0.56997  0.89851  1.0000 0.3873207398
H   H45       1.0  0.92799  0.25203  0.90964  1.0000 0.3987110609
H   H46       1.0  0.62822  0.28396  0.90491  1.0000 0.3873207398
H   H47       1.0  0.80804  0.42350  0.78018  1.0000 0.3873207398
H   H48       1.0  0.79098  0.73198  0.69797  1.0000 0.129306046
H   H49       1.0  0.01302  0.02424  0.62617  1.0000 0.1384950837
H   H50       1.0  0.15757  0.03365  0.69034  1.0000 0.1190382196
H   H51       1.0  0.06844  0.88244  0.81849  1.0000 0.1190382196
H   H52       1.0  0.21836  0.93410  0.88267  1.0000 0.1384950837
H   H53       1.0  0.44049  0.97707  0.80815  1.0000 0.1384950837
H   H54       1.0  0.17918  0.31256  0.68698  1.0000 0.1190382196
H   H55       1.0  0.20085  0.28099  0.61917  1.0000 0.1384950837
H   H56       1.0  0.48459  0.24113  0.69185  1.0000 0.1598484346
H   H57       1.0  0.31043  0.71131  0.87990  1.0000 0.1031738834
H   H58       1.0  0.18624  0.42200  0.99280  1.0000 0.092612473
H   H59       1.0  0.41116  0.44730  0.27910  1.0000 0.3987110609
H   H60       1.0  0.38232  0.41758  0.33009  1.0000 0.3987110609
H   H61       1.0  0.56477  0.45987  0.37948  1.0000 0.3682401494
H   H62       1.0  0.56120  0.39608  0.43203  1.0000 0.4310326257
H   H63       1.0  0.90648  0.31874  0.26644  1.0000 0.3682401494
H   H64       1.0  0.98271  0.40845  0.28950  1.0000 0.3432271757
H   H65       1.0  0.92353  0.18111  0.40166  1.0000 0.2681312316
H   H66       1.0  0.01551  0.25199  0.39601  1.0000 0.3064759253
H   H67       1.0  0.82852  0.36532  0.50921  1.0000 0.3549946227
H   H68       1.0  0.74650  0.37324  0.47498  1.0000 0.2799666652
H   H69       1.0  0.89006  0.22432  0.49012  1.0000 0.3549946227
H   H70       1.0  0.83654  0.10558  0.50725  1.0000 0.3432271757
H   H71       1.0  0.73419  0.08953  0.54552  1.0000 0.3766452499
H   H72       1.0  0.66720  0.13824  0.55763  1.0000 0.4181674549
H   H73       1.0  0.43004  0.09722  0.39851  1.0000 0.3873207398
H   H74       1.0  0.74797  0.07201  0.40964  1.0000 0.3987110609
H   H75       1.0  0.71604  0.37178  0.40491  1.0000 0.3873207398
H   H76       1.0  0.57650  0.19196  0.28018  1.0000 0.3873207398
H   H77       1.0  0.26802  0.20902  0.19797  1.0000 0.129306046
H   H78       1.0  0.97576  0.98698  0.12617  1.0000 0.1384950837
H   H79       1.0  0.96635  0.84243  0.19034  1.0000 0.1190382196
H   H80       1.0  0.11756  0.93156  0.31849  1.0000 0.1190382196
H   H81       1.0  0.06590  0.78164  0.38267  1.0000 0.1384950837
H   H82       1.0  0.02293  0.55951  0.30815  1.0000 0.1384950837
H   H83       1.0  0.68744  0.82082  0.18698  1.0000 0.1190382196
H   H84       1.0  0.71901  0.79915  0.11917  1.0000 0.1384950837
H   H85       1.0  0.75887  0.51541  0.19185  1.0000 0.1598484346
H   H86       1.0  0.28869  0.68957  0.37990  1.0000 0.1031738834
H   H87       1.0  0.57800  0.81376  0.49280  1.0000 0.092612473
H   H88       1.0  0.44730  0.41116  0.22090  1.0000 0.3987110609
H   H89       1.0  0.41758  0.38232  0.16991  1.0000 0.3987110609
H   H90       1.0  0.45987  0.56477  0.12052  1.0000 0.3682401494
H   H91       1.0  0.39608  0.56120  0.06797  1.0000 0.4310326257
H   H92       1.0  0.31874  0.90648  0.23356  1.0000 0.3682401494
H   H93       1.0  0.40845  0.98271  0.21050  1.0000 0.3432271757
H   H94       1.0  0.18111  0.92353  0.09834  1.0000 0.2681312316
H   H95       1.0  0.25199  0.01551  0.10399  1.0000 0.3049115815
H   H96       1.0  0.36532  0.82852  0.99079  1.0000 0.3549946227
H   H97       1.0  0.37324  0.74650  0.02502  1.0000 0.2799666652
H   H98       1.0  0.22432  0.89006  0.00988  1.0000 0.3560234883
H   H99       1.0  0.10558  0.83654  0.99275  1.0000 0.3432271757
H   H100      1.0  0.08953  0.73419  0.95448  1.0000 0.3766452499
H   H101      1.0  0.13824  0.66720  0.94237  1.0000 0.4181674549
H   H102      1.0  0.09722  0.43003  0.10149  1.0000 0.3873207398
H   H103      1.0  0.07201  0.74797  0.09036  1.0000 0.3987110609
H   H104      1.0  0.37178  0.71604  0.09509  1.0000 0.3873207398
H   H105      1.0  0.19196  0.57650  0.21982  1.0000 0.3873207398
H   H106      1.0  0.20902  0.26802  0.30203  1.0000 0.129306046
H   H107      1.0  0.98698  0.97576  0.37383  1.0000 0.1384950837
H   H108      1.0  0.84243  0.96635  0.30966  1.0000 0.1190382196
H   H109      1.0  0.93156  0.11756  0.18151  1.0000 0.1190382196
H   H110      1.0  0.78164  0.06590  0.11733  1.0000 0.1384950837
H   H111      1.0  0.55951  0.02293  0.19185  1.0000 0.1384950837
H   H112      1.0  0.82082  0.68744  0.31302  1.0000 0.1190382196
H   H113      1.0  0.79915  0.71901  0.38083  1.0000 0.1384950837
H   H114      1.0  0.51541  0.75886  0.30815  1.0000 0.1598484346
H   H115      1.0  0.68957  0.28869  0.12010  1.0000 0.1031738834
H   H116      1.0  0.81376  0.57800  0.00720  1.0000 0.092612473
C   C1        1.0  0.69170  0.92810  0.72500  1.0000 0.6421915271
C   C2        1.0  0.79470  0.95610  0.76650  1.0000 -0.060670057
C   C3        1.0  0.79180  0.86560  0.80380  1.0000 -0.110873597
C   C4        1.0  0.87730  0.88590  0.84350  1.0000 -0.0891016349
C   C5        1.0  0.96790  0.99790  0.84670  1.0000 -0.0891016349
C   C6        1.0  0.97080  0.08420  0.80850  1.0000 -0.0993181101
C   C7        1.0  0.88540  0.06900  0.76810  1.0000 0.0581597478
C   C8        1.0  0.90420  0.16660  0.72700  1.0000 0.0718462893
C   C9        1.0  0.90310  0.14370  0.68400  1.0000 -0.110873597
C   C10       1.0  0.93270  0.23310  0.64540  1.0000 -0.0773540326
C   C11       1.0  0.95940  0.34140  0.64900  1.0000 -0.0993181101
C   C12       1.0  0.95890  0.36530  0.69040  1.0000 -0.0993181101
C   C13       1.0  0.93200  0.27980  0.72920  1.0000 -0.060670057
C   C14       1.0  0.92920  0.31180  0.77290  1.0000 0.6293310204
C   C15       1.0  0.30590  0.51690  0.72930  1.0000 0.6506311425
C   C16       1.0  0.28490  0.41670  0.77080  1.0000 -0.060670057
C   C17       1.0  0.30760  0.32480  0.77170  1.0000 0.0521460294
C   C18       1.0  0.30130  0.24230  0.81240  1.0000 -0.1307166091
C   C19       1.0  0.27840  0.25260  0.85270  1.0000 -0.0993181101
C   C20       1.0  0.25200  0.34040  0.85020  1.0000 -0.0773540326
C   C21       1.0  0.25690  0.42410  0.80920  1.0000 -0.0993181101
C   C22       1.0  0.65780  0.23480  0.63000  1.0000 0.4753156879
C   C23       1.0  0.45460  0.14500  0.50190  1.0000 0.600621415
C   C24       1.0  0.92810  0.69170  0.77500  1.0000 0.6421915271
C   C25       1.0  0.95610  0.79470  0.73350  1.0000 -0.060670057
C   C26       1.0  0.86560  0.79180  0.69620  1.0000 -0.110873597
C   C27       1.0  0.88590  0.87730  0.65650  1.0000 -0.0891016349
C   C28       1.0  0.99790  0.96790  0.65330  1.0000 -0.0891016349
C   C29       1.0  0.08420  0.97080  0.69150  1.0000 -0.0993181101
C   C30       1.0  0.06900  0.88540  0.73190  1.0000 0.0581597478
C   C31       1.0  0.16660  0.90420  0.77300  1.0000 0.0718462893
C   C32       1.0  0.14370  0.90310  0.81600  1.0000 -0.110873597
C   C33       1.0  0.23310  0.93270  0.85460  1.0000 -0.0773540326
C   C34       1.0  0.34140  0.95940  0.85100  1.0000 -0.0993181101
C   C35       1.0  0.36530  0.95890  0.80960  1.0000 -0.0993181101
C   C36       1.0  0.27980  0.93200  0.77080  1.0000 -0.060670057
C   C37       1.0  0.31180  0.92920  0.72710  1.0000 0.6293310204
C   C38       1.0  0.51690  0.30590  0.77070  1.0000 0.6506311425
C   C39       1.0  0.41670  0.28490  0.72920  1.0000 -0.060670057
C   C40       1.0  0.32480  0.30760  0.72830  1.0000 0.0521460294
C   C41       1.0  0.24230  0.30130  0.68760  1.0000 -0.1307166091
C   C42       1.0  0.25260  0.27840  0.64730  1.0000 -0.0993181101
C   C43       1.0  0.34040  0.25200  0.64980  1.0000 -0.0773540326
C   C44       1.0  0.42410  0.25690  0.69080  1.0000 -0.0993181101
C   C45       1.0  0.23480  0.65780  0.87000  1.0000 0.4753156879
C   C46       1.0  0.14500  0.45460  0.99810  1.0000 0.600621415
C   C47       1.0  0.30830  0.07190  0.27500  1.0000 0.6421915271
C   C48       1.0  0.20530  0.04390  0.23350  1.0000 -0.060670057
C   C49       1.0  0.20820  0.13440  0.19620  1.0000 -0.110873597
C   C50       1.0  0.12270  0.11410  0.15650  1.0000 -0.0773540326
C   C51       1.0  0.03210  0.00210  0.15330  1.0000 -0.0891016349
C   C52       1.0  0.02920  0.91580  0.19150  1.0000 -0.0993181101
C   C53       1.0  0.11460  0.93100  0.23190  1.0000 0.0581597478
C   C54       1.0  0.09580  0.83340  0.27300  1.0000 0.0718462893
C   C55       1.0  0.09690  0.85630  0.31600  1.0000 -0.110873597
C   C56       1.0  0.06730  0.76690  0.35460  1.0000 -0.0773540326
C   C57       1.0  0.04060  0.65860  0.35100  1.0000 -0.0993181101
C   C58       1.0  0.04110  0.63470  0.30960  1.0000 -0.0993181101
C   C59       1.0  0.06800  0.72020  0.27080  1.0000 -0.060670057
C   C60       1.0  0.07080  0.68820  0.22710  1.0000 0.6293310204
C   C61       1.0  0.69410  0.48310  0.27070  1.0000 0.6506311425
C   C62       1.0  0.71510  0.58330  0.22920  1.0000 -0.060670057
C   C63       1.0  0.69240  0.67520  0.22830  1.0000 0.0521460294
C   C64       1.0  0.69870  0.75770  0.18760  1.0000 -0.1307166091
C   C65       1.0  0.72160  0.74740  0.14730  1.0000 -0.0993181101
C   C66       1.0  0.74800  0.65960  0.14980  1.0000 -0.0773540326
C   C67       1.0  0.74310  0.57590  0.19080  1.0000 -0.0993181101
C   C68       1.0  0.34220  0.76520  0.37000  1.0000 0.4753156879
C   C69       1.0  0.54540  0.85500  0.49810  1.0000 0.600621415
C   C70       1.0  0.07190  0.30830  0.22500  1.0000 0.6421915271
C   C71       1.0  0.04390  0.20530  0.26650  1.0000 -0.060670057
C   C72       1.0  0.13440  0.20820  0.30380  1.0000 -0.110873597
C   C73       1.0  0.11410  0.12270  0.34350  1.0000 -0.0891016349
C   C74       1.0  0.00210  0.03210  0.34670  1.0000 -0.0891016349
C   C75       1.0  0.91580  0.02920  0.30850  1.0000 -0.0993181101
C   C76       1.0  0.93100  0.11460  0.26810  1.0000 0.0581597478
C   C77       1.0  0.83340  0.09580  0.22700  1.0000 0.0718462893
C   C78       1.0  0.85630  0.09690  0.18400  1.0000 -0.110873597
C   C79       1.0  0.76690  0.06730  0.14540  1.0000 -0.0773540326
C   C80       1.0  0.65860  0.04060  0.14900  1.0000 -0.0993181101
C   C81       1.0  0.63470  0.04110  0.19040  1.0000 -0.0993181101
C   C82       1.0  0.72020  0.06800  0.22920  1.0000 -0.060670057
C   C83       1.0  0.68820  0.07080  0.27290  1.0000 0.6293310204
C   C84       1.0  0.48310  0.69410  0.22930  1.0000 0.6506311425
C   C85       1.0  0.58330  0.71510  0.27080  1.0000 -0.060670057
C   C86       1.0  0.67520  0.69240  0.27170  1.0000 0.0521460294
C   C87       1.0  0.75770  0.69870  0.31240  1.0000 -0.1307166091
C   C88       1.0  0.74740  0.72160  0.35270  1.0000 -0.0993181101
C   C89       1.0  0.65960  0.74800  0.35020  1.0000 -0.0773540326
C   C90       1.0  0.57590  0.74310  0.30920  1.0000 -0.0993181101
C   C91       1.0  0.76520  0.34220  0.13000  1.0000 0.4753156879
C   C92       1.0  0.85500  0.54540  0.00190  1.0000 0.600621415
S   S1        1.0  0.87499  0.77261  0.89175  1.0000 1.203375993
S   S2        1.0  0.99895  0.45785  0.59999  1.0000 1.203375993
S   S3        1.0  0.22032  0.35508  0.90072  1.0000 1.1910169998
S   S4        1.0  0.77261  0.87499  0.60825  1.0000 1.203375993
S   S5        1.0  0.45785  0.99895  0.90001  1.0000 1.203375993
S   S6        1.0  0.35508  0.22032  0.59928  1.0000 1.1910169998
S   S7        1.0  0.12501  0.22739  0.10825  1.0000 1.203375993
S   S8        1.0  0.00105  0.54215  0.40001  1.0000 1.203375993
S   S9        1.0  0.77968  0.64492  0.09928  1.0000 1.1910169998
S   S10       1.0  0.22739  0.12501  0.39175  1.0000 1.203375993
S   S11       1.0  0.54215  0.00105  0.09999  1.0000 1.203375993
S   S12       1.0  0.64492  0.77968  0.40072  1.0000 1.1910169998
O   O1        1.0  0.78230  0.66470  0.87790  1.0000 -0.733372601
O   O2        1.0  0.85870  0.79910  0.93040  1.0000 -0.5536481536
O   O3        1.0  0.98810  0.77350  0.89870  1.0000 -0.6027583799
O   O4        1.0  0.58470  0.57930  0.69110  1.0000 -0.7942349336
O   O5        1.0  0.89540  0.43740  0.56540  1.0000 -0.5650814197
O   O6        1.0  0.44000  0.59700  0.59740  1.0000 -0.7942349336
O   O7        1.0  0.08660  0.45300  0.58340  1.0000 -0.5536481536
O   O8        1.0  0.08960  0.62740  0.72240  1.0000 -0.7558168641
O   O9        1.0  0.04460  0.56380  0.61790  1.0000 -0.7168988458
O   O10       1.0  0.04930  0.77370  0.62330  1.0000 -0.7486642025
O   O11       1.0  0.65250  0.83150  0.71220  1.0000 -0.6928916446
O   O12       1.0  0.19870  0.64650  0.51940  1.0000 -0.7676849387
O   O13       1.0  0.65000  0.99840  0.70760  1.0000 -0.6321622154
O   O14       1.0  0.14740  0.84300  0.51790  1.0000 -0.7767978332
O   O15       1.0  0.99690  0.41430  0.78060  1.0000 -0.6245477519
O   O16       1.0  0.28600  0.85700  0.45800  1.0000 -0.8162266037
O   O17       1.0  0.85920  0.23740  0.79900  1.0000 -0.6611835605
O   O18       1.0  0.31860  0.45700  0.91740  1.0000 -0.5905007642
O   O19       1.0  0.20340  0.25040  0.93480  1.0000 -0.5905007642
O   O20       1.0  0.11940  0.37360  0.88430  1.0000 -0.6928916446
O   O21       1.0  0.22560  0.54580  0.70940  1.0000 -0.6364586673
O   O22       1.0  0.40400  0.56580  0.71860  1.0000 -0.6662146471
O   O23       1.0  0.62070  0.16070  0.60450  1.0000 -0.5905007642
O   O24       1.0  0.62520  0.21080  0.66870  1.0000 -0.5756131134
O   O25       1.0  0.53230  0.20130  0.47680  1.0000 -0.6662146471
O   O26       1.0  0.41650  0.04050  0.52050  1.0000 -0.6611835605
O   O27       1.0  0.50630  0.89730  0.60660  1.0000 -1.1279963873
O   O28       1.0  0.29800  0.89040  0.60620  1.0000 -1.1521174929
O   O29       1.0  0.30400  0.68400  0.61260  1.0000 -1.1673344097
O   O30       1.0  0.41040  0.80000  0.68870  1.0000 -1.1864354632
O   O31       1.0  0.66470  0.78230  0.62210  1.0000 -0.733372601
O   O32       1.0  0.79910  0.85870  0.56960  1.0000 -0.5536481536
O   O33       1.0  0.77350  0.98810  0.60130  1.0000 -0.6027583799
O   O34       1.0  0.57930  0.58470  0.80890  1.0000 -0.7942349336
O   O35       1.0  0.43740  0.89540  0.93460  1.0000 -0.5650814197
O   O36       1.0  0.59700  0.44000  0.90260  1.0000 -0.7942349336
O   O37       1.0  0.45300  0.08660  0.91660  1.0000 -0.5536481536
O   O38       1.0  0.62740  0.08960  0.77760  1.0000 -0.7558168641
O   O39       1.0  0.56380  0.04460  0.88210  1.0000 -0.7168988458
O   O40       1.0  0.77370  0.04930  0.87670  1.0000 -0.7486642025
O   O41       1.0  0.83150  0.65250  0.78780  1.0000 -0.6928916446
O   O42       1.0  0.64650  0.19870  0.98060  1.0000 -0.7676849387
O   O43       1.0  0.99840  0.65000  0.79240  1.0000 -0.6321622154
O   O44       1.0  0.84300  0.14740  0.98210  1.0000 -0.7767978332
O   O45       1.0  0.41430  0.99690  0.71940  1.0000 -0.6245477519
O   O46       1.0  0.85700  0.28600  0.04200  1.0000 -0.8162266037
O   O47       1.0  0.23740  0.85920  0.70100  1.0000 -0.6611835605
O   O48       1.0  0.45700  0.31860  0.58260  1.0000 -0.5905007642
O   O49       1.0  0.25040  0.20340  0.56520  1.0000 -0.5905007642
O   O50       1.0  0.37360  0.11940  0.61570  1.0000 -0.6928916446
O   O51       1.0  0.54580  0.22560  0.79060  1.0000 -0.6364586673
O   O52       1.0  0.56580  0.40400  0.78140  1.0000 -0.6662146471
O   O53       1.0  0.16070  0.62070  0.89550  1.0000 -0.5905007642
O   O54       1.0  0.21080  0.62520  0.83130  1.0000 -0.5756131134
O   O55       1.0  0.20130  0.53230  0.02320  1.0000 -0.6662146471
O   O56       1.0  0.04050  0.41650  0.97950  1.0000 -0.6611835605
O   O57       1.0  0.89730  0.50630  0.89340  1.0000 -1.1279963873
O   O58       1.0  0.89040  0.29800  0.89380  1.0000 -1.1521174929
O   O59       1.0  0.68400  0.30400  0.88740  1.0000 -1.1673344097
O   O60       1.0  0.80000  0.41040  0.81130  1.0000 -1.1832819006
O   O61       1.0  0.21770  0.33530  0.12210  1.0000 -0.733372601
O   O62       1.0  0.14130  0.20090  0.06960  1.0000 -0.5536481536
O   O63       1.0  0.01190  0.22650  0.10130  1.0000 -0.6027583799
O   O64       1.0  0.41530  0.42070  0.30890  1.0000 -0.7942349336
O   O65       1.0  0.10460  0.56260  0.43460  1.0000 -0.5637062809
O   O66       1.0  0.56000  0.40300  0.40260  1.0000 -0.7942349336
O   O67       1.0  0.91340  0.54700  0.41660  1.0000 -0.5536481536
O   O68       1.0  0.91040  0.37260  0.27760  1.0000 -0.7558168641
O   O69       1.0  0.95540  0.43620  0.38210  1.0000 -0.7168988458
O   O70       1.0  0.95070  0.22630  0.37670  1.0000 -0.7486642025
O   O71       1.0  0.34750  0.16850  0.28780  1.0000 -0.6928916446
O   O72       1.0  0.80130  0.35350  0.48060  1.0000 -0.7676849387
O   O73       1.0  0.35000  0.00160  0.29240  1.0000 -0.6321622154
O   O74       1.0  0.85260  0.15700  0.48210  1.0000 -0.7767978332
O   O75       1.0  0.00310  0.58570  0.21940  1.0000 -0.6245477519
O   O76       1.0  0.71400  0.14300  0.54200  1.0000 -0.8162266037
O   O77       1.0  0.14080  0.76260  0.20100  1.0000 -0.6611835605
O   O78       1.0  0.68140  0.54300  0.08260  1.0000 -0.5905007642
O   O79       1.0  0.79660  0.74960  0.06520  1.0000 -0.5905007642
O   O80       1.0  0.88060  0.62640  0.11570  1.0000 -0.6928916446
O   O81       1.0  0.77440  0.45420  0.29060  1.0000 -0.6364586673
O   O82       1.0  0.59600  0.43420  0.28140  1.0000 -0.6662146471
O   O83       1.0  0.37930  0.83930  0.39550  1.0000 -0.5905007642
O   O84       1.0  0.37480  0.78920  0.33130  1.0000 -0.5756131134
O   O85       1.0  0.46770  0.79870  0.52320  1.0000 -0.6662146471
O   O86       1.0  0.58350  0.95950  0.47950  1.0000 -0.6611835605
O   O87       1.0  0.49370  0.10270  0.39340  1.0000 -1.1279963873
O   O88       1.0  0.70200  0.10960  0.39380  1.0000 -1.1521174929
O   O89       1.0  0.69600  0.31600  0.38740  1.0000 -1.1673344097
O   O90       1.0  0.58960  0.20000  0.31130  1.0000 -1.1832819006
O   O91       1.0  0.33530  0.21770  0.37790  1.0000 -0.733372601
O   O92       1.0  0.20090  0.14130  0.43040  1.0000 -0.5536481536
O   O93       1.0  0.22650  0.01190  0.39870  1.0000 -0.6027583799
O   O94       1.0  0.42070  0.41530  0.19110  1.0000 -0.7942349336
O   O95       1.0  0.56260  0.10460  0.06540  1.0000 -0.5637062809
O   O96       1.0  0.40300  0.56000  0.09740  1.0000 -0.7942349336
O   O97       1.0  0.54700  0.91340  0.08340  1.0000 -0.5536481536
O   O98       1.0  0.37260  0.91040  0.22240  1.0000 -0.7558168641
O   O99       1.0  0.43620  0.95540  0.11790  1.0000 -0.7168988458
O   O100      1.0  0.22630  0.95070  0.12330  1.0000 -0.7486642025
O   O101      1.0  0.16850  0.34750  0.21220  1.0000 -0.6928916446
O   O102      1.0  0.35350  0.80130  0.01940  1.0000 -0.7676849387
O   O103      1.0  0.00160  0.35000  0.20760  1.0000 -0.6321622154
O   O104      1.0  0.15700  0.85260  0.01790  1.0000 -0.7767978332
O   O105      1.0  0.58570  0.00310  0.28060  1.0000 -0.6245477519
O   O106      1.0  0.14300  0.71400  0.95800  1.0000 -0.8162266037
O   O107      1.0  0.76260  0.14080  0.29900  1.0000 -0.6611835605
O   O108      1.0  0.54300  0.68140  0.41740  1.0000 -0.5905007642
O   O109      1.0  0.74960  0.79660  0.43480  1.0000 -0.5905007642
O   O110      1.0  0.62640  0.88060  0.38430  1.0000 -0.6928916446
O   O111      1.0  0.45420  0.77440  0.20940  1.0000 -0.6364586673
O   O112      1.0  0.43420  0.59600  0.21860  1.0000 -0.6662146471
O   O113      1.0  0.83930  0.37930  0.10450  1.0000 -0.5905007642
O   O114      1.0  0.78920  0.37480  0.16870  1.0000 -0.5756131134
O   O115      1.0  0.79870  0.46770  0.97680  1.0000 -0.6662146471
O   O116      1.0  0.95950  0.58350  0.02050  1.0000 -0.6611835605
O   O117      1.0  0.10270  0.49370  0.10660  1.0000 -1.1279963873
O   O118      1.0  0.10960  0.70200  0.10620  1.0000 -1.1521174929
O   O119      1.0  0.31600  0.69600  0.11260  1.0000 -1.1673344097
O   O120      1.0  0.20000  0.58960  0.18870  1.0000 -1.1832819006
