# DDEC6 charges by PACMAN v1.1 (https://github.com/mtap-research/PACMAN-charge/)
data_2019[Cu][sql]2[FSR]6
_chemical_formula_sum              "Cu4 H42 C46 N12 O12"
_cell_length_a       8.831
_cell_length_b       9.932
_cell_length_c       16.588
_cell_angle_alpha    89.91
_cell_angle_beta     102.57
_cell_angle_gamma    101.891

_symmetry_space_group_name_H-M    "P 1"
_symmetry_Int_Tables_number       1

loop_
  _symmetry_equiv_pos_as_xyz
  'x, y, z'

loop_
  _atom_site_type_symbol
  _atom_site_label
  _atom_site_symmetry_multiplicity
  _atom_site_fract_x
  _atom_site_fract_y
  _atom_site_fract_z
  _atom_site_occupancy
  _atom_site_charge
Cu  Cu1       1.0  0.32005  0.99616  0.65559  1.0000 0.761769814
Cu  Cu2       1.0  0.31491  0.01444  0.29792  1.0000 0.7720152266
Cu  Cu3       1.0  0.67995  0.00384  0.34441  1.0000 0.761769814
Cu  Cu4       1.0  0.68509  0.98556  0.70208  1.0000 0.7720152266
H   H1        1.0  0.97800  0.26000  0.50510  1.0000 0.2760616667
H   H2        1.0  0.96800  0.26200  0.38200  1.0000 0.2688631243
H   H3        1.0  0.36859  0.88177  0.47986  1.0000 0.1109811606
H   H4        1.0  0.21855  0.18995  0.76734  1.0000 0.1109811606
H   H5        1.0  0.03565  0.13055  0.72494  1.0000 0.101332096
H   H6        1.0  0.21425  0.39713  0.70074  1.0000 0.101332096
H   H7        1.0  0.06965  0.36805  0.74684  1.0000 0.1109811606
H   H8        1.0  0.88649  0.29630  0.62494  1.0000 0.101332096
H   H9        1.0  0.99770  0.43527  0.60443  1.0000 0.1109811606
H   H10       1.0  0.08381  0.11481  0.15560  1.0000 0.1109811606
H   H11       1.0  0.18289  0.26740  0.18384  1.0000 0.101332096
H   H12       1.0  0.92396  0.28815  0.14251  1.0000 0.1189269035
H   H13       1.0  0.86245  0.15849  0.19342  1.0000 0.1109811606
H   H14       1.0  0.04875  0.41821  0.26462  1.0000 0.101332096
H   H15       1.0  0.86725  0.35880  0.26811  1.0000 0.101332096
H   H16       1.0  0.34375  0.49126  0.53045  1.0000 0.1109811606
H   H17       1.0  0.46215  0.30295  0.56885  1.0000 0.1109811606
H   H18       1.0  0.66056  0.48583  0.79575  1.0000 0.1189269035
H   H19       1.0  0.54594  0.67478  0.75705  1.0000 0.1189269035
H   H20       1.0  0.28166  0.04217  0.90264  1.0000 0.1189269035
H   H21       1.0  0.71182  0.93866  0.95695  1.0000 0.1189269035
H   H22       1.0  0.02200  0.74000  0.49490  1.0000 0.2760616667
H   H23       1.0  0.03200  0.73800  0.61800  1.0000 0.2688631243
H   H24       1.0  0.63141  0.11823  0.52014  1.0000 0.1109811606
H   H25       1.0  0.78145  0.81005  0.23266  1.0000 0.1109811606
H   H26       1.0  0.96435  0.86945  0.27506  1.0000 0.101332096
H   H27       1.0  0.78575  0.60287  0.29926  1.0000 0.101332096
H   H28       1.0  0.93035  0.63195  0.25316  1.0000 0.1109811606
H   H29       1.0  0.11351  0.70370  0.37506  1.0000 0.101332096
H   H30       1.0  0.00230  0.56473  0.39557  1.0000 0.1109811606
H   H31       1.0  0.91619  0.88519  0.84440  1.0000 0.1109811606
H   H32       1.0  0.81711  0.73260  0.81616  1.0000 0.101332096
H   H33       1.0  0.07604  0.71185  0.85749  1.0000 0.1189269035
H   H34       1.0  0.13755  0.84151  0.80658  1.0000 0.1109811606
H   H35       1.0  0.95125  0.58179  0.73538  1.0000 0.101332096
H   H36       1.0  0.13275  0.64120  0.73189  1.0000 0.101332096
H   H37       1.0  0.65625  0.50874  0.46955  1.0000 0.1189269035
H   H38       1.0  0.53785  0.69705  0.43115  1.0000 0.1109811606
H   H39       1.0  0.33944  0.51417  0.20425  1.0000 0.1189269035
H   H40       1.0  0.45406  0.32522  0.24295  1.0000 0.1189269035
H   H41       1.0  0.71834  0.95783  0.09736  1.0000 0.1189269035
H   H42       1.0  0.28818  0.06134  0.04305  1.0000 0.1189269035
C   C1        1.0  0.30780  0.95110  0.47460  1.0000 0.1858977802
C   C2        1.0  0.17480  0.10370  0.42080  1.0000 -0.0119464348
C   C3        1.0  0.17690  0.10000  0.50540  1.0000 -0.0217112264
C   C4        1.0  0.12690  0.16860  0.57170  1.0000 0.3281667508
C   C5        1.0  0.13540  0.18950  0.71650  1.0000 -0.0306971031
C   C6        1.0  0.11130  0.33510  0.70150  1.0000 -0.20745449
C   C7        1.0  0.99540  0.33850  0.61960  1.0000 -0.0306971031
C   C8        1.0  0.11720  0.17410  0.34420  1.0000 0.3356777258
C   C9        1.0  0.10300  0.19060  0.19770  1.0000 -0.0306971031
C   C10       1.0  0.95030  0.23880  0.19390  1.0000 -0.2200078242
C   C11       1.0  0.96960  0.33300  0.26780  1.0000 -0.0306971031
C   C12       1.0  0.34540  0.71480  0.61910  1.0000 0.5624732203
C   C13       1.0  0.43180  0.59920  0.64070  1.0000 -0.0217112264
C   C14       1.0  0.40760  0.49000  0.58440  1.0000 -0.1177086108
C   C15       1.0  0.47760  0.37760  0.60750  1.0000 -0.1130794198
C   C16       1.0  0.56970  0.37430  0.68660  1.0000 -0.0119464348
C   C17       1.0  0.59570  0.48630  0.74200  1.0000 -0.1130794198
C   C18       1.0  0.52730  0.59850  0.71910  1.0000 -0.1177086108
C   C19       1.0  0.64240  0.25280  0.71350  1.0000 0.5519046015
C   C20       1.0  0.49820  0.98420  0.82570  1.0000 0.5809022612
C   C21       1.0  0.49860  0.99230  0.91570  1.0000 -0.0217112264
C   C22       1.0  0.37090  0.02590  0.94210  1.0000 -0.1177086108
C   C23       1.0  0.62600  0.96450  0.97450  1.0000 -0.1130794198
C   C24       1.0  0.69220  0.04890  0.52540  1.0000 0.1858977802
C   C25       1.0  0.82520  0.89630  0.57920  1.0000 -0.0119464348
C   C26       1.0  0.82310  0.90000  0.49460  1.0000 -0.0217112264
C   C27       1.0  0.87310  0.83140  0.42830  1.0000 0.3281667508
C   C28       1.0  0.86460  0.81050  0.28350  1.0000 -0.0306971031
C   C29       1.0  0.88870  0.66490  0.29850  1.0000 -0.20745449
C   C30       1.0  0.00460  0.66150  0.38040  1.0000 -0.0306971031
C   C31       1.0  0.88280  0.82590  0.65580  1.0000 0.3356777258
C   C32       1.0  0.89700  0.80940  0.80230  1.0000 -0.0306971031
C   C33       1.0  0.04970  0.76120  0.80610  1.0000 -0.2200078242
C   C34       1.0  0.03040  0.66700  0.73220  1.0000 -0.0306971031
C   C35       1.0  0.65460  0.28520  0.38090  1.0000 0.5624732203
C   C36       1.0  0.56820  0.40080  0.35930  1.0000 -0.0217112264
C   C37       1.0  0.59240  0.51000  0.41560  1.0000 -0.1177086108
C   C38       1.0  0.52240  0.62240  0.39250  1.0000 -0.1130794198
C   C39       1.0  0.43030  0.62570  0.31340  1.0000 -0.0119464348
C   C40       1.0  0.40430  0.51370  0.25800  1.0000 -0.1130794198
C   C41       1.0  0.47270  0.40150  0.28090  1.0000 -0.1177086108
C   C42       1.0  0.35760  0.74720  0.28650  1.0000 0.5519046015
C   C43       1.0  0.50180  0.01580  0.17430  1.0000 0.5809022612
C   C44       1.0  0.50140  0.00770  0.08430  1.0000 -0.0217112264
C   C45       1.0  0.62910  0.97410  0.05790  1.0000 -0.1177086108
C   C46       1.0  0.37400  0.03550  0.02550  1.0000 -0.1130794198
N   N1        1.0  0.26150  0.00260  0.53720  1.0000 -0.338899272
N   N2        1.0  0.25840  0.00850  0.40390  1.0000 -0.3297313326
N   N3        1.0  0.18260  0.13170  0.64640  1.0000 -0.392213034
N   N4        1.0  0.03770  0.26300  0.55450  1.0000 -0.2900891625
N   N5        1.0  0.16760  0.14210  0.27970  1.0000 -0.371617394
N   N6        1.0  0.02210  0.26410  0.34430  1.0000 -0.338899272
N   N7        1.0  0.73850  0.99740  0.46280  1.0000 -0.338899272
N   N8        1.0  0.74160  0.99150  0.59610  1.0000 -0.3297313326
N   N9        1.0  0.81740  0.86830  0.35360  1.0000 -0.392213034
N   N10       1.0  0.96230  0.73700  0.44550  1.0000 -0.2900891625
N   N11       1.0  0.83240  0.85790  0.72030  1.0000 -0.371617394
N   N12       1.0  0.97790  0.73590  0.65570  1.0000 -0.3297313326
O   O1        1.0  0.41610  0.83380  0.65380  1.0000 -0.5927848094
O   O2        1.0  0.21130  0.68850  0.57280  1.0000 -0.556745606
O   O3        1.0  0.57710  0.13960  0.67060  1.0000 -0.5845772796
O   O4        1.0  0.76020  0.26590  0.77140  1.0000 -0.5396830611
O   O5        1.0  0.37430  0.00340  0.77640  1.0000 -0.5396830611
O   O6        1.0  0.62240  0.96180  0.80730  1.0000 -0.5162007385
O   O7        1.0  0.58390  0.16620  0.34620  1.0000 -0.5927848094
O   O8        1.0  0.78870  0.31150  0.42720  1.0000 -0.556745606
O   O9        1.0  0.42290  0.86040  0.32940  1.0000 -0.5845772796
O   O10       1.0  0.23980  0.73410  0.22860  1.0000 -0.5396830611
O   O11       1.0  0.62570  0.99660  0.22360  1.0000 -0.5396830611
O   O12       1.0  0.37760  0.03820  0.19270  1.0000 -0.5162007385
