# DDEC6 charges by PACMAN v1.1 (https://github.com/mtap-research/PACMAN-charge/)
data_2019[Gd][kgd]2[FSR]2
_chemical_formula_sum              "Gd2 H38 C54 O16"
_cell_length_a       9.1257
_cell_length_b       13.1839
_cell_length_c       15.2935
_cell_angle_alpha    104.08
_cell_angle_beta     95.183
_cell_angle_gamma    100.324

_symmetry_space_group_name_H-M    "P 1"
_symmetry_Int_Tables_number       1

loop_
  _symmetry_equiv_pos_as_xyz
  'x, y, z'

loop_
  _atom_site_type_symbol
  _atom_site_label
  _atom_site_symmetry_multiplicity
  _atom_site_fract_x
  _atom_site_fract_y
  _atom_site_fract_z
  _atom_site_occupancy
  _atom_site_charge
Gd  Gd1       1.0  0.40556  0.83341  0.95933  1.0000 1.9693880618
Gd  Gd2       1.0  0.59444  0.16659  0.04067  1.0000 1.9693880618
H   H1        1.0  0.11100  0.72900  0.97000  1.0000 0.3240598083
H   H2        1.0  0.19200  0.65800  0.98200  1.0000 0.3362452328
H   H3        1.0  0.72800  0.91900  0.99900  1.0000 0.3240598083
H   H4        1.0  0.72700  0.82300  0.96200  1.0000 0.3008847475
H   H5        1.0  0.98665  0.03476  0.93144  1.0000 0.1193334405
H   H6        1.0  0.84642  0.12288  0.85109  1.0000 0.1193334405
H   H7        1.0  0.00211  0.98848  0.61945  1.0000 0.112994949
H   H8        1.0  0.13206  0.89314  0.69785  1.0000 0.1193334405
H   H9        1.0  0.55692  0.47636  0.92831  1.0000 0.1301595323
H   H10       1.0  0.64591  0.32971  0.84956  1.0000 0.1193334405
H   H11       1.0  0.63446  0.44223  0.62482  1.0000 0.1193334405
H   H12       1.0  0.54212  0.58736  0.70296  1.0000 0.1301595323
H   H13       1.0  0.52773  0.16013  0.25093  1.0000 0.1369314208
H   H14       1.0  0.61297  0.23281  0.40629  1.0000 0.1193334405
H   H15       1.0  0.63406  0.93710  0.43424  1.0000 0.112994949
H   H16       1.0  0.54840  0.86419  0.27929  1.0000 0.1193334405
H   H17       1.0  0.59368  0.26899  0.55237  1.0000 0.112994949
H   H18       1.0  0.82251  0.24985  0.78626  1.0000 0.1193334405
H   H19       1.0  0.80472  0.02293  0.55101  1.0000 0.112994949
H   H20       1.0  0.88900  0.27100  0.03000  1.0000 0.3240598083
H   H21       1.0  0.80800  0.34200  0.01800  1.0000 0.3362452328
H   H22       1.0  0.27200  0.08100  0.00100  1.0000 0.3240598083
H   H23       1.0  0.27300  0.17700  0.03800  1.0000 0.3008847475
H   H24       1.0  0.01335  0.96524  0.06856  1.0000 0.1193334405
H   H25       1.0  0.15358  0.87712  0.14891  1.0000 0.1193334405
H   H26       1.0  0.99789  0.01152  0.38055  1.0000 0.112994949
H   H27       1.0  0.86794  0.10686  0.30215  1.0000 0.1193334405
H   H28       1.0  0.44308  0.52364  0.07169  1.0000 0.1301595323
H   H29       1.0  0.35409  0.67029  0.15044  1.0000 0.1193334405
H   H30       1.0  0.36554  0.55777  0.37518  1.0000 0.1193334405
H   H31       1.0  0.45788  0.41264  0.29704  1.0000 0.1301595323
H   H32       1.0  0.47227  0.83987  0.74907  1.0000 0.1369314208
H   H33       1.0  0.38703  0.76719  0.59371  1.0000 0.1193334405
H   H34       1.0  0.36594  0.06290  0.56576  1.0000 0.112994949
H   H35       1.0  0.45160  0.13581  0.72071  1.0000 0.1193334405
H   H36       1.0  0.40632  0.73101  0.44763  1.0000 0.112994949
H   H37       1.0  0.17749  0.75015  0.21374  1.0000 0.1193334405
H   H38       1.0  0.19528  0.97707  0.44899  1.0000 0.112994949
C   C1        1.0  0.16490  0.89880  0.87283  1.0000 0.5579067856
C   C2        1.0  0.07330  0.95510  0.82255  1.0000 -0.0289062925
C   C3        1.0  0.98840  0.02440  0.86789  1.0000 -0.0994595908
C   C4        1.0  0.90650  0.07800  0.82014  1.0000 -0.1321879834
C   C5        1.0  0.91140  0.06660  0.72670  1.0000 0.0811482227
C   C6        1.0  0.99750  0.99730  0.68260  1.0000 -0.1510767587
C   C7        1.0  0.07630  0.94110  0.72934  1.0000 -0.0858331047
C   C8        1.0  0.48530  0.64140  0.87275  1.0000 0.5579067856
C   C9        1.0  0.54080  0.54650  0.82360  1.0000 -0.0289062925
C   C10       1.0  0.57200  0.46930  0.86665  1.0000 -0.0807648274
C   C11       1.0  0.62540  0.38190  0.81962  1.0000 -0.14196015
C   C12       1.0  0.64920  0.37000  0.72864  1.0000 0.0811482227
C   C13       1.0  0.61810  0.44850  0.68621  1.0000 -0.157665661
C   C14       1.0  0.56370  0.53540  0.73288  1.0000 -0.0994595908
C   C15       1.0  0.48460  0.95620  0.14991  1.0000 0.6059532404
C   C16       1.0  0.53110  0.00500  0.24950  1.0000 -0.0289062925
C   C17       1.0  0.54980  0.11490  0.28791  1.0000 -0.0807648274
C   C18       1.0  0.60100  0.15810  0.38061  1.0000 -0.1510767587
C   C19       1.0  0.63510  0.09300  0.43675  1.0000 0.0729651727
C   C20       1.0  0.61350  0.98270  0.39731  1.0000 -0.157665661
C   C21       1.0  0.56230  0.93910  0.30490  1.0000 -0.0807648274
C   C22       1.0  0.69140  0.13890  0.53537  1.0000 0.0811482227
C   C23       1.0  0.65270  0.23290  0.58371  1.0000 -0.2081364751
C   C24       1.0  0.69990  0.27470  0.67779  1.0000 0.0811482227
C   C25       1.0  0.78800  0.22100  0.72302  1.0000 -0.1903265476
C   C26       1.0  0.82600  0.12600  0.67706  1.0000 0.0901294104
C   C27       1.0  0.77790  0.08670  0.58316  1.0000 -0.2016643792
C   C28       1.0  0.83510  0.10120  0.12717  1.0000 0.5579067856
C   C29       1.0  0.92670  0.04490  0.17745  1.0000 -0.0249143638
C   C30       1.0  0.01160  0.97560  0.13211  1.0000 -0.0994595908
C   C31       1.0  0.09350  0.92200  0.17986  1.0000 -0.1321879834
C   C32       1.0  0.08860  0.93340  0.27330  1.0000 0.0811482227
C   C33       1.0  0.00250  0.00270  0.31740  1.0000 -0.1510767587
C   C34       1.0  0.92370  0.05890  0.27066  1.0000 -0.0858331047
C   C35       1.0  0.51470  0.35860  0.12725  1.0000 0.5579067856
C   C36       1.0  0.45920  0.45350  0.17640  1.0000 -0.0289062925
C   C37       1.0  0.42800  0.53070  0.13335  1.0000 -0.0807648274
C   C38       1.0  0.37460  0.61810  0.18038  1.0000 -0.14196015
C   C39       1.0  0.35080  0.63000  0.27136  1.0000 0.0811482227
C   C40       1.0  0.38190  0.55150  0.31379  1.0000 -0.157665661
C   C41       1.0  0.43630  0.46460  0.26712  1.0000 -0.0994595908
C   C42       1.0  0.51540  0.04380  0.85009  1.0000 0.6059532404
C   C43       1.0  0.46890  0.99500  0.75050  1.0000 -0.0289062925
C   C44       1.0  0.45020  0.88510  0.71209  1.0000 -0.0807648274
C   C45       1.0  0.39900  0.84190  0.61939  1.0000 -0.1510767587
C   C46       1.0  0.36490  0.90700  0.56325  1.0000 0.0729651727
C   C47       1.0  0.38650  0.01730  0.60269  1.0000 -0.157665661
C   C48       1.0  0.43770  0.06090  0.69510  1.0000 -0.0807648274
C   C49       1.0  0.30860  0.86110  0.46463  1.0000 0.0811482227
C   C50       1.0  0.34730  0.76710  0.41629  1.0000 -0.2081364751
C   C51       1.0  0.30010  0.72530  0.32221  1.0000 0.0811482227
C   C52       1.0  0.21200  0.77900  0.27698  1.0000 -0.1903265476
C   C53       1.0  0.17400  0.87400  0.32294  1.0000 0.0901294104
C   C54       1.0  0.22210  0.91330  0.41684  1.0000 -0.2016643792
O   O1        1.0  0.18520  0.71860  0.98570  1.0000 -0.6478057563
O   O2        1.0  0.67520  0.85830  0.98780  1.0000 -0.6913173258
O   O3        1.0  0.46450  0.65428  0.95537  1.0000 -0.6281342864
O   O4        1.0  0.46110  0.70975  0.83034  1.0000 -0.6281342864
O   O5        1.0  0.19960  0.93375  0.95971  1.0000 -0.6478057563
O   O6        1.0  0.21320  0.81996  0.83012  1.0000 -0.5978798628
O   O7        1.0  0.43810  0.85645  0.12142  1.0000 -0.612142092
O   O8        1.0  0.49340  0.01380  0.09361  1.0000 -0.7112403274
O   O9        1.0  0.81480  0.28140  0.01430  1.0000 -0.6478057563
O   O10       1.0  0.32480  0.14170  0.01220  1.0000 -0.6913173258
O   O11       1.0  0.53550  0.34572  0.04463  1.0000 -0.6281342864
O   O12       1.0  0.53890  0.29025  0.16966  1.0000 -0.6281342864
O   O13       1.0  0.80040  0.06625  0.04029  1.0000 -0.6478057563
O   O14       1.0  0.78680  0.18004  0.16988  1.0000 -0.5978798628
O   O15       1.0  0.56190  0.14355  0.87858  1.0000 -0.612142092
O   O16       1.0  0.50660  0.98620  0.90639  1.0000 -0.7112403274
