# DDEC6 charges by PACMAN v1.1 (https://github.com/mtap-research/PACMAN-charge/)
data_2019[La][nan]3[FSR]4
_chemical_formula_sum              "La2 H32 C30 O16"
_cell_length_a       9.1197
_cell_length_b       11.1231
_cell_length_c       11.9434
_cell_angle_alpha    107.049
_cell_angle_beta     107.729
_cell_angle_gamma    106.622

_symmetry_space_group_name_H-M    "P 1"
_symmetry_Int_Tables_number       1

loop_
  _symmetry_equiv_pos_as_xyz
  'x, y, z'

loop_
  _atom_site_type_symbol
  _atom_site_label
  _atom_site_symmetry_multiplicity
  _atom_site_fract_x
  _atom_site_fract_y
  _atom_site_fract_z
  _atom_site_occupancy
  _atom_site_charge
La  La1       1.0  0.75090  0.52031  0.47969  1.0000 1.8582696127
La  La2       1.0  0.24910  0.47969  0.52031  1.0000 1.8582696127
H   H1        1.0  0.46800  0.55800  0.30700  1.0000 0.332074325
H   H2        1.0  0.59100  0.65100  0.30200  1.0000 0.3080163704
H   H3        1.0  0.94700  0.78500  0.47000  1.0000 0.2997378962
H   H4        1.0  0.02600  0.71200  0.43500  1.0000 0.3159862118
H   H5        1.0  0.85734  0.28126  0.10290  1.0000 0.1492407353
H   H6        1.0  0.91056  0.20799  0.19228  1.0000 0.1584946644
H   H7        1.0  0.66956  0.03020  0.20115  1.0000 0.1275354382
H   H8        1.0  0.92841  0.10995  0.86980  1.0000 0.1179016065
H   H9        1.0  0.58905  0.15719  0.91920  1.0000 0.1179016065
H   H10       1.0  0.66072  0.92372  0.73448  1.0000 0.1584946644
H   H11       1.0  0.59215  0.81980  0.78997  1.0000 0.1584946644
H   H12       1.0  0.82048  0.77951  0.94816  1.0000 0.1275354382
H   H13       1.0  0.12540  0.40538  0.87826  1.0000 0.1275354382
H   H14       1.0  0.71142  0.42747  0.91313  1.0000 0.1179016065
H   H15       1.0  0.68473  0.23588  0.72725  1.0000 0.1492407353
H   H16       1.0  0.84836  0.23300  0.71157  1.0000 0.1492407353
H   H17       1.0  0.53200  0.44200  0.69300  1.0000 0.332074325
H   H18       1.0  0.40900  0.34900  0.69800  1.0000 0.3080163704
H   H19       1.0  0.05300  0.21500  0.53000  1.0000 0.2997378962
H   H20       1.0  0.97400  0.28800  0.56500  1.0000 0.3159862118
H   H21       1.0  0.14266  0.71874  0.89710  1.0000 0.1492407353
H   H22       1.0  0.08944  0.79201  0.80772  1.0000 0.1584946644
H   H23       1.0  0.33044  0.96980  0.79885  1.0000 0.1275354382
H   H24       1.0  0.07159  0.89005  0.13020  1.0000 0.1179016065
H   H25       1.0  0.41095  0.84281  0.08080  1.0000 0.1179016065
H   H26       1.0  0.33928  0.07628  0.26552  1.0000 0.1584946644
H   H27       1.0  0.40785  0.18020  0.21003  1.0000 0.1584946644
H   H28       1.0  0.17952  0.22049  0.05184  1.0000 0.1275354382
H   H29       1.0  0.87460  0.59462  0.12174  1.0000 0.1275354382
H   H30       1.0  0.28858  0.57253  0.08687  1.0000 0.1179016065
H   H31       1.0  0.31527  0.76412  0.27275  1.0000 0.1492407353
H   H32       1.0  0.15164  0.76700  0.28843  1.0000 0.1492407353
C   C1        1.0  0.68340  0.74260  0.66210  1.0000 0.6724178003
C   C2        1.0  0.81650  0.34360  0.26590  1.0000 0.6642191218
C   C3        1.0  0.76400  0.35890  0.64050  1.0000 0.6284475731
C   C4        1.0  0.65790  0.11470  0.07390  1.0000 0.1492407353
C   C5        1.0  0.82470  0.23820  0.15650  1.0000 -0.411530643
C   C6        1.0  0.60170  0.01900  0.11960  1.0000 -0.1505589901
C   C7        1.0  0.84720  0.93250  0.88810  1.0000 0.1492407353
C   C8        1.0  0.95640  0.06460  0.92170  1.0000 -0.1572589172
C   C9        1.0  0.55470  0.09460  0.95310  1.0000 -0.1572589172
C   C10       1.0  0.68320  0.85780  0.76750  1.0000 -0.411530643
C   C11       1.0  0.89270  0.86870  0.96850  1.0000 -0.143763539
C   C12       1.0  0.89970  0.39720  0.87320  1.0000 0.1492407353
C   C13       1.0  0.07380  0.44270  0.92670  1.0000 -0.1505589901
C   C14       1.0  0.82810  0.45610  0.94770  1.0000 -0.1572589172
C   C15       1.0  0.79310  0.29280  0.73470  1.0000 -0.411530643
C   C16       1.0  0.31660  0.25740  0.33790  1.0000 0.6724178003
C   C17       1.0  0.18350  0.65640  0.73410  1.0000 0.6642191218
C   C18       1.0  0.23600  0.64110  0.35950  1.0000 0.6284475731
C   C19       1.0  0.34210  0.88530  0.92610  1.0000 0.1492407353
C   C20       1.0  0.17530  0.76180  0.84350  1.0000 -0.411530643
C   C21       1.0  0.39830  0.98100  0.88040  1.0000 -0.1505589901
C   C22       1.0  0.15280  0.06750  0.11190  1.0000 0.1492407353
C   C23       1.0  0.04360  0.93540  0.07830  1.0000 -0.1572589172
C   C24       1.0  0.44530  0.90540  0.04690  1.0000 -0.1572589172
C   C25       1.0  0.31680  0.14220  0.23250  1.0000 -0.411530643
C   C26       1.0  0.10730  0.13130  0.03150  1.0000 -0.143763539
C   C27       1.0  0.10030  0.60280  0.12680  1.0000 0.1492407353
C   C28       1.0  0.92620  0.55730  0.07330  1.0000 -0.1505589901
C   C29       1.0  0.17190  0.54390  0.05230  1.0000 -0.1572589172
C   C30       1.0  0.20690  0.70720  0.26530  1.0000 -0.411530643
O   O1        1.0  0.55280  0.63230  0.59310  1.0000 -0.6539109541
O   O2        1.0  0.94250  0.41190  0.37470  1.0000 -0.660634656
O   O3        1.0  0.76270  0.30410  0.53110  1.0000 -0.5962005598
O   O4        1.0  0.81460  0.75790  0.64350  1.0000 -0.5962005598
O   O5        1.0  0.74220  0.46740  0.67360  1.0000 -0.5771023823
O   O6        1.0  0.68400  0.36160  0.24900  1.0000 -0.5771023823
O   O7        1.0  0.56900  0.58820  0.32330  1.0000 -0.6828586651
O   O8        1.0  0.93160  0.70510  0.43260  1.0000 -0.6911480916
O   O9        1.0  0.44720  0.36770  0.40690  1.0000 -0.6539109541
O   O10       1.0  0.05750  0.58810  0.62530  1.0000 -0.660634656
O   O11       1.0  0.23730  0.69590  0.46890  1.0000 -0.5962005598
O   O12       1.0  0.18540  0.24210  0.35650  1.0000 -0.5962005598
O   O13       1.0  0.25780  0.53260  0.32640  1.0000 -0.5771023823
O   O14       1.0  0.31600  0.63840  0.75100  1.0000 -0.5771023823
O   O15       1.0  0.43100  0.41180  0.67670  1.0000 -0.6828586651
O   O16       1.0  0.06840  0.29490  0.56740  1.0000 -0.6911480916
