# DDEC6 charges by PACMAN v1.1 (https://github.com/mtap-research/PACMAN-charge/)
data_2019[Zn][sql]2[FSR]2
_chemical_formula_sum              "Zn2 H30 C30 N2 O10"
_cell_length_a       10.719
_cell_length_b       10.8245
_cell_length_c       10.8403
_cell_angle_alpha    80.291
_cell_angle_beta     70.015
_cell_angle_gamma    77.531

_symmetry_space_group_name_H-M    "P 1"
_symmetry_Int_Tables_number       1

loop_
  _symmetry_equiv_pos_as_xyz
  'x, y, z'

loop_
  _atom_site_type_symbol
  _atom_site_label
  _atom_site_symmetry_multiplicity
  _atom_site_fract_x
  _atom_site_fract_y
  _atom_site_fract_z
  _atom_site_occupancy
  _atom_site_charge
Zn  Zn1       1.0  0.14850  0.47670  0.45157  1.0000 0.9230868106
Zn  Zn2       1.0  0.85150  0.52330  0.54843  1.0000 0.9230868106
H   H1        1.0  0.98685  0.30328  0.12370  1.0000 0.0968870704
H   H2        1.0  0.18488  0.35204  0.89828  1.0000 0.1087591142
H   H3        1.0  0.19885  0.56498  0.98514  1.0000 0.1087591142
H   H4        1.0  0.01060  0.87851  0.69582  1.0000 0.1087591142
H   H5        1.0  0.80978  0.07082  0.67270  1.0000 0.1156716158
H   H6        1.0  0.80622  0.97943  0.45869  1.0000 0.1087591142
H   H7        1.0  0.34394  0.19610  0.50359  1.0000 0.1496608739
H   H8        1.0  0.34559  0.26580  0.61968  1.0000 0.1496608739
H   H9        1.0  0.53714  0.13740  0.61484  1.0000 0.1087591142
H   H10       1.0  0.54920  0.08973  0.48111  1.0000 0.0904704702
H   H11       1.0  0.67263  0.27160  0.51322  1.0000 0.1331139539
H   H12       1.0  0.70653  0.20333  0.38510  1.0000 0.1087591142
H   H13       1.0  0.65688  0.43071  0.21944  1.0000 0.1331139539
H   H14       1.0  0.69568  0.47023  0.33241  1.0000 0.1429049184
H   H15       1.0  0.55799  0.53296  0.30981  1.0000 0.1429049184
H   H16       1.0  0.01315  0.69672  0.87630  1.0000 0.0968870704
H   H17       1.0  0.81512  0.64796  0.10172  1.0000 0.1087591142
H   H18       1.0  0.80115  0.43502  0.01486  1.0000 0.1087591142
H   H19       1.0  0.98940  0.12149  0.30418  1.0000 0.1087591142
H   H20       1.0  0.19022  0.92918  0.32730  1.0000 0.1156716158
H   H21       1.0  0.19378  0.02057  0.54131  1.0000 0.1087591142
H   H22       1.0  0.65606  0.80390  0.49641  1.0000 0.1496608739
H   H23       1.0  0.65441  0.73420  0.38032  1.0000 0.1496608739
H   H24       1.0  0.46286  0.86260  0.38516  1.0000 0.1087591142
H   H25       1.0  0.45080  0.91027  0.51889  1.0000 0.0904704702
H   H26       1.0  0.32737  0.72840  0.48678  1.0000 0.1331139539
H   H27       1.0  0.29347  0.79667  0.61490  1.0000 0.1087591142
H   H28       1.0  0.34312  0.56929  0.78056  1.0000 0.1331139539
H   H29       1.0  0.30432  0.52977  0.66759  1.0000 0.1429049184
H   H30       1.0  0.44201  0.46704  0.69019  1.0000 0.1429049184
C   C1        1.0  0.00480  0.51430  0.25890  1.0000 0.5827298497
C   C2        1.0  0.00130  0.51010  0.12250  1.0000 -0.0269123877
C   C3        1.0  0.99230  0.38640  0.07150  1.0000 -0.0999096896
C   C4        1.0  0.10740  0.41460  0.94070  1.0000 -0.1110322532
C   C5        1.0  0.11540  0.53740  0.99160  1.0000 -0.1110322532
C   C6        1.0  0.00580  0.73800  0.48400  1.0000 0.5827298497
C   C7        1.0  0.00330  0.87650  0.48860  1.0000 -0.0269123877
C   C8        1.0  0.00620  0.92970  0.61330  1.0000 -0.1110322532
C   C9        1.0  0.88950  0.04140  0.59990  1.0000 -0.1187787245
C   C10       1.0  0.88760  0.98790  0.47630  1.0000 -0.1187787245
C   C11       1.0  0.42860  0.35830  0.43660  1.0000 0.4713575129
C   C12       1.0  0.39590  0.24260  0.53130  1.0000 -0.3259800489
C   C13       1.0  0.53280  0.16460  0.52620  1.0000 -0.161357295
C   C14       1.0  0.63440  0.24680  0.45380  1.0000 -0.1110322532
C   C15       1.0  0.62270  0.45600  0.30730  1.0000 -0.3182696815
C   C16       1.0  0.99520  0.48570  0.74110  1.0000 0.5827298497
C   C17       1.0  0.99870  0.48990  0.87750  1.0000 -0.0269123877
C   C18       1.0  0.00770  0.61360  0.92850  1.0000 -0.0999096896
C   C19       1.0  0.89260  0.58540  0.05930  1.0000 -0.1110322532
C   C20       1.0  0.88460  0.46260  0.00840  1.0000 -0.1110322532
C   C21       1.0  0.99420  0.26200  0.51600  1.0000 0.5827298497
C   C22       1.0  0.99670  0.12350  0.51140  1.0000 -0.0249897114
C   C23       1.0  0.99380  0.07030  0.38670  1.0000 -0.1110322532
C   C24       1.0  0.11050  0.95860  0.40010  1.0000 -0.1110322532
C   C25       1.0  0.11240  0.01210  0.52370  1.0000 -0.1187787245
C   C26       1.0  0.57140  0.64170  0.56340  1.0000 0.4713575129
C   C27       1.0  0.60410  0.75740  0.46870  1.0000 -0.3259800489
C   C28       1.0  0.46720  0.83540  0.47380  1.0000 -0.161357295
C   C29       1.0  0.36560  0.75320  0.54620  1.0000 -0.1110322532
C   C30       1.0  0.37730  0.54400  0.69270  1.0000 -0.3182696815
N   N1        1.0  0.55940  0.35740  0.39720  1.0000 -0.0469768739
N   N2        1.0  0.44060  0.64260  0.60280  1.0000 -0.0469768739
O   O1        1.0  0.11800  0.49720  0.27350  1.0000 -0.520466518
O   O2        1.0  0.89420  0.53170  0.34794  1.0000 -0.5633067306
O   O3        1.0  0.11880  0.66915  0.44640  1.0000 -0.540311944
O   O4        1.0  0.89430  0.70245  0.52190  1.0000 -0.5516625757
O   O5        1.0  0.34775  0.44540  0.39910  1.0000 -0.5079293366
O   O6        1.0  0.88200  0.50280  0.72650  1.0000 -0.520466518
O   O7        1.0  0.10580  0.46830  0.65206  1.0000 -0.5633067306
O   O8        1.0  0.88120  0.33085  0.55360  1.0000 -0.540311944
O   O9        1.0  0.10570  0.29755  0.47810  1.0000 -0.5516625757
O   O10       1.0  0.65225  0.55460  0.60090  1.0000 -0.5079293366
