# DDEC6 charges by PACMAN v1.1 (https://github.com/mtap-research/PACMAN-charge/)
data_2019[Cu][bto]3[FSR]14
_chemical_formula_sum              "Cu6 H36 C42 N18 O18"
_cell_length_a       10.134
_cell_length_b       10.134
_cell_length_c       16.514
_cell_angle_alpha    90
_cell_angle_beta     90
_cell_angle_gamma    120

_symmetry_space_group_name_H-M    "P 1"
_symmetry_Int_Tables_number       1

loop_
  _symmetry_equiv_pos_as_xyz
  'x, y, z'

loop_
  _atom_site_type_symbol
  _atom_site_label
  _atom_site_symmetry_multiplicity
  _atom_site_fract_x
  _atom_site_fract_y
  _atom_site_fract_z
  _atom_site_occupancy
  _atom_site_charge
Cu  Cu1       1.0  0.85121  0.59327  0.30501  1.0000 0.7246537786
Cu  Cu2       1.0  0.74206  0.14879  0.97168  1.0000 0.7246537786
Cu  Cu3       1.0  0.40673  0.25794  0.63835  1.0000 0.7246537786
Cu  Cu4       1.0  0.25794  0.40673  0.36165  1.0000 0.7246537786
Cu  Cu5       1.0  0.59327  0.85121  0.69498  1.0000 0.7246537786
Cu  Cu6       1.0  0.14879  0.74206  0.02832  1.0000 0.7246537786
H   H1        1.0  0.88160  0.53680  0.59664  1.0000 0.2972025405
H   H2        1.0  0.28450  0.86290  0.28514  1.0000 0.0922377935
H   H3        1.0  0.27550  0.88150  0.42773  1.0000 0.1284872374
H   H4        1.0  0.15560  0.91830  0.38564  1.0000 0.1284872374
H   H5        1.0  0.72220  0.46840  0.48003  1.0000 0.1187450296
H   H6        1.0  0.14300  0.73460  0.56434  1.0000 0.1370470456
H   H7        1.0  0.65520  0.11840  0.26330  1.0000 0.2972025405
H   H8        1.0  0.57840  0.71550  0.95180  1.0000 0.0922377935
H   H9        1.0  0.60600  0.72450  0.09440  1.0000 0.1284872374
H   H10       1.0  0.76270  0.84440  0.05230  1.0000 0.1284872374
H   H11       1.0  0.74620  0.27780  0.14670  1.0000 0.1187450296
H   H12       1.0  0.59160  0.85700  0.23100  1.0000 0.1370470456
H   H13       1.0  0.46320  0.34480  0.92997  1.0000 0.2972025405
H   H14       1.0  0.13710  0.42160  0.61847  1.0000 0.0922377935
H   H15       1.0  0.11850  0.39400  0.76107  1.0000 0.1284872374
H   H16       1.0  0.08170  0.23730  0.71897  1.0000 0.1284872374
H   H17       1.0  0.53160  0.25380  0.81337  1.0000 0.1187450296
H   H18       1.0  0.26540  0.40840  0.89767  1.0000 0.1370470456
H   H19       1.0  0.34480  0.46320  0.07003  1.0000 0.2972025405
H   H20       1.0  0.42160  0.13710  0.38153  1.0000 0.0922377935
H   H21       1.0  0.39400  0.11850  0.23893  1.0000 0.1284872374
H   H22       1.0  0.23730  0.08170  0.28103  1.0000 0.1284872374
H   H23       1.0  0.25380  0.53160  0.18663  1.0000 0.1187450296
H   H24       1.0  0.40840  0.26540  0.10233  1.0000 0.1370470456
H   H25       1.0  0.53680  0.88160  0.40336  1.0000 0.2972025405
H   H26       1.0  0.86290  0.28450  0.71486  1.0000 0.0922377935
H   H27       1.0  0.88150  0.27550  0.57227  1.0000 0.1284872374
H   H28       1.0  0.91830  0.15560  0.61437  1.0000 0.1284872374
H   H29       1.0  0.46840  0.72220  0.51997  1.0000 0.1187450296
H   H30       1.0  0.73460  0.14300  0.43567  1.0000 0.1370470456
H   H31       1.0  0.11840  0.65520  0.73670  1.0000 0.2972025405
H   H32       1.0  0.71550  0.57840  0.04820  1.0000 0.0922377935
H   H33       1.0  0.72450  0.60600  0.90560  1.0000 0.1284872374
H   H34       1.0  0.84440  0.76270  0.94770  1.0000 0.1284872374
H   H35       1.0  0.27780  0.74620  0.85330  1.0000 0.1187450296
H   H36       1.0  0.85700  0.59160  0.76900  1.0000 0.1370470456
C   C1        1.0  0.20200  0.77560  0.31594  1.0000 0.0300206995
C   C2        1.0  0.25350  0.65730  0.33214  1.0000 0.5395347458
C   C3        1.0  0.17880  0.83610  0.39693  1.0000 -0.2947506426
C   C4        1.0  0.07460  0.71190  0.18893  1.0000 0.3466919146
C   C5        1.0  0.82730  0.54310  0.48244  1.0000 0.1676507673
C   C6        1.0  0.05750  0.68820  0.52914  1.0000 -0.1102207893
C   C7        1.0  0.05390  0.71790  0.44923  1.0000 0.1800463578
C   C8        1.0  0.57360  0.79800  0.98260  1.0000 0.0300206995
C   C9        1.0  0.40380  0.74650  0.99880  1.0000 0.5395347458
C   C10       1.0  0.65730  0.82120  0.06360  1.0000 -0.2947506426
C   C11       1.0  0.63730  0.92540  0.85560  1.0000 0.3466919146
C   C12       1.0  0.71580  0.17270  0.14910  1.0000 0.1676507673
C   C13       1.0  0.63070  0.94250  0.19580  1.0000 -0.1102207893
C   C14       1.0  0.66400  0.94610  0.11590  1.0000 0.1800463578
C   C15       1.0  0.22440  0.42640  0.64927  1.0000 0.0300206995
C   C16       1.0  0.34270  0.59620  0.66547  1.0000 0.5395347458
C   C17       1.0  0.16390  0.34270  0.73027  1.0000 -0.2947506426
C   C18       1.0  0.28810  0.36270  0.52227  1.0000 0.3466919146
C   C19       1.0  0.45690  0.28420  0.81577  1.0000 0.1676507673
C   C20       1.0  0.31180  0.36930  0.86247  1.0000 -0.1102207893
C   C21       1.0  0.28210  0.33600  0.78257  1.0000 0.1800463578
C   C22       1.0  0.42640  0.22440  0.35073  1.0000 0.0300206995
C   C23       1.0  0.59620  0.34270  0.33453  1.0000 0.5395347458
C   C24       1.0  0.34270  0.16390  0.26973  1.0000 -0.2947506426
C   C25       1.0  0.36270  0.28810  0.47773  1.0000 0.3466919146
C   C26       1.0  0.28420  0.45690  0.18423  1.0000 0.1676507673
C   C27       1.0  0.36930  0.31180  0.13753  1.0000 -0.1102207893
C   C28       1.0  0.33600  0.28210  0.21743  1.0000 0.1800463578
C   C29       1.0  0.77560  0.20200  0.68407  1.0000 0.0300206995
C   C30       1.0  0.65730  0.25350  0.66787  1.0000 0.5395347458
C   C31       1.0  0.83610  0.17880  0.60306  1.0000 -0.2947506426
C   C32       1.0  0.71190  0.07460  0.81107  1.0000 0.3466919146
C   C33       1.0  0.54310  0.82730  0.51757  1.0000 0.1676507673
C   C34       1.0  0.68820  0.05750  0.47086  1.0000 -0.1102207893
C   C35       1.0  0.71790  0.05390  0.55076  1.0000 0.1800463578
C   C36       1.0  0.79800  0.57360  0.01740  1.0000 0.0300206995
C   C37       1.0  0.74650  0.40380  0.00120  1.0000 0.5395347458
C   C38       1.0  0.82120  0.65730  0.93640  1.0000 -0.2947506426
C   C39       1.0  0.92540  0.63730  0.14440  1.0000 0.3466919146
C   C40       1.0  0.17270  0.71580  0.85090  1.0000 0.1676507673
C   C41       1.0  0.94250  0.63070  0.80420  1.0000 -0.1102207893
C   C42       1.0  0.94610  0.66400  0.88410  1.0000 0.1800463578
N   N1        1.0  0.06160  0.70950  0.26733  1.0000 -0.4136870423
N   N2        1.0  0.90910  0.62750  0.41974  1.0000 -0.3550622681
N   N3        1.0  0.91290  0.57800  0.54853  1.0000 -0.184599014
N   N4        1.0  0.64790  0.93840  0.93400  1.0000 -0.4136870423
N   N5        1.0  0.71840  0.09090  0.08640  1.0000 -0.3545491019
N   N6        1.0  0.66510  0.08710  0.21520  1.0000 -0.184599014
N   N7        1.0  0.29050  0.35210  0.60067  1.0000 -0.4136870423
N   N8        1.0  0.37250  0.28160  0.75307  1.0000 -0.3550622681
N   N9        1.0  0.42200  0.33490  0.88187  1.0000 -0.184599014
N   N10       1.0  0.35210  0.29050  0.39933  1.0000 -0.4136870423
N   N11       1.0  0.28160  0.37250  0.24693  1.0000 -0.3550622681
N   N12       1.0  0.33490  0.42200  0.11813  1.0000 -0.184599014
N   N13       1.0  0.70950  0.06160  0.73266  1.0000 -0.4136870423
N   N14       1.0  0.62750  0.90910  0.58027  1.0000 -0.3550622681
N   N15       1.0  0.57800  0.91290  0.45147  1.0000 -0.184599014
N   N16       1.0  0.93840  0.64790  0.06600  1.0000 -0.4136870423
N   N17       1.0  0.09090  0.71840  0.91360  1.0000 -0.3550622681
N   N18       1.0  0.08710  0.66510  0.78480  1.0000 -0.184599014
O   O1        1.0  0.15350  0.51910  0.33443  1.0000 -0.4803725773
O   O2        1.0  0.19700  0.76770  0.14603  1.0000 -0.4803725773
O   O3        1.0  0.39170  0.70780  0.34374  1.0000 -0.5718257645
O   O4        1.0  0.36560  0.84650  0.00110  1.0000 -0.4803725773
O   O5        1.0  0.57070  0.80300  0.81270  1.0000 -0.4803725773
O   O6        1.0  0.31610  0.60830  0.01040  1.0000 -0.5718257645
O   O7        1.0  0.48090  0.63440  0.66777  1.0000 -0.4803725773
O   O8        1.0  0.23230  0.42930  0.47937  1.0000 -0.4803725773
O   O9        1.0  0.29220  0.68390  0.67707  1.0000 -0.5718257645
O   O10       1.0  0.63440  0.48090  0.33223  1.0000 -0.4803725773
O   O11       1.0  0.42930  0.23230  0.52063  1.0000 -0.4803725773
O   O12       1.0  0.68390  0.29220  0.32293  1.0000 -0.5718257645
O   O13       1.0  0.51910  0.15350  0.66556  1.0000 -0.4803725773
O   O14       1.0  0.76770  0.19700  0.85396  1.0000 -0.4803725773
O   O15       1.0  0.70780  0.39170  0.65626  1.0000 -0.5718257645
O   O16       1.0  0.84650  0.36560  0.99890  1.0000 -0.4803725773
O   O17       1.0  0.80300  0.57070  0.18730  1.0000 -0.4803725773
O   O18       1.0  0.60830  0.31610  0.98960  1.0000 -0.5718257645
