# DDEC6 charges by PACMAN v1.1 (https://github.com/mtap-research/PACMAN-charge/)
data_2019[Zn][pts]3[FSR]4
_chemical_formula_sum              "Zn2 H16 C28 N8 O8"
_cell_length_a       9.9931
_cell_length_b       10.7666
_cell_length_c       11.8831
_cell_angle_alpha    78.0274
_cell_angle_beta     69.8076
_cell_angle_gamma    84.2312

_symmetry_space_group_name_H-M    "P 1"
_symmetry_Int_Tables_number       1

loop_
  _symmetry_equiv_pos_as_xyz
  'x, y, z'

loop_
  _atom_site_type_symbol
  _atom_site_label
  _atom_site_symmetry_multiplicity
  _atom_site_fract_x
  _atom_site_fract_y
  _atom_site_fract_z
  _atom_site_occupancy
  _atom_site_charge
Zn  Zn1       1.0  0.95034  0.61829  0.27029  1.0000 0.7818031384
Zn  Zn2       1.0  0.04966  0.38171  0.72971  1.0000 0.7818031384
H   H1        1.0  0.20702  0.51450  0.85295  1.0000 0.1228896266
H   H2        1.0  0.91134  0.09254  0.34646  1.0000 0.137347251
H   H3        1.0  0.39904  0.62449  0.14531  1.0000 0.1326112314
H   H4        1.0  0.02964  0.32609  0.30567  1.0000 0.1228896266
H   H5        1.0  0.41093  0.19167  0.92631  1.0000 0.1326112314
H   H6        1.0  0.24582  0.15576  0.82659  1.0000 0.137347251
H   H7        1.0  0.74899  0.27751  0.63979  1.0000 0.137347251
H   H8        1.0  0.74205  0.50001  0.54437  1.0000 0.137347251
H   H9        1.0  0.79298  0.48550  0.14705  1.0000 0.1228896266
H   H10       1.0  0.08866  0.90746  0.65354  1.0000 0.137347251
H   H11       1.0  0.60096  0.37551  0.85469  1.0000 0.1326112314
H   H12       1.0  0.97036  0.67391  0.69433  1.0000 0.1228896266
H   H13       1.0  0.58907  0.80833  0.07369  1.0000 0.1326112314
H   H14       1.0  0.75418  0.84424  0.17341  1.0000 0.137347251
H   H15       1.0  0.25101  0.72249  0.36021  1.0000 0.137347251
H   H16       1.0  0.25795  0.49999  0.45563  1.0000 0.137347251
C   C1        1.0  0.41440  0.44120  0.95840  1.0000 0.1326112314
C   C2        1.0  0.23740  0.42960  0.85830  1.0000 0.1326112314
C   C3        1.0  0.94690  0.05460  0.40860  1.0000 -0.1759395377
C   C4        1.0  0.34970  0.51540  0.04720  1.0000 -0.0665690304
C   C5        1.0  0.95560  0.12540  0.48910  1.0000 0.1326112314
C   C6        1.0  0.43930  0.57380  0.08670  1.0000 -0.1886440741
C   C7        1.0  0.96940  0.85310  0.33040  1.0000 0.562196262
C   C8        1.0  0.95860  0.34240  0.37640  1.0000 0.1115412301
C   C9        1.0  0.19100  0.52650  0.11210  1.0000 0.551777847
C   C10       1.0  0.99000  0.92690  0.41800  1.0000 -0.0593096615
C   C11       1.0  0.35010  0.25210  0.89930  1.0000 -0.1173902528
C   C12       1.0  0.25920  0.23290  0.84420  1.0000 -0.0157218773
C   C13       1.0  0.80390  0.31430  0.56130  1.0000 -0.0923309104
C   C14       1.0  0.80100  0.43680  0.50780  1.0000 -0.0366406461
C   C15       1.0  0.58560  0.55880  0.04160  1.0000 0.1326112314
C   C16       1.0  0.76260  0.57040  0.14170  1.0000 0.1326112314
C   C17       1.0  0.05310  0.94540  0.59140  1.0000 -0.1759395377
C   C18       1.0  0.65030  0.48460  0.95280  1.0000 -0.0665690304
C   C19       1.0  0.04440  0.87460  0.51090  1.0000 0.1326112314
C   C20       1.0  0.56070  0.42620  0.91330  1.0000 -0.1886440741
C   C21       1.0  0.03060  0.14690  0.66960  1.0000 0.562196262
C   C22       1.0  0.04140  0.65760  0.62360  1.0000 0.1115412301
C   C23       1.0  0.80900  0.47350  0.88790  1.0000 0.551777847
C   C24       1.0  0.01000  0.07310  0.58200  1.0000 -0.0593096615
C   C25       1.0  0.64990  0.74790  0.10070  1.0000 -0.1173902528
C   C26       1.0  0.74080  0.76710  0.15580  1.0000 -0.0157218773
C   C27       1.0  0.19610  0.68570  0.43870  1.0000 -0.0923309104
C   C28       1.0  0.19900  0.56320  0.49220  1.0000 -0.0366406461
N   N1        1.0  0.18950  0.34540  0.81810  1.0000 -0.2806192862
N   N2        1.0  0.90450  0.25470  0.47640  1.0000 0.0181114151
N   N3        1.0  0.33600  0.37760  0.90820  1.0000 0.0181114151
N   N4        1.0  0.89750  0.45560  0.39150  1.0000 -0.2865324543
N   N5        1.0  0.81050  0.65460  0.18190  1.0000 -0.2806192862
N   N6        1.0  0.09550  0.74530  0.52360  1.0000 0.0181114151
N   N7        1.0  0.66400  0.62240  0.09180  1.0000 0.0181114151
N   N8        1.0  0.10250  0.54440  0.60850  1.0000 -0.2865324543
O   O1        1.0  0.92950  0.74030  0.37580  1.0000 -0.55080878
O   O2        1.0  0.15120  0.61680  0.17280  1.0000 -0.5402252154
O   O3        1.0  0.98770  0.90600  0.22490  1.0000 -0.5402252154
O   O4        1.0  0.10960  0.44900  0.10920  1.0000 -0.55080878
O   O5        1.0  0.07050  0.25970  0.62420  1.0000 -0.55080878
O   O6        1.0  0.84880  0.38320  0.82720  1.0000 -0.5402252154
O   O7        1.0  0.01230  0.09400  0.77510  1.0000 -0.5402252154
O   O8        1.0  0.89040  0.55100  0.89080  1.0000 -0.55080878
