# DDEC6 charges by PACMAN v1.1 (https://github.com/mtap-research/PACMAN-charge/)
data_2019[Zn][kgd]2[FSR]1
_chemical_formula_sum              "Zn8 H48 C52 N8 O36"
_cell_length_a       10.8098
_cell_length_b       10.3221
_cell_length_c       21.576
_cell_angle_alpha    90
_cell_angle_beta     99.827
_cell_angle_gamma    90

_symmetry_space_group_name_H-M    "P 1"
_symmetry_Int_Tables_number       1

loop_
  _symmetry_equiv_pos_as_xyz
  'x, y, z'

loop_
  _atom_site_type_symbol
  _atom_site_label
  _atom_site_symmetry_multiplicity
  _atom_site_fract_x
  _atom_site_fract_y
  _atom_site_fract_z
  _atom_site_occupancy
  _atom_site_charge
Zn  Zn1       1.0  0.43422  0.92561  0.93879  1.0000 1.0165863668
Zn  Zn2       1.0  0.70170  0.08549  0.93170  1.0000 0.9248494839
Zn  Zn3       1.0  0.56578  0.42561  0.56121  1.0000 1.0165863668
Zn  Zn4       1.0  0.29830  0.58549  0.56830  1.0000 0.9248494839
Zn  Zn5       1.0  0.56578  0.07439  0.06121  1.0000 1.0165863668
Zn  Zn6       1.0  0.29830  0.91451  0.06830  1.0000 0.9248494839
Zn  Zn7       1.0  0.43422  0.57439  0.43879  1.0000 1.0165863668
Zn  Zn8       1.0  0.70170  0.41451  0.43170  1.0000 0.9248494839
H   H1        1.0  0.50930  0.16070  0.94420  1.0000 0.3918382859
H   H2        1.0  0.31080  0.93450  0.83180  1.0000 0.3656390195
H   H3        1.0  0.42950  0.95300  0.81370  1.0000 0.3833951836
H   H4        1.0  0.27040  0.72080  0.91950  1.0000 0.3137591814
H   H5        1.0  0.35240  0.70820  0.97220  1.0000 0.3446533715
H   H6        1.0  0.63460  0.58440  0.92440  1.0000 0.1317702082
H   H7        1.0  0.81530  0.39180  0.80570  1.0000 0.1171382217
H   H8        1.0  0.02710  0.47830  0.58410  1.0000 0.1669946944
H   H9        1.0  0.96270  0.36280  0.61330  1.0000 0.1482822166
H   H10       1.0  0.07250  0.67720  0.65410  1.0000 0.1317702082
H   H11       1.0  0.01480  0.75080  0.75460  1.0000 0.138971213
H   H12       1.0  0.82010  0.77980  0.80840  1.0000 0.1171382217
H   H13       1.0  0.49070  0.66070  0.55580  1.0000 0.3918382859
H   H14       1.0  0.68920  0.43450  0.66820  1.0000 0.3656390195
H   H15       1.0  0.57050  0.45300  0.68630  1.0000 0.3833951836
H   H16       1.0  0.72960  0.22080  0.58050  1.0000 0.3137591814
H   H17       1.0  0.64760  0.20820  0.52780  1.0000 0.3446533715
H   H18       1.0  0.36540  0.08440  0.57560  1.0000 0.1317702082
H   H19       1.0  0.18470  0.89180  0.69430  1.0000 0.1171382217
H   H20       1.0  0.97290  0.97830  0.91590  1.0000 0.1669946944
H   H21       1.0  0.03730  0.86280  0.88670  1.0000 0.1482822166
H   H22       1.0  0.92750  0.17720  0.84590  1.0000 0.1317702082
H   H23       1.0  0.98520  0.25080  0.74540  1.0000 0.138971213
H   H24       1.0  0.17990  0.27980  0.69160  1.0000 0.1171382217
H   H25       1.0  0.49070  0.83930  0.05580  1.0000 0.3918382859
H   H26       1.0  0.68920  0.06550  0.16820  1.0000 0.3656390195
H   H27       1.0  0.57050  0.04700  0.18630  1.0000 0.3833951836
H   H28       1.0  0.72960  0.27920  0.08050  1.0000 0.3137591814
H   H29       1.0  0.64760  0.29180  0.02780  1.0000 0.3446533715
H   H30       1.0  0.36540  0.41560  0.07560  1.0000 0.1317702082
H   H31       1.0  0.18470  0.60820  0.19430  1.0000 0.1171382217
H   H32       1.0  0.97290  0.52170  0.41590  1.0000 0.1669946944
H   H33       1.0  0.03730  0.63720  0.38670  1.0000 0.1482822166
H   H34       1.0  0.92750  0.32280  0.34590  1.0000 0.1317702082
H   H35       1.0  0.98520  0.24920  0.24540  1.0000 0.138971213
H   H36       1.0  0.17990  0.22020  0.19160  1.0000 0.1171382217
H   H37       1.0  0.50930  0.33930  0.44420  1.0000 0.3918382859
H   H38       1.0  0.31080  0.56550  0.33180  1.0000 0.3656390195
H   H39       1.0  0.42950  0.54700  0.31370  1.0000 0.3833951836
H   H40       1.0  0.27040  0.77920  0.41950  1.0000 0.3137591814
H   H41       1.0  0.35240  0.79180  0.47220  1.0000 0.3446533715
H   H42       1.0  0.63460  0.91560  0.42440  1.0000 0.1317702082
H   H43       1.0  0.81530  0.10820  0.30570  1.0000 0.1171382217
H   H44       1.0  0.02710  0.02170  0.08410  1.0000 0.1669946944
H   H45       1.0  0.96270  0.13720  0.11330  1.0000 0.1482822166
H   H46       1.0  0.07250  0.82280  0.15410  1.0000 0.1317702082
H   H47       1.0  0.01480  0.74920  0.25460  1.0000 0.138971213
H   H48       1.0  0.82010  0.72020  0.30840  1.0000 0.1171382217
C   C1        1.0  0.67600  0.82510  0.89600  1.0000 0.5841985082
C   C2        1.0  0.72060  0.70180  0.87080  1.0000 -0.0302105213
C   C3        1.0  0.68510  0.58510  0.89350  1.0000 -0.1141819844
C   C4        1.0  0.72430  0.46790  0.87070  1.0000 -0.0178183701
C   C5        1.0  0.68920  0.34380  0.90010  1.0000 0.5608242487
C   C6        1.0  0.79240  0.46970  0.82230  1.0000 -0.1521058848
C   C7        1.0  0.82740  0.58560  0.79780  1.0000 0.0564069932
C   C8        1.0  0.89800  0.58730  0.74490  1.0000 0.1482822166
C   C9        1.0  0.95420  0.45380  0.60210  1.0000 -0.299421508
C   C10       1.0  0.83720  0.47120  0.55250  1.0000 0.6387857532
C   C11       1.0  0.01620  0.63690  0.67600  1.0000 -0.0425421095
C   C12       1.0  0.98490  0.67820  0.73120  1.0000 -0.267771628
C   C13       1.0  0.79380  0.70160  0.82320  1.0000 -0.1521058848
C   C14       1.0  0.32400  0.32510  0.60400  1.0000 0.5841985082
C   C15       1.0  0.27940  0.20180  0.62920  1.0000 -0.0302105213
C   C16       1.0  0.31490  0.08510  0.60650  1.0000 -0.1141819844
C   C17       1.0  0.27570  0.96790  0.62930  1.0000 -0.0178183701
C   C18       1.0  0.31080  0.84380  0.59990  1.0000 0.5608242487
C   C19       1.0  0.20760  0.96970  0.67770  1.0000 -0.1521058848
C   C20       1.0  0.17260  0.08560  0.70220  1.0000 0.0564069932
C   C21       1.0  0.10200  0.08730  0.75510  1.0000 0.1482822166
C   C22       1.0  0.04580  0.95380  0.89790  1.0000 -0.299421508
C   C23       1.0  0.16280  0.97120  0.94750  1.0000 0.6387857532
C   C24       1.0  0.98380  0.13690  0.82400  1.0000 -0.0425421095
C   C25       1.0  0.01510  0.17820  0.76880  1.0000 -0.267771628
C   C26       1.0  0.20620  0.20160  0.67680  1.0000 -0.1521058848
C   C27       1.0  0.32400  0.17490  0.10400  1.0000 0.5841985082
C   C28       1.0  0.27940  0.29820  0.12920  1.0000 -0.0302105213
C   C29       1.0  0.31490  0.41490  0.10650  1.0000 -0.1141819844
C   C30       1.0  0.27570  0.53210  0.12930  1.0000 -0.0178183701
C   C31       1.0  0.31080  0.65620  0.09990  1.0000 0.5608242487
C   C32       1.0  0.20760  0.53030  0.17770  1.0000 -0.1521058848
C   C33       1.0  0.17260  0.41440  0.20220  1.0000 0.0564069932
C   C34       1.0  0.10200  0.41270  0.25510  1.0000 0.1482822166
C   C35       1.0  0.04580  0.54620  0.39790  1.0000 -0.299421508
C   C36       1.0  0.16280  0.52880  0.44750  1.0000 0.6387857532
C   C37       1.0  0.98380  0.36310  0.32400  1.0000 -0.0425421095
C   C38       1.0  0.01510  0.32180  0.26880  1.0000 -0.267771628
C   C39       1.0  0.20620  0.29840  0.17680  1.0000 -0.1521058848
C   C40       1.0  0.67600  0.67490  0.39600  1.0000 0.5841985082
C   C41       1.0  0.72060  0.79820  0.37080  1.0000 -0.0302105213
C   C42       1.0  0.68510  0.91490  0.39350  1.0000 -0.1141819844
C   C43       1.0  0.72430  0.03210  0.37070  1.0000 -0.0178183701
C   C44       1.0  0.68920  0.15620  0.40010  1.0000 0.5608242487
C   C45       1.0  0.79240  0.03030  0.32230  1.0000 -0.1521058848
C   C46       1.0  0.82740  0.91440  0.29780  1.0000 0.0564069932
C   C47       1.0  0.89800  0.91270  0.24490  1.0000 0.1482822166
C   C48       1.0  0.95420  0.04620  0.10210  1.0000 -0.299421508
C   C49       1.0  0.83720  0.02880  0.05250  1.0000 0.6387857532
C   C50       1.0  0.01620  0.86310  0.17600  1.0000 -0.0425421095
C   C51       1.0  0.98490  0.82180  0.23120  1.0000 -0.267771628
C   C52       1.0  0.79380  0.79840  0.32320  1.0000 -0.1521058848
N   N1        1.0  0.87890  0.49620  0.70090  1.0000 -0.3343826795
N   N2        1.0  0.95260  0.52950  0.65880  1.0000 0.211518809
N   N3        1.0  0.12110  0.99620  0.79910  1.0000 -0.3343826795
N   N4        1.0  0.04740  0.02950  0.84120  1.0000 0.211518809
N   N5        1.0  0.12110  0.50380  0.29910  1.0000 -0.3343826795
N   N6        1.0  0.04740  0.47050  0.34120  1.0000 0.211518809
N   N7        1.0  0.87890  0.00380  0.20090  1.0000 -0.3343826795
N   N8        1.0  0.95260  0.97050  0.15880  1.0000 0.211518809
O   O1        1.0  0.54110  0.08860  0.96153  1.0000 -0.8621286417
O   O2        1.0  0.72540  0.93040  0.88230  1.0000 -0.556955185
O   O3        1.0  0.59370  0.81570  0.93030  1.0000 -0.5415886208
O   O4        1.0  0.73460  0.23960  0.88350  1.0000 -0.5502274299
O   O5        1.0  0.61890  0.34940  0.93920  1.0000 -0.5415886208
O   O6        1.0  0.74240  0.52410  0.56430  1.0000 -0.5415886208
O   O7        1.0  0.84860  0.41920  0.49960  1.0000 -0.5660465623
O   O8        1.0  0.39030  0.94710  0.84400  1.0000 -0.6717160011
O   O9        1.0  0.33940  0.74560  0.93560  1.0000 -0.6504221524
O   O10       1.0  0.45890  0.58860  0.53847  1.0000 -0.8621286417
O   O11       1.0  0.27460  0.43040  0.61770  1.0000 -0.556955185
O   O12       1.0  0.40630  0.31570  0.56970  1.0000 -0.5415886208
O   O13       1.0  0.26540  0.73960  0.61650  1.0000 -0.5502274299
O   O14       1.0  0.38110  0.84940  0.56080  1.0000 -0.5415886208
O   O15       1.0  0.25760  0.02410  0.93570  1.0000 -0.5415886208
O   O16       1.0  0.15140  0.91920  0.00040  1.0000 -0.5660465623
O   O17       1.0  0.60970  0.44710  0.65600  1.0000 -0.6717160011
O   O18       1.0  0.66060  0.24560  0.56440  1.0000 -0.6504221524
O   O19       1.0  0.45890  0.91140  0.03847  1.0000 -0.8621286417
O   O20       1.0  0.27460  0.06960  0.11770  1.0000 -0.556955185
O   O21       1.0  0.40630  0.18430  0.06970  1.0000 -0.5415886208
O   O22       1.0  0.26540  0.76040  0.11650  1.0000 -0.5502274299
O   O23       1.0  0.38110  0.65060  0.06080  1.0000 -0.5415886208
O   O24       1.0  0.25760  0.47590  0.43570  1.0000 -0.5415886208
O   O25       1.0  0.15140  0.58080  0.50040  1.0000 -0.5660465623
O   O26       1.0  0.60970  0.05290  0.15600  1.0000 -0.6717160011
O   O27       1.0  0.66060  0.25440  0.06440  1.0000 -0.6504221524
O   O28       1.0  0.54110  0.41140  0.46153  1.0000 -0.8621286417
O   O29       1.0  0.72540  0.56960  0.38230  1.0000 -0.556955185
O   O30       1.0  0.59370  0.68430  0.43030  1.0000 -0.5415886208
O   O31       1.0  0.73460  0.26040  0.38350  1.0000 -0.5502274299
O   O32       1.0  0.61890  0.15060  0.43920  1.0000 -0.5415886208
O   O33       1.0  0.74240  0.97590  0.06430  1.0000 -0.5415886208
O   O34       1.0  0.84860  0.08080  0.99960  1.0000 -0.5660465623
O   O35       1.0  0.39030  0.55290  0.34400  1.0000 -0.6717160011
O   O36       1.0  0.33940  0.75440  0.43560  1.0000 -0.6504221524
