# DDEC6 charges by PACMAN v1.1 (https://github.com/mtap-research/PACMAN-charge/)
data_2019[Er][nan]3[FSR]1
_chemical_formula_sum              "Er8 C96 Cl32 O68"
_cell_length_a       16.5838
_cell_length_b       19.6723
_cell_length_c       26.0073
_cell_angle_alpha    90
_cell_angle_beta     104.151
_cell_angle_gamma    90

_symmetry_space_group_name_H-M    "P 1"
_symmetry_Int_Tables_number       1

loop_
  _symmetry_equiv_pos_as_xyz
  'x, y, z'

loop_
  _atom_site_type_symbol
  _atom_site_label
  _atom_site_symmetry_multiplicity
  _atom_site_fract_x
  _atom_site_fract_y
  _atom_site_fract_z
  _atom_site_occupancy
  _atom_site_charge
Er  Er1       1.0  0.24547  0.01973  0.10176  1.0000 1.9317188765
Er  Er2       1.0  0.42481  0.18426  0.41488  1.0000 1.9821892287
Er  Er3       1.0  0.75453  0.51973  0.39824  1.0000 1.9317188765
Er  Er4       1.0  0.57519  0.68426  0.08512  1.0000 1.9821892287
Er  Er5       1.0  0.75453  0.98027  0.89824  1.0000 1.9317188765
Er  Er6       1.0  0.57519  0.81574  0.58512  1.0000 1.9821892287
Er  Er7       1.0  0.24547  0.48027  0.60176  1.0000 1.9317188765
Er  Er8       1.0  0.42481  0.31574  0.91488  1.0000 1.9821892287
C   C1        1.0  0.27865  0.15645  0.24677  1.0000 -0.1285588313
C   C2        1.0  0.40048  0.04767  0.26995  1.0000 -0.1205762467
C   C3        1.0  0.61854  0.41495  0.42137  1.0000 0.2706008944
C   C4        1.0  0.26944  0.37137  0.51268  1.0000 0.2796820346
C   C5        1.0  0.34668  0.05190  0.21932  1.0000 0.2796820346
C   C6        1.0  0.55195  0.38662  0.43770  1.0000 -0.1046446581
C   C7        1.0  0.33894  0.35255  0.56177  1.0000 0.2706008944
C   C8        1.0  0.30990  0.27543  0.46501  1.0000 0.2609315024
C   C9        1.0  0.65738  0.37429  0.38334  1.0000 0.2890553903
C   C10       1.0  0.27984  0.10784  0.20783  1.0000 0.2706008944
C   C11       1.0  0.08011  0.96898  0.02171  1.0000 0.2796820346
C   C12       1.0  0.39713  0.09510  0.30943  1.0000 0.2706008944
C   C13       1.0  0.55861  0.28170  0.38222  1.0000 0.2609315024
C   C14       1.0  0.51975  0.32350  0.41899  1.0000 0.2609315024
C   C15       1.0  0.39008  0.29759  0.55922  1.0000 -0.1285588313
C   C16       1.0  0.01963  0.93146  0.98626  1.0000 -0.1205762467
C   C17       1.0  0.38214  0.25913  0.51290  1.0000 0.2796820346
C   C18       1.0  0.25830  0.33053  0.46751  1.0000 -0.1205762467
C   C19       1.0  0.56670  0.95826  0.52882  1.0000 0.2706008944
C   C20       1.0  0.33325  0.15275  0.29656  1.0000 0.2706008944
C   C21       1.0  0.62220  0.31070  0.36347  1.0000 -0.1285588313
C   C22       1.0  0.58630  0.02147  0.51045  1.0000 -0.1391666253
C   C23       1.0  0.52360  0.06425  0.48175  1.0000 0.2796820346
C   C24       1.0  0.94180  0.95979  0.96239  1.0000 0.2796820346
C   C25       1.0  0.72135  0.65645  0.25323  1.0000 -0.1205762467
C   C26       1.0  0.59952  0.54767  0.23005  1.0000 -0.1205762467
C   C27       1.0  0.38146  0.91495  0.07863  1.0000 0.2706008944
C   C28       1.0  0.73056  0.87137  0.98732  1.0000 0.2796820346
C   C29       1.0  0.65332  0.55190  0.28068  1.0000 0.2796820346
C   C30       1.0  0.44805  0.88662  0.06230  1.0000 -0.1046446581
C   C31       1.0  0.66106  0.85255  0.93823  1.0000 0.2706008944
C   C32       1.0  0.69010  0.77543  0.03499  1.0000 0.2609315024
C   C33       1.0  0.34262  0.87429  0.11666  1.0000 0.2890553903
C   C34       1.0  0.72016  0.60784  0.29217  1.0000 0.2706008944
C   C35       1.0  0.91989  0.46898  0.47829  1.0000 0.2796820346
C   C36       1.0  0.60287  0.59510  0.19057  1.0000 0.2706008944
C   C37       1.0  0.44139  0.78170  0.11778  1.0000 0.2609315024
C   C38       1.0  0.48025  0.82350  0.08101  1.0000 0.2609315024
C   C39       1.0  0.60992  0.79759  0.94078  1.0000 -0.1285588313
C   C40       1.0  0.98037  0.43146  0.51374  1.0000 -0.1205762467
C   C41       1.0  0.61786  0.75913  0.98710  1.0000 0.2796820346
C   C42       1.0  0.74170  0.83053  0.03249  1.0000 -0.1205762467
C   C43       1.0  0.43330  0.45826  0.97118  1.0000 0.2706008944
C   C44       1.0  0.66675  0.65275  0.20344  1.0000 0.2706008944
C   C45       1.0  0.37780  0.81070  0.13653  1.0000 -0.1285588313
C   C46       1.0  0.41370  0.52147  0.98955  1.0000 -0.1391666253
C   C47       1.0  0.47640  0.56425  0.01825  1.0000 0.2796820346
C   C48       1.0  0.05820  0.45979  0.53761  1.0000 0.2796820346
C   C49       1.0  0.72135  0.84355  0.75323  1.0000 -0.1205762467
C   C50       1.0  0.59952  0.95233  0.73005  1.0000 -0.1205762467
C   C51       1.0  0.38146  0.58505  0.57863  1.0000 0.2706008944
C   C52       1.0  0.73056  0.62863  0.48732  1.0000 0.2796820346
C   C53       1.0  0.65332  0.94810  0.78068  1.0000 0.2796820346
C   C54       1.0  0.44805  0.61338  0.56230  1.0000 -0.1062100623
C   C55       1.0  0.66106  0.64745  0.43823  1.0000 0.2706008944
C   C56       1.0  0.69010  0.72457  0.53499  1.0000 0.2609315024
C   C57       1.0  0.34262  0.62571  0.61666  1.0000 0.2890553903
C   C58       1.0  0.72016  0.89216  0.79217  1.0000 0.2706008944
C   C59       1.0  0.91989  0.03102  0.97829  1.0000 0.2796820346
C   C60       1.0  0.60287  0.90490  0.69057  1.0000 0.2706008944
C   C61       1.0  0.44139  0.71830  0.61778  1.0000 0.2609315024
C   C62       1.0  0.48025  0.67650  0.58101  1.0000 0.2609315024
C   C63       1.0  0.60992  0.70241  0.44078  1.0000 -0.1285588313
C   C64       1.0  0.98037  0.06854  0.01374  1.0000 -0.1205762467
C   C65       1.0  0.61786  0.74087  0.48710  1.0000 0.2796820346
C   C66       1.0  0.74170  0.66947  0.53249  1.0000 -0.1205762467
C   C67       1.0  0.43330  0.04174  0.47118  1.0000 0.2706008944
C   C68       1.0  0.66675  0.84725  0.70344  1.0000 0.2706008944
C   C69       1.0  0.37780  0.68930  0.63653  1.0000 -0.1285588313
C   C70       1.0  0.41370  0.97853  0.48955  1.0000 -0.1391666253
C   C71       1.0  0.47640  0.93575  0.51825  1.0000 0.2796820346
C   C72       1.0  0.05820  0.04021  0.03761  1.0000 0.2796820346
C   C73       1.0  0.27865  0.34355  0.74677  1.0000 -0.1205762467
C   C74       1.0  0.40048  0.45233  0.76995  1.0000 -0.1205762467
C   C75       1.0  0.61854  0.08505  0.92137  1.0000 0.2706008944
C   C76       1.0  0.26944  0.12863  0.01268  1.0000 0.2796820346
C   C77       1.0  0.34668  0.44810  0.71932  1.0000 0.2796820346
C   C78       1.0  0.55195  0.11338  0.93770  1.0000 -0.1046446581
C   C79       1.0  0.33894  0.14745  0.06177  1.0000 0.2706008944
C   C80       1.0  0.30990  0.22457  0.96501  1.0000 0.2609315024
C   C81       1.0  0.65738  0.12571  0.88334  1.0000 0.2890553903
C   C82       1.0  0.27984  0.39216  0.70783  1.0000 0.2706008944
C   C83       1.0  0.08011  0.53102  0.52171  1.0000 0.2796820346
C   C84       1.0  0.39713  0.40490  0.80943  1.0000 0.2706008944
C   C85       1.0  0.55861  0.21830  0.88222  1.0000 0.2609315024
C   C86       1.0  0.51975  0.17650  0.91899  1.0000 0.2609315024
C   C87       1.0  0.39008  0.20241  0.05922  1.0000 -0.1285588313
C   C88       1.0  0.01963  0.56854  0.48626  1.0000 -0.1205762467
C   C89       1.0  0.38214  0.24087  0.01290  1.0000 0.2796820346
C   C90       1.0  0.25830  0.16947  0.96751  1.0000 -0.1205762467
C   C91       1.0  0.56670  0.54174  0.02882  1.0000 0.2706008944
C   C92       1.0  0.33325  0.34725  0.79656  1.0000 0.2706008944
C   C93       1.0  0.62220  0.18930  0.86347  1.0000 -0.1205762467
C   C94       1.0  0.58630  0.47853  0.01045  1.0000 -0.1391666253
C   C95       1.0  0.52360  0.43575  0.98175  1.0000 0.2796820346
C   C96       1.0  0.94180  0.54021  0.46239  1.0000 0.2796820346
Cl  Cl1       1.0  0.46913  0.27868  0.61491  1.0000 0.0091317924
Cl  Cl2       1.0  0.47026  0.98063  0.28282  1.0000 0.0091317924
Cl  Cl3       1.0  0.50627  0.42867  0.48117  1.0000 -0.0250692424
Cl  Cl4       1.0  0.04109  0.85009  0.96855  1.0000 0.0419774269
Cl  Cl5       1.0  0.20278  0.21901  0.23440  1.0000 0.0679282899
Cl  Cl6       1.0  0.17601  0.34711  0.41314  1.0000 0.0193993713
Cl  Cl7       1.0  0.68931  0.04604  0.52213  1.0000 0.1536820984
Cl  Cl8       1.0  0.66545  0.26749  0.31896  1.0000 0.0472821611
Cl  Cl9       1.0  0.53087  0.77868  0.88509  1.0000 0.0091317924
Cl  Cl10      1.0  0.52974  0.48063  0.21718  1.0000 0.0193993713
Cl  Cl11      1.0  0.49373  0.92867  0.01883  1.0000 -0.0231577991
Cl  Cl12      1.0  0.95891  0.35009  0.53145  1.0000 0.0419774269
Cl  Cl13      1.0  0.79722  0.71901  0.26560  1.0000 0.0679282899
Cl  Cl14      1.0  0.82399  0.84711  0.08686  1.0000 0.0193993713
Cl  Cl15      1.0  0.31069  0.54604  0.97787  1.0000 0.1536820984
Cl  Cl16      1.0  0.33455  0.76749  0.18104  1.0000 0.0472821611
Cl  Cl17      1.0  0.53087  0.72132  0.38509  1.0000 0.0091317924
Cl  Cl18      1.0  0.52974  0.01937  0.71718  1.0000 0.0091317924
Cl  Cl19      1.0  0.49373  0.57133  0.51883  1.0000 -0.0231577991
Cl  Cl20      1.0  0.95891  0.14991  0.03145  1.0000 0.0472821611
Cl  Cl21      1.0  0.79722  0.78099  0.76560  1.0000 0.0679282899
Cl  Cl22      1.0  0.82399  0.65289  0.58686  1.0000 0.0193993713
Cl  Cl23      1.0  0.31069  0.95396  0.47787  1.0000 0.1536820984
Cl  Cl24      1.0  0.33455  0.73251  0.68104  1.0000 0.0419774269
Cl  Cl25      1.0  0.46913  0.22132  0.11491  1.0000 0.0091317924
Cl  Cl26      1.0  0.47026  0.51937  0.78282  1.0000 0.0091317924
Cl  Cl27      1.0  0.50627  0.07133  0.98117  1.0000 -0.0231577991
Cl  Cl28      1.0  0.04109  0.64991  0.46855  1.0000 0.0472821611
Cl  Cl29      1.0  0.20278  0.28099  0.73440  1.0000 0.0679282899
Cl  Cl30      1.0  0.17601  0.15289  0.91314  1.0000 0.0193993713
Cl  Cl31      1.0  0.68931  0.45396  0.02213  1.0000 0.1711442079
Cl  Cl32      1.0  0.66545  0.23251  0.81896  1.0000 0.0419774269
O   O1        1.0  0.34232  0.38983  0.60129  1.0000 -0.454152498
O   O2        1.0  0.65109  0.47186  0.43513  1.0000 -0.4676724847
O   O3        1.0  0.71956  0.40063  0.37305  1.0000 -0.3837446068
O   O4        1.0  0.88713  0.93109  0.92727  1.0000 -0.4396903121
O   O5        1.0  0.30380  0.23637  0.42580  1.0000 -0.4676724847
O   O6        1.0  0.53594  0.12094  0.46299  1.0000 -0.4903851096
O   O7        1.0  0.52732  0.22323  0.37158  1.0000 -0.4786980693
O   O8        1.0  0.34744  0.01244  0.18167  1.0000 -0.4601112921
O   O9        1.0  0.62061  0.91635  0.55321  1.0000 -0.4987515603
O   O10       1.0  0.15326  0.94951  0.04201  1.0000 -0.4601112921
O   O11       1.0  0.33513  0.19397  0.33398  1.0000 -0.5054434631
O   O12       1.0  0.22744  0.42223  0.51788  1.0000 -0.4396903121
O   O13       1.0  0.45818  0.29661  0.43099  1.0000 -0.5286298339
O   O14       1.0  0.23008  0.10486  0.16328  1.0000 -0.4333294306
O   O15       1.0  0.44215  0.09491  0.35580  1.0000 -0.4396903121
O   O16       1.0  0.42808  0.21061  0.50640  1.0000 -0.4601112921
O   O17       1.0  0.16700  0.97000  0.15915  1.0000 -0.2182771732
O   O18       1.0  0.65768  0.88983  0.89871  1.0000 -0.454152498
O   O19       1.0  0.34891  0.97186  0.06487  1.0000 -0.4676724847
O   O20       1.0  0.28044  0.90063  0.12695  1.0000 -0.3869674299
O   O21       1.0  0.11287  0.43109  0.57273  1.0000 -0.4396903121
O   O22       1.0  0.69620  0.73637  0.07420  1.0000 -0.4676724847
O   O23       1.0  0.46406  0.62094  0.03701  1.0000 -0.4903851096
O   O24       1.0  0.47268  0.72323  0.12842  1.0000 -0.4786980693
O   O25       1.0  0.65256  0.51244  0.31833  1.0000 -0.454152498
O   O26       1.0  0.37939  0.41635  0.94679  1.0000 -0.4987515603
O   O27       1.0  0.84674  0.44951  0.45799  1.0000 -0.4601112921
O   O28       1.0  0.66487  0.69397  0.16602  1.0000 -0.5054434631
O   O29       1.0  0.77256  0.92223  0.98212  1.0000 -0.4396903121
O   O30       1.0  0.54182  0.79661  0.06901  1.0000 -0.5286298339
O   O31       1.0  0.76992  0.60486  0.33672  1.0000 -0.4333294306
O   O32       1.0  0.55785  0.59491  0.14420  1.0000 -0.4396903121
O   O33       1.0  0.57192  0.71061  0.99360  1.0000 -0.4676724847
O   O34       1.0  0.83300  0.47000  0.34085  1.0000 -0.2417485509
O   O35       1.0  0.65768  0.61017  0.39871  1.0000 -0.454152498
O   O36       1.0  0.34891  0.52814  0.56487  1.0000 -0.4676724847
O   O37       1.0  0.28044  0.59937  0.62695  1.0000 -0.3869674299
O   O38       1.0  0.11287  0.06891  0.07273  1.0000 -0.4396903121
O   O39       1.0  0.69620  0.76363  0.57420  1.0000 -0.4676724847
O   O40       1.0  0.46406  0.87906  0.53701  1.0000 -0.4903851096
O   O41       1.0  0.47268  0.77677  0.62842  1.0000 -0.4786980693
O   O42       1.0  0.65256  0.98756  0.81833  1.0000 -0.4601112921
O   O43       1.0  0.37939  0.08365  0.44679  1.0000 -0.4987515603
O   O44       1.0  0.84674  0.05049  0.95799  1.0000 -0.4601112921
O   O45       1.0  0.66487  0.80603  0.66602  1.0000 -0.5054434631
O   O46       1.0  0.77256  0.57777  0.48212  1.0000 -0.4396903121
O   O47       1.0  0.54182  0.70339  0.56901  1.0000 -0.5286298339
O   O48       1.0  0.76992  0.89514  0.83672  1.0000 -0.4333294306
O   O49       1.0  0.55785  0.90509  0.64420  1.0000 -0.4396903121
O   O50       1.0  0.57192  0.78939  0.49360  1.0000 -0.4676724847
O   O51       1.0  0.83300  0.03000  0.84085  1.0000 -0.2182771732
O   O52       1.0  0.34232  0.11017  0.10129  1.0000 -0.454152498
O   O53       1.0  0.65109  0.02814  0.93513  1.0000 -0.4676724847
O   O54       1.0  0.71956  0.09937  0.87305  1.0000 -0.3869674299
O   O55       1.0  0.88713  0.56891  0.42727  1.0000 -0.4333294306
O   O56       1.0  0.30380  0.26363  0.92580  1.0000 -0.4676724847
O   O57       1.0  0.53594  0.37906  0.96299  1.0000 -0.4903851096
O   O58       1.0  0.52732  0.27677  0.87158  1.0000 -0.4786980693
O   O59       1.0  0.34744  0.48756  0.68167  1.0000 -0.4601112921
O   O60       1.0  0.62061  0.58365  0.05321  1.0000 -0.4987515603
O   O61       1.0  0.15326  0.55049  0.54201  1.0000 -0.4601112921
O   O62       1.0  0.33513  0.30603  0.83398  1.0000 -0.5054434631
O   O63       1.0  0.22744  0.07777  0.01788  1.0000 -0.4396903121
O   O64       1.0  0.45818  0.20339  0.93099  1.0000 -0.5286298339
O   O65       1.0  0.23008  0.39514  0.66328  1.0000 -0.4333294306
O   O66       1.0  0.44215  0.40509  0.85580  1.0000 -0.4396903121
O   O67       1.0  0.42808  0.28939  0.00640  1.0000 -0.4676724847
O   O68       1.0  0.16700  0.53000  0.65915  1.0000 -0.2127672676
