# DDEC6 charges by PACMAN v1.1 (https://github.com/mtap-research/PACMAN-charge/)
data_2019[Cd][tfw]3[FSR]1
_chemical_formula_sum              "Cd6 H44 C36 N16 O32"
_cell_length_a       11.6149
_cell_length_b       11.6149
_cell_length_c       12.8688
_cell_angle_alpha    73.7714
_cell_angle_beta     106.229
_cell_angle_gamma    77.6893

_symmetry_space_group_name_H-M    "P 1"
_symmetry_Int_Tables_number       1

loop_
  _symmetry_equiv_pos_as_xyz
  'x, y, z'

loop_
  _atom_site_type_symbol
  _atom_site_label
  _atom_site_symmetry_multiplicity
  _atom_site_fract_x
  _atom_site_fract_y
  _atom_site_fract_z
  _atom_site_occupancy
  _atom_site_charge
Cd  Cd1       1.0  0.17159  0.78595  0.55222  1.0000 0.9610400944
Cd  Cd2       1.0  0.78595  0.17159  0.94778  1.0000 0.9610400944
Cd  Cd3       1.0  0.82841  0.21405  0.44778  1.0000 0.9610400944
Cd  Cd4       1.0  0.21405  0.82841  0.05222  1.0000 0.9610400944
Cd  Cd5       1.0  0.24672  0.24672  0.25000  1.0000 0.9098200201
Cd  Cd6       1.0  0.75328  0.75328  0.75000  1.0000 0.9098200201
H   H1        1.0  0.31480  0.73260  0.42200  1.0000 0.3607061107
H   H2        1.0  0.73260  0.31480  0.07800  1.0000 0.3607061107
H   H3        1.0  0.68520  0.26740  0.57800  1.0000 0.3607061107
H   H4        1.0  0.26740  0.68520  0.92200  1.0000 0.3607061107
H   H5        1.0  0.30200  0.61960  0.47110  1.0000 0.3607061107
H   H6        1.0  0.61960  0.30200  0.02890  1.0000 0.3607061107
H   H7        1.0  0.69800  0.38040  0.52890  1.0000 0.3607061107
H   H8        1.0  0.38040  0.69800  0.97110  1.0000 0.3607061107
H   H9        1.0  0.98100  0.32380  0.15850  1.0000 0.3500189482
H   H10       1.0  0.32380  0.98100  0.34150  1.0000 0.3500189482
H   H11       1.0  0.01900  0.67620  0.84150  1.0000 0.3500189482
H   H12       1.0  0.67620  0.01900  0.65850  1.0000 0.3500189482
H   H13       1.0  0.00740  0.31260  0.06300  1.0000 0.3500189482
H   H14       1.0  0.31260  0.00740  0.43700  1.0000 0.3500189482
H   H15       1.0  0.99260  0.68740  0.93700  1.0000 0.3500189482
H   H16       1.0  0.68740  0.99260  0.56300  1.0000 0.3500189482
H   H17       1.0  0.19350  0.45870  0.60470  1.0000 0.1200665123
H   H18       1.0  0.45870  0.19350  0.89530  1.0000 0.1200665123
H   H19       1.0  0.80650  0.54130  0.39530  1.0000 0.1200665123
H   H20       1.0  0.54130  0.80650  0.10470  1.0000 0.1200665123
H   H21       1.0  0.98740  0.22860  0.66800  1.0000 0.1200665123
H   H22       1.0  0.22860  0.98740  0.83200  1.0000 0.1200665123
H   H23       1.0  0.01260  0.77140  0.33200  1.0000 0.1200665123
H   H24       1.0  0.77140  0.01260  0.16800  1.0000 0.1200665123
H   H25       1.0  0.06130  0.43930  0.86370  1.0000 0.1142849325
H   H26       1.0  0.43930  0.06130  0.63630  1.0000 0.1142849325
H   H27       1.0  0.93870  0.56070  0.13630  1.0000 0.1142849325
H   H28       1.0  0.56070  0.93870  0.36370  1.0000 0.1142849325
H   H29       1.0  0.99350  0.99730  0.36390  1.0000 0.3607061107
H   H30       1.0  0.99730  0.99350  0.13610  1.0000 0.3607061107
H   H31       1.0  0.00650  0.00270  0.63610  1.0000 0.3607061107
H   H32       1.0  0.00270  0.00650  0.86390  1.0000 0.3607061107
H   H33       1.0  0.10930  0.00170  0.35870  1.0000 0.3399057685
H   H34       1.0  0.00170  0.10930  0.14130  1.0000 0.3399057685
H   H35       1.0  0.89070  0.99830  0.64130  1.0000 0.3399057685
H   H36       1.0  0.99830  0.89070  0.85870  1.0000 0.3399057685
H   H37       1.0  0.46120  0.19460  0.43290  1.0000 0.3886452018
H   H38       1.0  0.19460  0.46120  0.06710  1.0000 0.3886452018
H   H39       1.0  0.53880  0.80540  0.56710  1.0000 0.3886452018
H   H40       1.0  0.80540  0.53880  0.93290  1.0000 0.3886452018
H   H41       1.0  0.49390  0.22550  0.33190  1.0000 0.4053917228
H   H42       1.0  0.22550  0.49390  0.16810  1.0000 0.4053917228
H   H43       1.0  0.50610  0.77450  0.66810  1.0000 0.4053917228
H   H44       1.0  0.77450  0.50610  0.83190  1.0000 0.4053917228
C   C1        1.0  0.08920  0.33940  0.61870  1.0000 0.044063866
C   C2        1.0  0.33940  0.08920  0.88130  1.0000 0.044063866
C   C3        1.0  0.91080  0.66060  0.38130  1.0000 0.044063866
C   C4        1.0  0.66060  0.91080  0.11870  1.0000 0.044063866
C   C5        1.0  0.09820  0.30260  0.51950  1.0000 0.25854066
C   C6        1.0  0.30260  0.09820  0.98050  1.0000 0.25854066
C   C7        1.0  0.90180  0.69740  0.48050  1.0000 0.25854066
C   C8        1.0  0.69740  0.90180  0.01950  1.0000 0.25854066
C   C9        1.0  0.13860  0.46260  0.73990  1.0000 -0.0144355364
C   C10       1.0  0.46260  0.13860  0.76010  1.0000 -0.0151131285
C   C11       1.0  0.86140  0.53740  0.26010  1.0000 -0.0151131285
C   C12       1.0  0.53740  0.86140  0.23990  1.0000 -0.0144355364
C   C13       1.0  0.01180  0.32640  0.77640  1.0000 -0.0144355364
C   C14       1.0  0.32640  0.01180  0.72360  1.0000 -0.0144355364
C   C15       1.0  0.98820  0.67360  0.22360  1.0000 -0.0144355364
C   C16       1.0  0.67360  0.98820  0.27640  1.0000 -0.0144355364
C   C17       1.0  0.14780  0.42560  0.64760  1.0000 -0.1311765761
C   C18       1.0  0.42560  0.14780  0.85240  1.0000 -0.1311765761
C   C19       1.0  0.85220  0.57440  0.35240  1.0000 -0.1311765761
C   C20       1.0  0.57440  0.85220  0.14760  1.0000 -0.1311765761
C   C21       1.0  0.02370  0.28850  0.68470  1.0000 -0.1470613928
C   C22       1.0  0.28850  0.02370  0.81530  1.0000 -0.1470613928
C   C23       1.0  0.97630  0.71150  0.31530  1.0000 -0.1470613928
C   C24       1.0  0.71150  0.97630  0.18470  1.0000 -0.1470613928
C   C25       1.0  0.93690  0.27290  0.84330  1.0000 0.5670771001
C   C26       1.0  0.27290  0.93690  0.65670  1.0000 0.5670771001
C   C27       1.0  0.06310  0.72710  0.15670  1.0000 0.5670771001
C   C28       1.0  0.72710  0.06310  0.34330  1.0000 0.5670771001
C   C29       1.0  0.19990  0.55810  0.76710  1.0000 0.5670771001
C   C30       1.0  0.55810  0.19990  0.73290  1.0000 0.5670771001
C   C31       1.0  0.80010  0.44190  0.23290  1.0000 0.5670771001
C   C32       1.0  0.44190  0.80010  0.26710  1.0000 0.5670771001
C   C33       1.0  0.06930  0.41370  0.80300  1.0000 -0.1237899774
C   C34       1.0  0.41370  0.06930  0.69700  1.0000 -0.1237899774
C   C35       1.0  0.93070  0.58630  0.19700  1.0000 -0.1237899774
C   C36       1.0  0.58630  0.93070  0.30300  1.0000 -0.1237899774
N   N1        1.0  0.06206  0.22666  0.38430  1.0000 -0.0729940665
N   N2        1.0  0.22666  0.06206  0.11570  1.0000 -0.0729940665
N   N3        1.0  0.93794  0.77334  0.61570  1.0000 -0.0729940665
N   N4        1.0  0.77334  0.93794  0.88430  1.0000 -0.0729940665
N   N5        1.0  0.15443  0.27403  0.38340  1.0000 -0.0830054433
N   N6        1.0  0.27403  0.15443  0.11660  1.0000 -0.0830054433
N   N7        1.0  0.84557  0.72597  0.61660  1.0000 -0.0830054433
N   N8        1.0  0.72597  0.84557  0.88340  1.0000 -0.0830054433
N   N9        1.0  0.02397  0.24357  0.47030  1.0000 -0.2911550627
N   N10       1.0  0.24357  0.02397  0.02970  1.0000 -0.2911550627
N   N11       1.0  0.97603  0.75643  0.52970  1.0000 -0.2911550627
N   N12       1.0  0.75643  0.97603  0.97030  1.0000 -0.2911550627
N   N13       1.0  0.17929  0.32329  0.46720  1.0000 -0.2571062149
N   N14       1.0  0.32329  0.17929  0.03280  1.0000 -0.2571062149
N   N15       1.0  0.82071  0.67671  0.53280  1.0000 -0.2571062149
N   N16       1.0  0.67671  0.82071  0.96720  1.0000 -0.2571062149
O   O1        1.0  0.25999  0.60039  0.70580  1.0000 -0.5697550775
O   O2        1.0  0.60039  0.25999  0.79420  1.0000 -0.5697550775
O   O3        1.0  0.74001  0.39961  0.29420  1.0000 -0.5697550775
O   O4        1.0  0.39961  0.74001  0.20580  1.0000 -0.5697550775
O   O5        1.0  0.90252  0.32660  0.90819  1.0000 -0.5993376077
O   O6        1.0  0.32660  0.90252  0.59181  1.0000 -0.5993376077
O   O7        1.0  0.09748  0.67340  0.09181  1.0000 -0.5993376077
O   O8        1.0  0.67340  0.09748  0.40819  1.0000 -0.5993376077
O   O9        1.0  0.28004  0.69604  0.46420  1.0000 -0.6479134262
O   O10       1.0  0.69604  0.28004  0.03580  1.0000 -0.6479134262
O   O11       1.0  0.71996  0.30396  0.53580  1.0000 -0.6479134262
O   O12       1.0  0.30396  0.71996  0.96420  1.0000 -0.6479134262
O   O13       1.0  0.18649  0.59009  0.84960  1.0000 -0.5697550775
O   O14       1.0  0.59009  0.18649  0.65040  1.0000 -0.5697550775
O   O15       1.0  0.81351  0.40991  0.15040  1.0000 -0.5697550775
O   O16       1.0  0.40991  0.81351  0.34960  1.0000 -0.5697550775
O   O17       1.0  0.03650  0.29650  0.13460  1.0000 -0.7137481273
O   O18       1.0  0.29650  0.03650  0.36540  1.0000 -0.7137481273
O   O19       1.0  0.96350  0.70350  0.86540  1.0000 -0.7137481273
O   O20       1.0  0.70350  0.96350  0.63460  1.0000 -0.7137481273
O   O21       1.0  0.06905  0.95689  0.38238  1.0000 -0.6787228586
O   O22       1.0  0.95689  0.06905  0.11762  1.0000 -0.6787228586
O   O23       1.0  0.93095  0.04311  0.61762  1.0000 -0.6787228586
O   O24       1.0  0.04311  0.93095  0.88238  1.0000 -0.6787228586
O   O25       1.0  0.43510  0.24850  0.36030  1.0000 -0.6787228586
O   O26       1.0  0.24850  0.43510  0.13970  1.0000 -0.6787228586
O   O27       1.0  0.56490  0.75150  0.63970  1.0000 -0.6787228586
O   O28       1.0  0.75150  0.56490  0.86030  1.0000 -0.6787228586
O   O29       1.0  0.90697  0.17803  0.83287  1.0000 -0.5297720732
O   O30       1.0  0.17803  0.90697  0.66713  1.0000 -0.5297720732
O   O31       1.0  0.09303  0.82197  0.16713  1.0000 -0.5297720732
O   O32       1.0  0.82197  0.09303  0.33287  1.0000 -0.5297720732
