# DDEC6 charges by PACMAN v1.1 (https://github.com/mtap-research/PACMAN-charge/)
data_2019[Cd][nan]3[FSR]12
_chemical_formula_sum              "Cd8 H160 C248 N16 O32"
_cell_length_a       10.1252
_cell_length_b       27.609
_cell_length_c       34.6528
_cell_angle_alpha    90
_cell_angle_beta     93.114
_cell_angle_gamma    90

_symmetry_space_group_name_H-M    "P 1"
_symmetry_Int_Tables_number       1

loop_
  _symmetry_equiv_pos_as_xyz
  'x, y, z'

loop_
  _atom_site_type_symbol
  _atom_site_label
  _atom_site_symmetry_multiplicity
  _atom_site_fract_x
  _atom_site_fract_y
  _atom_site_fract_z
  _atom_site_occupancy
  _atom_site_charge
Cd  Cd1       1.0  0.92409  0.27622  0.74836  1.0000 0.8639284201
Cd  Cd2       1.0  0.57497  0.18704  0.72786  1.0000 0.8726779647
Cd  Cd3       1.0  0.07591  0.77622  0.75164  1.0000 0.8639284201
Cd  Cd4       1.0  0.42503  0.68704  0.77214  1.0000 0.8726779647
Cd  Cd5       1.0  0.07591  0.72378  0.25164  1.0000 0.8639284201
Cd  Cd6       1.0  0.42503  0.81296  0.27214  1.0000 0.8726779647
Cd  Cd7       1.0  0.92409  0.22378  0.24836  1.0000 0.8639284201
Cd  Cd8       1.0  0.57497  0.31296  0.22786  1.0000 0.8726779647
H   H1        1.0  0.35938  0.48767  0.43265  1.0000 0.1181103825
H   H2        1.0  0.35516  0.36318  0.46288  1.0000 0.1181103825
H   H3        1.0  0.31989  0.53679  0.37951  1.0000 0.1111794833
H   H4        1.0  0.18863  0.51690  0.62732  1.0000 0.1111794833
H   H5        1.0  0.45811  0.59890  0.57763  1.0000 0.1111794833
H   H6        1.0  0.28992  0.32454  0.40610  1.0000 0.1111794833
H   H7        1.0  0.46918  0.43751  0.54454  1.0000 0.1111794833
H   H8        1.0  0.13777  0.35913  0.52715  1.0000 0.1181103825
H   H9        1.0  0.03819  0.45018  0.45076  1.0000 0.1111794833
H   H10       1.0  0.62203  0.30651  0.61133  1.0000 0.1309790985
H   H11       1.0  0.04794  0.60936  0.43565  1.0000 0.1111794833
H   H12       1.0  0.15204  0.47502  0.57037  1.0000 0.1111794833
H   H13       1.0  0.20746  0.30712  0.57582  1.0000 0.1181103825
H   H14       1.0  0.08913  0.56072  0.48962  1.0000 0.1181103825
H   H15       1.0  0.25831  0.54397  0.68044  1.0000 0.1309790985
H   H16       1.0  0.17842  0.27848  0.28582  1.0000 0.1181103825
H   H17       1.0  0.41220  0.55929  0.51878  1.0000 0.1111794833
H   H18       1.0  0.39982  0.27690  0.75653  1.0000 0.1111794833
H   H19       1.0  0.87882  0.33526  0.36784  1.0000 0.1309790985
H   H20       1.0  0.81395  0.28967  0.31461  1.0000 0.1004030989
H   H21       1.0  0.96406  0.40729  0.39603  1.0000 0.1111794833
H   H22       1.0  0.45208  0.64734  0.62558  1.0000 0.1309790985
H   H23       1.0  0.25417  0.32161  0.33914  1.0000 0.1309790985
H   H24       1.0  0.10452  0.18693  0.71559  1.0000 0.1181103825
H   H25       1.0  0.68466  0.25641  0.66256  1.0000 0.1111794833
H   H26       1.0  0.05819  0.66570  0.39521  1.0000 0.1309790985
H   H27       1.0  0.54304  0.38421  0.59236  1.0000 0.1111794833
H   H28       1.0  0.03015  0.71529  0.34218  1.0000 0.1181103825
H   H29       1.0  0.47847  0.68767  0.68269  1.0000 0.1111794833
H   H30       1.0  0.25165  0.57222  0.32850  1.0000 0.1357000686
H   H31       1.0  0.24748  0.29456  0.64252  1.0000 0.1309790985
H   H32       1.0  0.29667  0.58808  0.73711  1.0000 0.1181103825
H   H33       1.0  0.32099  0.24497  0.69270  1.0000 0.1181103825
H   H34       1.0  0.63159  0.37678  0.80958  1.0000 0.1181103825
H   H35       1.0  0.21896  0.62611  0.27909  1.0000 0.1181103825
H   H36       1.0  0.24019  0.38978  0.81038  1.0000 0.1181103825
H   H37       1.0  0.86668  0.08444  0.66554  1.0000 0.1309790985
H   H38       1.0  0.26028  0.06630  0.67157  1.0000 0.1309790985
H   H39       1.0  0.44833  0.41464  0.83429  1.0000 0.1181103825
H   H40       1.0  0.05014  0.04045  0.65256  1.0000 0.1111794833
H   H41       1.0  0.64062  0.98767  0.06735  1.0000 0.1181103825
H   H42       1.0  0.64484  0.86318  0.03712  1.0000 0.1181103825
H   H43       1.0  0.68011  0.03679  0.12049  1.0000 0.1111794833
H   H44       1.0  0.81137  0.01690  0.87268  1.0000 0.1111794833
H   H45       1.0  0.54189  0.09890  0.92237  1.0000 0.1111794833
H   H46       1.0  0.71008  0.82454  0.09390  1.0000 0.1111794833
H   H47       1.0  0.53082  0.93751  0.95546  1.0000 0.1111794833
H   H48       1.0  0.86223  0.85913  0.97285  1.0000 0.1181103825
H   H49       1.0  0.96181  0.95018  0.04924  1.0000 0.1111794833
H   H50       1.0  0.37797  0.80651  0.88867  1.0000 0.1309790985
H   H51       1.0  0.95206  0.10936  0.06435  1.0000 0.1111794833
H   H52       1.0  0.84796  0.97502  0.92963  1.0000 0.1111794833
H   H53       1.0  0.79254  0.80712  0.92418  1.0000 0.1181103825
H   H54       1.0  0.91087  0.06072  0.01038  1.0000 0.1111794833
H   H55       1.0  0.74169  0.04397  0.81956  1.0000 0.1357000686
H   H56       1.0  0.82158  0.77848  0.21418  1.0000 0.1181103825
H   H57       1.0  0.58780  0.05929  0.98122  1.0000 0.1111794833
H   H58       1.0  0.60018  0.77690  0.74347  1.0000 0.1111794833
H   H59       1.0  0.12118  0.83526  0.13216  1.0000 0.1309790985
H   H60       1.0  0.18605  0.78967  0.18539  1.0000 0.1004030989
H   H61       1.0  0.03594  0.90729  0.10397  1.0000 0.1111794833
H   H62       1.0  0.54792  0.14734  0.87442  1.0000 0.1309790985
H   H63       1.0  0.74583  0.82161  0.16086  1.0000 0.1309790985
H   H64       1.0  0.89548  0.68693  0.78441  1.0000 0.1181103825
H   H65       1.0  0.31534  0.75641  0.83744  1.0000 0.1111794833
H   H66       1.0  0.94181  0.16570  0.10479  1.0000 0.1309790985
H   H67       1.0  0.45696  0.88421  0.90764  1.0000 0.1111794833
H   H68       1.0  0.96985  0.21529  0.15782  1.0000 0.1181103825
H   H69       1.0  0.52153  0.18767  0.81731  1.0000 0.1111794833
H   H70       1.0  0.74835  0.07222  0.17150  1.0000 0.1357000686
H   H71       1.0  0.75252  0.79456  0.85748  1.0000 0.1309790985
H   H72       1.0  0.70333  0.08808  0.76289  1.0000 0.1181103825
H   H73       1.0  0.67901  0.74497  0.80730  1.0000 0.1181103825
H   H74       1.0  0.36841  0.87678  0.69042  1.0000 0.1181103825
H   H75       1.0  0.78104  0.12611  0.22091  1.0000 0.1181103825
H   H76       1.0  0.75981  0.88978  0.68962  1.0000 0.1181103825
H   H77       1.0  0.13332  0.58444  0.83446  1.0000 0.1309790985
H   H78       1.0  0.73972  0.56630  0.82843  1.0000 0.1309790985
H   H79       1.0  0.55167  0.91464  0.66571  1.0000 0.1181103825
H   H80       1.0  0.94986  0.54045  0.84744  1.0000 0.1111794833
H   H81       1.0  0.64062  0.51233  0.56735  1.0000 0.1181103825
H   H82       1.0  0.64484  0.63682  0.53712  1.0000 0.1181103825
H   H83       1.0  0.68011  0.46321  0.62049  1.0000 0.1181103825
H   H84       1.0  0.81137  0.48310  0.37268  1.0000 0.1111794833
H   H85       1.0  0.54189  0.40110  0.42237  1.0000 0.1111794833
H   H86       1.0  0.71008  0.67546  0.59390  1.0000 0.1111794833
H   H87       1.0  0.53082  0.56249  0.45546  1.0000 0.1111794833
H   H88       1.0  0.86223  0.64087  0.47285  1.0000 0.1181103825
H   H89       1.0  0.96181  0.54982  0.54924  1.0000 0.1111794833
H   H90       1.0  0.37797  0.69349  0.38867  1.0000 0.1309790985
H   H91       1.0  0.95206  0.39064  0.56435  1.0000 0.1111794833
H   H92       1.0  0.84796  0.52498  0.42963  1.0000 0.1111794833
H   H93       1.0  0.79254  0.69288  0.42418  1.0000 0.1181103825
H   H94       1.0  0.91087  0.43928  0.51038  1.0000 0.1111794833
H   H95       1.0  0.74169  0.45603  0.31956  1.0000 0.1309790985
H   H96       1.0  0.82158  0.72152  0.71418  1.0000 0.1181103825
H   H97       1.0  0.58780  0.44071  0.48122  1.0000 0.1111794833
H   H98       1.0  0.60018  0.72310  0.24347  1.0000 0.1111794833
H   H99       1.0  0.12118  0.66474  0.63216  1.0000 0.1309790985
H   H100      1.0  0.18605  0.71033  0.68539  1.0000 0.1004030989
H   H101      1.0  0.03594  0.59271  0.60397  1.0000 0.1111794833
H   H102      1.0  0.54792  0.35266  0.37442  1.0000 0.1309790985
H   H103      1.0  0.74583  0.67839  0.66086  1.0000 0.1309790985
H   H104      1.0  0.89548  0.81307  0.28441  1.0000 0.1181103825
H   H105      1.0  0.31534  0.74359  0.33744  1.0000 0.1111794833
H   H106      1.0  0.94181  0.33430  0.60479  1.0000 0.1309790985
H   H107      1.0  0.45696  0.61579  0.40764  1.0000 0.1111794833
H   H108      1.0  0.96985  0.28471  0.65782  1.0000 0.1181103825
H   H109      1.0  0.52153  0.31233  0.31731  1.0000 0.1111794833
H   H110      1.0  0.74835  0.42778  0.67150  1.0000 0.1357000686
H   H111      1.0  0.75252  0.70544  0.35748  1.0000 0.1309790985
H   H112      1.0  0.70333  0.41192  0.26289  1.0000 0.1181103825
H   H113      1.0  0.67901  0.75503  0.30730  1.0000 0.1181103825
H   H114      1.0  0.36841  0.62322  0.19042  1.0000 0.1181103825
H   H115      1.0  0.78104  0.37389  0.72091  1.0000 0.1181103825
H   H116      1.0  0.75981  0.61022  0.18962  1.0000 0.1181103825
H   H117      1.0  0.13332  0.91556  0.33446  1.0000 0.1309790985
H   H118      1.0  0.73972  0.93370  0.32843  1.0000 0.1309790985
H   H119      1.0  0.55167  0.58536  0.16571  1.0000 0.1111794833
H   H120      1.0  0.94986  0.95955  0.34744  1.0000 0.1111794833
H   H121      1.0  0.35938  0.01233  0.93265  1.0000 0.1181103825
H   H122      1.0  0.35516  0.13682  0.96288  1.0000 0.1181103825
H   H123      1.0  0.31989  0.96321  0.87951  1.0000 0.1111794833
H   H124      1.0  0.18863  0.98310  0.12732  1.0000 0.1111794833
H   H125      1.0  0.45811  0.90110  0.07763  1.0000 0.1111794833
H   H126      1.0  0.28992  0.17546  0.90610  1.0000 0.1111794833
H   H127      1.0  0.46918  0.06249  0.04454  1.0000 0.1111794833
H   H128      1.0  0.13777  0.14087  0.02715  1.0000 0.1181103825
H   H129      1.0  0.03819  0.04982  0.95076  1.0000 0.1111794833
H   H130      1.0  0.62203  0.19349  0.11133  1.0000 0.1309790985
H   H131      1.0  0.04794  0.89064  0.93565  1.0000 0.1111794833
H   H132      1.0  0.15204  0.02498  0.07037  1.0000 0.1111794833
H   H133      1.0  0.20746  0.19288  0.07582  1.0000 0.1181103825
H   H134      1.0  0.08913  0.93928  0.98962  1.0000 0.1181103825
H   H135      1.0  0.25831  0.95603  0.18044  1.0000 0.1309790985
H   H136      1.0  0.17842  0.22152  0.78582  1.0000 0.1181103825
H   H137      1.0  0.41220  0.94071  0.01878  1.0000 0.1111794833
H   H138      1.0  0.39982  0.22310  0.25653  1.0000 0.1111794833
H   H139      1.0  0.87882  0.16474  0.86784  1.0000 0.1309790985
H   H140      1.0  0.81395  0.21033  0.81461  1.0000 0.1004030989
H   H141      1.0  0.96406  0.09271  0.89603  1.0000 0.1111794833
H   H142      1.0  0.45208  0.85266  0.12558  1.0000 0.1309790985
H   H143      1.0  0.25417  0.17839  0.83914  1.0000 0.1309790985
H   H144      1.0  0.10452  0.31307  0.21559  1.0000 0.1181103825
H   H145      1.0  0.68466  0.24359  0.16256  1.0000 0.1111794833
H   H146      1.0  0.05819  0.83430  0.89521  1.0000 0.1309790985
H   H147      1.0  0.54304  0.11579  0.09236  1.0000 0.1111794833
H   H148      1.0  0.03015  0.78471  0.84218  1.0000 0.1181103825
H   H149      1.0  0.47847  0.81233  0.18269  1.0000 0.1111794833
H   H150      1.0  0.25165  0.92778  0.82850  1.0000 0.1357000686
H   H151      1.0  0.24748  0.20544  0.14252  1.0000 0.1309790985
H   H152      1.0  0.29667  0.91192  0.23711  1.0000 0.1181103825
H   H153      1.0  0.32099  0.25503  0.19270  1.0000 0.1181103825
H   H154      1.0  0.63159  0.12322  0.30958  1.0000 0.1181103825
H   H155      1.0  0.21896  0.87389  0.77909  1.0000 0.1181103825
H   H156      1.0  0.24019  0.11022  0.31038  1.0000 0.1181103825
H   H157      1.0  0.86668  0.41556  0.16554  1.0000 0.1309790985
H   H158      1.0  0.26028  0.43370  0.17157  1.0000 0.1309790985
H   H159      1.0  0.44833  0.08536  0.33429  1.0000 0.1111794833
H   H160      1.0  0.05014  0.45955  0.15256  1.0000 0.1111794833
C   C1        1.0  0.25100  0.43703  0.49849  1.0000 -0.0304200398
C   C2        1.0  0.29640  0.51211  0.43345  1.0000 -0.1419554617
C   C3        1.0  0.65430  0.29248  0.77565  1.0000 0.575219018
C   C4        1.0  0.27830  0.37294  0.44916  1.0000 -0.1514628878
C   C5        1.0  0.27310  0.54177  0.40153  1.0000 -0.1419554617
C   C6        1.0  0.23530  0.52522  0.60591  1.0000 -0.1514628878
C   C7        1.0  0.39480  0.57448  0.57617  1.0000 -0.1514628878
C   C8        1.0  0.27850  0.51234  0.53836  1.0000 0.0687584486
C   C9        1.0  0.29700  0.40522  0.53116  1.0000 0.0687584486
C   C10       1.0  0.23720  0.34894  0.41556  1.0000 -0.1419554617
C   C11       1.0  0.25170  0.48733  0.50108  1.0000 -0.0304200398
C   C12       1.0  0.41630  0.41137  0.55069  1.0000 -0.1419554617
C   C13       1.0  0.20520  0.41167  0.46259  1.0000 0.0687584486
C   C14       1.0  0.32850  0.56296  0.60867  1.0000 0.0586111824
C   C15       1.0  0.21830  0.36452  0.54064  1.0000 -0.1558544509
C   C16       1.0  0.22710  0.51832  0.46660  1.0000 0.0687584486
C   C17       1.0  0.15760  0.61155  0.36892  1.0000 0.1181103825
C   C18       1.0  0.08780  0.42435  0.44221  1.0000 -0.1419554617
C   C19       1.0  0.38140  0.33979  0.58959  1.0000 0.0586111824
C   C20       1.0  0.55890  0.29434  0.62728  1.0000 -0.2005593957
C   C21       1.0  0.11150  0.58509  0.43497  1.0000 -0.1514628878
C   C22       1.0  0.21260  0.50036  0.57149  1.0000 -0.1419554617
C   C23       1.0  0.07340  0.33376  0.36050  1.0000 0.1181103825
C   C24       1.0  0.96810  0.14107  0.69253  1.0000 -0.0204240849
C   C25       1.0  0.26070  0.33313  0.56960  1.0000 -0.1419554617
C   C26       1.0  0.11980  0.36058  0.39593  1.0000 0.0586111824
C   C27       1.0  0.13510  0.55546  0.46748  1.0000 -0.1514628878
C   C28       1.0  0.17990  0.57910  0.40211  1.0000 0.0468487792
C   C29       1.0  0.30430  0.57311  0.67998  1.0000 -0.2005593957
C   C30       1.0  0.11740  0.29050  0.30251  1.0000 0.1111794833
C   C31       1.0  0.35130  0.59019  0.64562  1.0000 0.1181103825
C   C32       1.0  0.16350  0.31719  0.76459  1.0000 0.5410542913
C   C33       1.0  0.36880  0.55003  0.54057  1.0000 -0.1514628878
C   C34       1.0  0.40890  0.30519  0.77100  1.0000 -0.1341476463
C   C35       1.0  0.94240  0.32387  0.35169  1.0000 -0.2005593957
C   C36       1.0  0.90300  0.29722  0.31916  1.0000 0.1004030989
C   C37       1.0  0.04340  0.39891  0.40913  1.0000 -0.1419554617
C   C38       1.0  0.33700  0.14593  0.71042  1.0000 0.5410542913
C   C39       1.0  0.41800  0.63418  0.64765  1.0000 -0.2184306256
C   C40       1.0  0.16400  0.31612  0.33467  1.0000 -0.2005593957
C   C41       1.0  0.09270  0.15705  0.70349  1.0000 -0.1419554617
C   C42       1.0  0.59530  0.26333  0.65796  1.0000 0.1004030989
C   C43       1.0  0.42650  0.30652  0.62119  1.0000 0.1181103825
C   C44       1.0  0.09060  0.65621  0.37178  1.0000 -0.212056613
C   C45       1.0  0.84860  0.17165  0.70095  1.0000 0.5582972594
C   C46       1.0  0.46090  0.37944  0.57960  1.0000 -0.1419554617
C   C47       1.0  0.07340  0.68583  0.33960  1.0000 0.0687584486
C   C48       1.0  0.43350  0.65828  0.68240  1.0000 0.0917290762
C   C49       1.0  0.20570  0.60081  0.33241  1.0000 -0.212056613
C   C50       1.0  0.33700  0.28714  0.64589  1.0000 -0.1890596286
C   C51       1.0  0.53620  0.32082  0.78552  1.0000 -0.0604153847
C   C52       1.0  0.29790  0.33282  0.77874  1.0000 -0.0354371019
C   C53       1.0  0.32690  0.60030  0.71418  1.0000 0.0917290762
C   C54       1.0  0.38160  0.25658  0.67572  1.0000 0.1004030989
C   C55       1.0  0.20250  0.12785  0.69627  1.0000 -0.0204240849
C   C56       1.0  0.54770  0.36367  0.80470  1.0000 -0.0784640726
C   C57       1.0  0.18330  0.63349  0.30256  1.0000 0.1111794833
C   C58       1.0  0.31470  0.37300  0.80320  1.0000 -0.0784640726
C   C59       1.0  0.95070  0.09578  0.67302  1.0000 -0.1016217576
C   C60       1.0  0.18710  0.08497  0.67701  1.0000 -0.0888855182
C   C61       1.0  0.43870  0.38870  0.81730  1.0000 -0.1207828544
C   C62       1.0  0.06050  0.06970  0.66569  1.0000 -0.1016217576
C   C63       1.0  0.74900  0.93703  0.00151  1.0000 -0.0304200398
C   C64       1.0  0.70360  0.01211  0.06655  1.0000 -0.1419554617
C   C65       1.0  0.34570  0.79248  0.72435  1.0000 0.5746766157
C   C66       1.0  0.72170  0.87294  0.05084  1.0000 -0.1514628878
C   C67       1.0  0.72690  0.04177  0.09847  1.0000 -0.1419554617
C   C68       1.0  0.76470  0.02522  0.89409  1.0000 -0.1514628878
C   C69       1.0  0.60520  0.07448  0.92383  1.0000 -0.1514628878
C   C70       1.0  0.72150  0.01234  0.96164  1.0000 0.0687584486
C   C71       1.0  0.70300  0.90522  0.96884  1.0000 0.0687584486
C   C72       1.0  0.76280  0.84894  0.08444  1.0000 -0.1419554617
C   C73       1.0  0.74830  0.98733  0.99892  1.0000 -0.0304200398
C   C74       1.0  0.58370  0.91137  0.94931  1.0000 -0.1419554617
C   C75       1.0  0.79480  0.91167  0.03741  1.0000 0.0687584486
C   C76       1.0  0.67150  0.06296  0.89133  1.0000 0.0586111824
C   C77       1.0  0.78170  0.86452  0.95936  1.0000 -0.1558544509
C   C78       1.0  0.77290  0.01832  0.03340  1.0000 0.0687584486
C   C79       1.0  0.84240  0.11155  0.13108  1.0000 0.1181103825
C   C80       1.0  0.91220  0.92435  0.05779  1.0000 -0.1419554617
C   C81       1.0  0.61860  0.83979  0.91041  1.0000 0.0586111824
C   C82       1.0  0.44110  0.79434  0.87272  1.0000 -0.2005593957
C   C83       1.0  0.88850  0.08509  0.06503  1.0000 -0.1514628878
C   C84       1.0  0.78740  0.00036  0.92851  1.0000 -0.1419554617
C   C85       1.0  0.92660  0.83376  0.13950  1.0000 0.1181103825
C   C86       1.0  0.03190  0.64107  0.80747  1.0000 -0.0204240849
C   C87       1.0  0.73930  0.83313  0.93040  1.0000 -0.1419554617
C   C88       1.0  0.88020  0.86058  0.10407  1.0000 0.0586111824
C   C89       1.0  0.86490  0.05546  0.03252  1.0000 -0.1514628878
C   C90       1.0  0.82010  0.07910  0.09789  1.0000 0.0468487792
C   C91       1.0  0.69570  0.07311  0.82002  1.0000 -0.2005593957
C   C92       1.0  0.88260  0.79050  0.19749  1.0000 0.1111794833
C   C93       1.0  0.64870  0.09019  0.85438  1.0000 0.1181103825
C   C94       1.0  0.83650  0.81719  0.73541  1.0000 0.5410542913
C   C95       1.0  0.63120  0.05003  0.95943  1.0000 -0.1514628878
C   C96       1.0  0.59110  0.80519  0.72900  1.0000 -0.1341476463
C   C97       1.0  0.05760  0.82387  0.14831  1.0000 -0.2005593957
C   C98       1.0  0.09700  0.79722  0.18084  1.0000 0.1004030989
C   C99       1.0  0.95660  0.89891  0.09087  1.0000 -0.1419554617
C   C100      1.0  0.66300  0.64593  0.78958  1.0000 0.5410542913
C   C101      1.0  0.58200  0.13418  0.85235  1.0000 -0.2184306256
C   C102      1.0  0.83600  0.81612  0.16533  1.0000 -0.2005593957
C   C103      1.0  0.90730  0.65705  0.79651  1.0000 -0.1419554617
C   C104      1.0  0.40470  0.76333  0.84204  1.0000 0.1004030989
C   C105      1.0  0.57350  0.80652  0.87881  1.0000 0.1181103825
C   C106      1.0  0.90940  0.15621  0.12822  1.0000 -0.212056613
C   C107      1.0  0.15140  0.67165  0.79905  1.0000 0.5582972594
C   C108      1.0  0.53910  0.87944  0.92040  1.0000 -0.1419554617
C   C109      1.0  0.92660  0.18583  0.16040  1.0000 0.0687584486
C   C110      1.0  0.56650  0.15828  0.81760  1.0000 0.0917290762
C   C111      1.0  0.79430  0.10081  0.16759  1.0000 -0.212056613
C   C112      1.0  0.66300  0.78714  0.85411  1.0000 -0.1890596286
C   C113      1.0  0.46380  0.82082  0.71448  1.0000 -0.0604153847
C   C114      1.0  0.70210  0.83282  0.72126  1.0000 -0.0354371019
C   C115      1.0  0.67310  0.10030  0.78582  1.0000 0.0917290762
C   C116      1.0  0.61840  0.75658  0.82428  1.0000 0.1004030989
C   C117      1.0  0.79750  0.62785  0.80373  1.0000 -0.0204240849
C   C118      1.0  0.45230  0.86367  0.69530  1.0000 -0.0784640726
C   C119      1.0  0.81670  0.13349  0.19744  1.0000 0.1111794833
C   C120      1.0  0.68530  0.87300  0.69680  1.0000 -0.0784640726
C   C121      1.0  0.04930  0.59578  0.82698  1.0000 -0.1016217576
C   C122      1.0  0.81290  0.58497  0.82299  1.0000 -0.0888855182
C   C123      1.0  0.56130  0.88870  0.68270  1.0000 -0.1207828544
C   C124      1.0  0.93950  0.56970  0.83431  1.0000 -0.1016217576
C   C125      1.0  0.74900  0.56297  0.50151  1.0000 -0.0304200398
C   C126      1.0  0.70360  0.48789  0.56655  1.0000 -0.1419554617
C   C127      1.0  0.34570  0.70752  0.22435  1.0000 0.575219018
C   C128      1.0  0.72170  0.62706  0.55084  1.0000 -0.1514628878
C   C129      1.0  0.72690  0.45823  0.59847  1.0000 -0.1419554617
C   C130      1.0  0.76470  0.47478  0.39409  1.0000 -0.1514628878
C   C131      1.0  0.60520  0.42552  0.42383  1.0000 -0.1514628878
C   C132      1.0  0.72150  0.48766  0.46164  1.0000 0.0687584486
C   C133      1.0  0.70300  0.59478  0.46884  1.0000 0.0687584486
C   C134      1.0  0.76280  0.65106  0.58444  1.0000 -0.1419554617
C   C135      1.0  0.74830  0.51267  0.49892  1.0000 -0.0304200398
C   C136      1.0  0.58370  0.58863  0.44931  1.0000 -0.1419554617
C   C137      1.0  0.79480  0.58833  0.53741  1.0000 0.0687584486
C   C138      1.0  0.67150  0.43704  0.39133  1.0000 0.0586111824
C   C139      1.0  0.78170  0.63548  0.45936  1.0000 -0.1514628878
C   C140      1.0  0.77290  0.48168  0.53340  1.0000 0.0687584486
C   C141      1.0  0.84240  0.38845  0.63108  1.0000 0.1181103825
C   C142      1.0  0.91220  0.57565  0.55779  1.0000 -0.1419554617
C   C143      1.0  0.61860  0.66021  0.41041  1.0000 0.0586111824
C   C144      1.0  0.44110  0.70566  0.37272  1.0000 -0.2005593957
C   C145      1.0  0.88850  0.41491  0.56503  1.0000 -0.1514628878
C   C146      1.0  0.78740  0.49964  0.42851  1.0000 -0.1419554617
C   C147      1.0  0.92660  0.66624  0.63950  1.0000 0.1181103825
C   C148      1.0  0.03190  0.85893  0.30747  1.0000 -0.0204240849
C   C149      1.0  0.73930  0.66687  0.43040  1.0000 -0.1419554617
C   C150      1.0  0.88020  0.63942  0.60407  1.0000 0.0586111824
C   C151      1.0  0.86490  0.44454  0.53252  1.0000 -0.1514628878
C   C152      1.0  0.82010  0.42090  0.59789  1.0000 0.0468487792
C   C153      1.0  0.69570  0.42689  0.32002  1.0000 -0.2005593957
C   C154      1.0  0.88260  0.70950  0.69749  1.0000 0.1111794833
C   C155      1.0  0.64870  0.40981  0.35438  1.0000 0.1181103825
C   C156      1.0  0.83650  0.68281  0.23541  1.0000 0.5410542913
C   C157      1.0  0.63120  0.44997  0.45943  1.0000 -0.1514628878
C   C158      1.0  0.59110  0.69481  0.22900  1.0000 -0.1341476463
C   C159      1.0  0.05760  0.67613  0.64831  1.0000 -0.2005593957
C   C160      1.0  0.09700  0.70278  0.68084  1.0000 0.1004030989
C   C161      1.0  0.95660  0.60109  0.59087  1.0000 -0.1419554617
C   C162      1.0  0.66300  0.85407  0.28958  1.0000 0.5410542913
C   C163      1.0  0.58200  0.36582  0.35235  1.0000 -0.2184306256
C   C164      1.0  0.83600  0.68388  0.66533  1.0000 -0.2005593957
C   C165      1.0  0.90730  0.84295  0.29651  1.0000 -0.1419554617
C   C166      1.0  0.40470  0.73667  0.34204  1.0000 0.1004030989
C   C167      1.0  0.57350  0.69348  0.37881  1.0000 0.1181103825
C   C168      1.0  0.90940  0.34379  0.62822  1.0000 -0.212056613
C   C169      1.0  0.15140  0.82835  0.29905  1.0000 0.5582972594
C   C170      1.0  0.53910  0.62056  0.42040  1.0000 -0.1419554617
C   C171      1.0  0.92660  0.31417  0.66040  1.0000 0.0687584486
C   C172      1.0  0.56650  0.34172  0.31760  1.0000 0.0917290762
C   C173      1.0  0.79430  0.39919  0.66759  1.0000 -0.212056613
C   C174      1.0  0.66300  0.71286  0.35411  1.0000 -0.1890596286
C   C175      1.0  0.46380  0.67918  0.21448  1.0000 -0.0604153847
C   C176      1.0  0.70210  0.66718  0.22126  1.0000 -0.0304200398
C   C177      1.0  0.67310  0.39970  0.28582  1.0000 0.0917290762
C   C178      1.0  0.61840  0.74342  0.32428  1.0000 0.1004030989
C   C179      1.0  0.79750  0.87215  0.30373  1.0000 -0.0204240849
C   C180      1.0  0.45230  0.63633  0.19530  1.0000 -0.0784640726
C   C181      1.0  0.81670  0.36651  0.69744  1.0000 0.1111794833
C   C182      1.0  0.68530  0.62700  0.19680  1.0000 -0.0784640726
C   C183      1.0  0.04930  0.90422  0.32698  1.0000 -0.1016217576
C   C184      1.0  0.81290  0.91503  0.32299  1.0000 -0.0888855182
C   C185      1.0  0.56130  0.61130  0.18270  1.0000 -0.1207828544
C   C186      1.0  0.93950  0.93030  0.33431  1.0000 -0.1016217576
C   C187      1.0  0.25100  0.06297  0.99849  1.0000 -0.0304200398
C   C188      1.0  0.29640  0.98789  0.93345  1.0000 -0.1419554617
C   C189      1.0  0.65430  0.20752  0.27565  1.0000 0.5746766157
C   C190      1.0  0.27830  0.12706  0.94916  1.0000 -0.1514628878
C   C191      1.0  0.27310  0.95823  0.90153  1.0000 -0.1419554617
C   C192      1.0  0.23530  0.97478  0.10591  1.0000 -0.1514628878
C   C193      1.0  0.39480  0.92552  0.07617  1.0000 -0.1514628878
C   C194      1.0  0.27850  0.98766  0.03836  1.0000 0.0687584486
C   C195      1.0  0.29700  0.09478  0.03116  1.0000 0.0687584486
C   C196      1.0  0.23720  0.15106  0.91556  1.0000 -0.1419554617
C   C197      1.0  0.25170  0.01267  0.00108  1.0000 -0.0304200398
C   C198      1.0  0.41630  0.08863  0.05069  1.0000 -0.1419554617
C   C199      1.0  0.20520  0.08833  0.96259  1.0000 0.0687584486
C   C200      1.0  0.32850  0.93704  0.10867  1.0000 0.0586111824
C   C201      1.0  0.21830  0.13548  0.04064  1.0000 -0.1514628878
C   C202      1.0  0.22710  0.98168  0.96660  1.0000 0.0687584486
C   C203      1.0  0.15760  0.88845  0.86892  1.0000 0.1181103825
C   C204      1.0  0.08780  0.07565  0.94221  1.0000 -0.1419554617
C   C205      1.0  0.38140  0.16021  0.08959  1.0000 0.0586111824
C   C206      1.0  0.55890  0.20566  0.12728  1.0000 -0.2005593957
C   C207      1.0  0.11150  0.91491  0.93497  1.0000 -0.1514628878
C   C208      1.0  0.21260  0.99964  0.07149  1.0000 -0.1419554617
C   C209      1.0  0.07340  0.16624  0.86050  1.0000 0.1181103825
C   C210      1.0  0.96810  0.35893  0.19253  1.0000 -0.0204240849
C   C211      1.0  0.26070  0.16687  0.06960  1.0000 -0.1419554617
C   C212      1.0  0.11980  0.13942  0.89593  1.0000 0.0586111824
C   C213      1.0  0.13510  0.94454  0.96748  1.0000 -0.1514628878
C   C214      1.0  0.17990  0.92090  0.90211  1.0000 0.0468487792
C   C215      1.0  0.30430  0.92689  0.17998  1.0000 -0.2005593957
C   C216      1.0  0.11740  0.20950  0.80251  1.0000 0.1111794833
C   C217      1.0  0.35130  0.90981  0.14562  1.0000 0.1181103825
C   C218      1.0  0.16350  0.18281  0.26459  1.0000 0.5410542913
C   C219      1.0  0.36880  0.94997  0.04057  1.0000 -0.1514628878
C   C220      1.0  0.40890  0.19481  0.27100  1.0000 -0.1341476463
C   C221      1.0  0.94240  0.17613  0.85169  1.0000 -0.2005593957
C   C222      1.0  0.90300  0.20278  0.81916  1.0000 0.1004030989
C   C223      1.0  0.04340  0.10109  0.90913  1.0000 -0.1419554617
C   C224      1.0  0.33700  0.35407  0.21042  1.0000 0.5410542913
C   C225      1.0  0.41800  0.86582  0.14765  1.0000 -0.2184306256
C   C226      1.0  0.16400  0.18388  0.83467  1.0000 -0.2005593957
C   C227      1.0  0.09270  0.34295  0.20349  1.0000 -0.1419554617
C   C228      1.0  0.59530  0.23667  0.15796  1.0000 0.1004030989
C   C229      1.0  0.42650  0.19348  0.12119  1.0000 0.1181103825
C   C230      1.0  0.09060  0.84379  0.87178  1.0000 -0.212056613
C   C231      1.0  0.84860  0.32835  0.20095  1.0000 0.5582972594
C   C232      1.0  0.46090  0.12056  0.07960  1.0000 -0.1419554617
C   C233      1.0  0.07340  0.81417  0.83960  1.0000 0.0687584486
C   C234      1.0  0.43350  0.84172  0.18240  1.0000 0.0917290762
C   C235      1.0  0.20570  0.89919  0.83241  1.0000 -0.212056613
C   C236      1.0  0.33700  0.21286  0.14589  1.0000 -0.1890596286
C   C237      1.0  0.53620  0.17918  0.28552  1.0000 -0.0604153847
C   C238      1.0  0.29790  0.16718  0.27874  1.0000 -0.0304200398
C   C239      1.0  0.32690  0.89970  0.21418  1.0000 0.0917290762
C   C240      1.0  0.38160  0.24342  0.17572  1.0000 0.1004030989
C   C241      1.0  0.20250  0.37215  0.19627  1.0000 -0.0204240849
C   C242      1.0  0.54770  0.13633  0.30470  1.0000 -0.0784640726
C   C243      1.0  0.18330  0.86651  0.80256  1.0000 0.1111794833
C   C244      1.0  0.31470  0.12700  0.30320  1.0000 -0.0784640726
C   C245      1.0  0.95070  0.40422  0.17302  1.0000 -0.1016217576
C   C246      1.0  0.18710  0.41503  0.17701  1.0000 -0.0888855182
C   C247      1.0  0.43870  0.11130  0.31730  1.0000 -0.1207828544
C   C248      1.0  0.06050  0.43030  0.16569  1.0000 -0.1016217576
N   N1        1.0  0.11680  0.67374  0.30441  1.0000 -0.2352891066
N   N2        1.0  0.38970  0.64284  0.71501  1.0000 -0.2287698019
N   N3        1.0  0.50960  0.24307  0.68102  1.0000 -0.2490368545
N   N4        1.0  0.99000  0.28221  0.29429  1.0000 -0.2287698019
N   N5        1.0  0.88320  0.17374  0.19559  1.0000 -0.2352891066
N   N6        1.0  0.61030  0.14284  0.78499  1.0000 -0.2287698019
N   N7        1.0  0.49040  0.74307  0.81898  1.0000 -0.2490368545
N   N8        1.0  0.01000  0.78221  0.20571  1.0000 -0.2287698019
N   N9        1.0  0.88320  0.32626  0.69559  1.0000 -0.2352891066
N   N10       1.0  0.61030  0.35716  0.28499  1.0000 -0.2287698019
N   N11       1.0  0.49040  0.75693  0.31898  1.0000 -0.2490368545
N   N12       1.0  0.01000  0.71779  0.70571  1.0000 -0.2287698019
N   N13       1.0  0.11680  0.82626  0.80441  1.0000 -0.2352891066
N   N14       1.0  0.38970  0.85716  0.21501  1.0000 -0.2287698019
N   N15       1.0  0.50960  0.25693  0.18102  1.0000 -0.2490368545
N   N16       1.0  0.99000  0.21779  0.79429  1.0000 -0.2287698019
O   O1        1.0  0.34680  0.17851  0.73673  1.0000 -0.5794873111
O   O2        1.0  0.64550  0.24788  0.76611  1.0000 -0.6143756382
O   O3        1.0  0.86150  0.21499  0.70532  1.0000 -0.558871793
O   O4        1.0  0.15600  0.28439  0.73796  1.0000 -0.5866707735
O   O5        1.0  0.74090  0.14920  0.70121  1.0000 -0.5242003672
O   O6        1.0  0.06540  0.33363  0.78035  1.0000 -0.536219003
O   O7        1.0  0.76530  0.31552  0.77914  1.0000 -0.5492949061
O   O8        1.0  0.43610  0.12793  0.69684  1.0000 -0.5242003672
O   O9        1.0  0.65320  0.67851  0.76327  1.0000 -0.5794873111
O   O10       1.0  0.35450  0.74788  0.73389  1.0000 -0.6143756382
O   O11       1.0  0.13850  0.71499  0.79468  1.0000 -0.558871793
O   O12       1.0  0.84400  0.78439  0.76204  1.0000 -0.5866707735
O   O13       1.0  0.25910  0.64920  0.79879  1.0000 -0.5242003672
O   O14       1.0  0.93460  0.83363  0.71965  1.0000 -0.536219003
O   O15       1.0  0.23470  0.81552  0.72086  1.0000 -0.5492949061
O   O16       1.0  0.56390  0.62793  0.80316  1.0000 -0.5242003672
O   O17       1.0  0.65320  0.82149  0.26327  1.0000 -0.5794873111
O   O18       1.0  0.35450  0.75212  0.23389  1.0000 -0.6143756382
O   O19       1.0  0.13850  0.78501  0.29468  1.0000 -0.558871793
O   O20       1.0  0.84400  0.71561  0.26204  1.0000 -0.5866707735
O   O21       1.0  0.25910  0.85080  0.29879  1.0000 -0.5242003672
O   O22       1.0  0.93460  0.66637  0.21965  1.0000 -0.536219003
O   O23       1.0  0.23470  0.68448  0.22086  1.0000 -0.5492949061
O   O24       1.0  0.56390  0.87207  0.30316  1.0000 -0.5242003672
O   O25       1.0  0.34680  0.32149  0.23673  1.0000 -0.5794873111
O   O26       1.0  0.64550  0.25212  0.26611  1.0000 -0.6143756382
O   O27       1.0  0.86150  0.28501  0.20532  1.0000 -0.558871793
O   O28       1.0  0.15600  0.21561  0.23796  1.0000 -0.5866707735
O   O29       1.0  0.74090  0.35080  0.20121  1.0000 -0.5242003672
O   O30       1.0  0.06540  0.16637  0.28035  1.0000 -0.536219003
O   O31       1.0  0.76530  0.18448  0.27914  1.0000 -0.5492949061
O   O32       1.0  0.43610  0.37207  0.19684  1.0000 -0.5242003672
