# DDEC6 charges by PACMAN v1.1 (https://github.com/mtap-research/PACMAN-charge/)
data_2019[Cu][bto]3[FSR]3
_chemical_formula_sum              "Cu6 H36 C42 N18 O18"
_cell_length_a       10.6489
_cell_length_b       10.6489
_cell_length_c       16.8523
_cell_angle_alpha    90
_cell_angle_beta     90
_cell_angle_gamma    120

_symmetry_space_group_name_H-M    "P 1"
_symmetry_Int_Tables_number       1

loop_
  _symmetry_equiv_pos_as_xyz
  'x, y, z'

loop_
  _atom_site_type_symbol
  _atom_site_label
  _atom_site_symmetry_multiplicity
  _atom_site_fract_x
  _atom_site_fract_y
  _atom_site_fract_z
  _atom_site_occupancy
  _atom_site_charge
Cu  Cu1       1.0  0.71192  0.13479  0.46983  1.0000 0.7340629963
Cu  Cu2       1.0  0.86521  0.57713  0.80316  1.0000 0.7340629963
Cu  Cu3       1.0  0.42287  0.28808  0.13650  1.0000 0.7340629963
Cu  Cu4       1.0  0.13479  0.71192  0.53017  1.0000 0.7340629963
Cu  Cu5       1.0  0.57713  0.86521  0.19684  1.0000 0.7340629963
Cu  Cu6       1.0  0.28808  0.42287  0.86350  1.0000 0.7340629963
H   H1        1.0  0.60620  0.07500  0.75410  1.0000 0.3067724672
H   H2        1.0  0.67730  0.23670  0.64250  1.0000 0.1182961593
H   H3        1.0  0.58060  0.84080  0.71740  1.0000 0.1364576933
H   H4        1.0  0.62180  0.74060  0.57990  1.0000 0.1285230224
H   H5        1.0  0.75590  0.87280  0.53600  1.0000 0.1285230224
H   H6        1.0  0.57640  0.73190  0.44090  1.0000 0.0938952744
H   H7        1.0  0.92500  0.53120  0.08743  1.0000 0.3067724672
H   H8        1.0  0.76330  0.44060  0.97583  1.0000 0.1182961593
H   H9        1.0  0.15920  0.73980  0.05073  1.0000 0.1364576933
H   H10       1.0  0.25940  0.88120  0.91323  1.0000 0.1285230224
H   H11       1.0  0.12720  0.88310  0.86933  1.0000 0.1285230224
H   H12       1.0  0.26810  0.84450  0.77423  1.0000 0.0938952744
H   H13       1.0  0.46880  0.39380  0.42077  1.0000 0.3067724672
H   H14       1.0  0.55940  0.32270  0.30917  1.0000 0.1182961593
H   H15       1.0  0.26020  0.41940  0.38407  1.0000 0.1364576933
H   H16       1.0  0.11880  0.37820  0.24657  1.0000 0.1285230224
H   H17       1.0  0.11690  0.24410  0.20267  1.0000 0.1285230224
H   H18       1.0  0.15550  0.42360  0.10757  1.0000 0.0938952744
H   H19       1.0  0.07500  0.60620  0.24590  1.0000 0.3067724672
H   H20       1.0  0.23670  0.67730  0.35750  1.0000 0.1182961593
H   H21       1.0  0.84080  0.58060  0.28260  1.0000 0.1364576933
H   H22       1.0  0.74060  0.62180  0.42010  1.0000 0.1285230224
H   H23       1.0  0.87280  0.75590  0.46400  1.0000 0.1285230224
H   H24       1.0  0.73190  0.57640  0.55910  1.0000 0.0938952744
H   H25       1.0  0.53120  0.92500  0.91257  1.0000 0.3067724672
H   H26       1.0  0.44060  0.76330  0.02417  1.0000 0.1182961593
H   H27       1.0  0.73980  0.15920  0.94927  1.0000 0.1364576933
H   H28       1.0  0.88120  0.25940  0.08677  1.0000 0.1285230224
H   H29       1.0  0.88310  0.12720  0.13067  1.0000 0.1285230224
H   H30       1.0  0.84450  0.26810  0.22577  1.0000 0.0938952744
H   H31       1.0  0.39380  0.46880  0.57923  1.0000 0.3067724672
H   H32       1.0  0.32270  0.55940  0.69083  1.0000 0.1182961593
H   H33       1.0  0.41940  0.26020  0.61593  1.0000 0.1364576933
H   H34       1.0  0.37820  0.11880  0.75343  1.0000 0.1285230224
H   H35       1.0  0.24410  0.11690  0.79733  1.0000 0.1285230224
H   H36       1.0  0.42360  0.15550  0.89243  1.0000 0.0938952744
C   C1        1.0  0.39980  0.72630  0.49606  1.0000 0.557069199
C   C2        1.0  0.59980  0.92790  0.35347  1.0000 0.3455687133
C   C3        1.0  0.66030  0.14020  0.64275  1.0000 0.1722052214
C   C4        1.0  0.60760  0.92280  0.68453  1.0000 -0.1043480995
C   C5        1.0  0.64150  0.93590  0.60520  1.0000 0.1760134963
C   C6        1.0  0.65300  0.83270  0.55114  1.0000 -0.2930679204
C   C7        1.0  0.56050  0.80010  0.47451  1.0000 0.0265638721
C   C8        1.0  0.27370  0.67350  0.82939  1.0000 0.557069199
C   C9        1.0  0.07210  0.67190  0.68680  1.0000 0.3455687133
C   C10       1.0  0.85980  0.52010  0.97608  1.0000 0.1722052214
C   C11       1.0  0.07720  0.68480  0.01786  1.0000 -0.1051067891
C   C12       1.0  0.06410  0.70560  0.93853  1.0000 0.1760134963
C   C13       1.0  0.16730  0.82030  0.88447  1.0000 -0.2930679204
C   C14       1.0  0.19990  0.76040  0.80784  1.0000 0.0265638721
C   C15       1.0  0.32650  0.60020  0.16273  1.0000 0.557069199
C   C16       1.0  0.32810  0.40020  0.02014  1.0000 0.3455687133
C   C17       1.0  0.47990  0.33970  0.30942  1.0000 0.1722052214
C   C18       1.0  0.31520  0.39240  0.35120  1.0000 -0.1043480995
C   C19       1.0  0.29440  0.35850  0.27187  1.0000 0.1760134963
C   C20       1.0  0.17970  0.34700  0.21781  1.0000 -0.2930679204
C   C21       1.0  0.23960  0.43950  0.14118  1.0000 0.0265638721
C   C22       1.0  0.72630  0.39980  0.50394  1.0000 0.557069199
C   C23       1.0  0.92790  0.59980  0.64653  1.0000 0.3455687133
C   C24       1.0  0.14020  0.66030  0.35725  1.0000 0.1722052214
C   C25       1.0  0.92280  0.60760  0.31547  1.0000 -0.1043480995
C   C26       1.0  0.93590  0.64150  0.39480  1.0000 0.1760134963
C   C27       1.0  0.83270  0.65300  0.44886  1.0000 -0.2930679204
C   C28       1.0  0.80010  0.56050  0.52549  1.0000 0.0265638721
C   C29       1.0  0.67350  0.27370  0.17061  1.0000 0.557069199
C   C30       1.0  0.67190  0.07210  0.31320  1.0000 0.3455687133
C   C31       1.0  0.52010  0.85980  0.02392  1.0000 0.1722052214
C   C32       1.0  0.68480  0.07720  0.98214  1.0000 -0.1043480995
C   C33       1.0  0.70560  0.06410  0.06147  1.0000 0.1760134963
C   C34       1.0  0.82030  0.16730  0.11553  1.0000 -0.2930679204
C   C35       1.0  0.76040  0.19990  0.19216  1.0000 0.0265638721
C   C36       1.0  0.60020  0.32650  0.83727  1.0000 0.557069199
C   C37       1.0  0.40020  0.32810  0.97986  1.0000 0.3455687133
C   C38       1.0  0.33970  0.47990  0.69058  1.0000 0.1722052214
C   C39       1.0  0.39240  0.31520  0.64880  1.0000 -0.1043480995
C   C40       1.0  0.35850  0.29440  0.72813  1.0000 0.1760134963
C   C41       1.0  0.34700  0.17970  0.78219  1.0000 -0.2930679204
C   C42       1.0  0.43950  0.23960  0.85882  1.0000 0.0265638721
N   N1        1.0  0.61100  0.93450  0.43061  1.0000 -0.4136450819
N   N2        1.0  0.67160  0.07040  0.58052  1.0000 -0.3537364734
N   N3        1.0  0.62100  0.05250  0.70609  1.0000 -0.1810663846
N   N4        1.0  0.06550  0.67650  0.76394  1.0000 -0.4136450819
N   N5        1.0  0.92960  0.60120  0.91385  1.0000 -0.3537364734
N   N6        1.0  0.94750  0.56850  0.03942  1.0000 -0.1810663846
N   N7        1.0  0.32350  0.38900  0.09728  1.0000 -0.4136450819
N   N8        1.0  0.39880  0.32840  0.24719  1.0000 -0.3537364734
N   N9        1.0  0.43150  0.37900  0.37276  1.0000 -0.1810663846
N   N10       1.0  0.93450  0.61100  0.56939  1.0000 -0.4136450819
N   N11       1.0  0.07040  0.67160  0.41948  1.0000 -0.3537364734
N   N12       1.0  0.05250  0.62100  0.29391  1.0000 -0.1810663846
N   N13       1.0  0.67650  0.06550  0.23606  1.0000 -0.4136450819
N   N14       1.0  0.60120  0.92960  0.08615  1.0000 -0.3537364734
N   N15       1.0  0.56850  0.94750  0.96058  1.0000 -0.1810663846
N   N16       1.0  0.38900  0.32350  0.90272  1.0000 -0.4136450819
N   N17       1.0  0.32840  0.39880  0.75281  1.0000 -0.3537364734
N   N18       1.0  0.37900  0.43150  0.62724  1.0000 -0.1810663846
O   O1        1.0  0.34000  0.80300  0.49842  1.0000 -0.4976994229
O   O2        1.0  0.53870  0.81340  0.31041  1.0000 -0.4783654344
O   O3        1.0  0.33730  0.59280  0.51118  1.0000 -0.601895872
O   O4        1.0  0.19700  0.53700  0.83175  1.0000 -0.4976994229
O   O5        1.0  0.18660  0.72530  0.64374  1.0000 -0.4783654344
O   O6        1.0  0.40720  0.74450  0.84451  1.0000 -0.601895872
O   O7        1.0  0.46300  0.66000  0.16509  1.0000 -0.4976994229
O   O8        1.0  0.27470  0.46130  0.97708  1.0000 -0.4783654344
O   O9        1.0  0.25550  0.66270  0.17785  1.0000 -0.601895872
O   O10       1.0  0.80300  0.34000  0.50158  1.0000 -0.4976994229
O   O11       1.0  0.81340  0.53870  0.68959  1.0000 -0.4783654344
O   O12       1.0  0.59280  0.33730  0.48882  1.0000 -0.601895872
O   O13       1.0  0.53700  0.19700  0.16825  1.0000 -0.4976994229
O   O14       1.0  0.72530  0.18660  0.35626  1.0000 -0.4783654344
O   O15       1.0  0.74450  0.40720  0.15549  1.0000 -0.601895872
O   O16       1.0  0.66000  0.46300  0.83491  1.0000 -0.4976994229
O   O17       1.0  0.46130  0.27470  0.02292  1.0000 -0.4783654344
O   O18       1.0  0.66270  0.25550  0.82215  1.0000 -0.601895872
