# DDEC6 charges by PACMAN v1.1 (https://github.com/mtap-research/PACMAN-charge/)
data_2019[Cu][bto]3[FSR]4
_chemical_formula_sum              "Cu6 H36 C42 N18 O18"
_cell_length_a       10.802
_cell_length_b       10.802
_cell_length_c       16.933
_cell_angle_alpha    90
_cell_angle_beta     90
_cell_angle_gamma    120

_symmetry_space_group_name_H-M    "P 1"
_symmetry_Int_Tables_number       1

loop_
  _symmetry_equiv_pos_as_xyz
  'x, y, z'

loop_
  _atom_site_type_symbol
  _atom_site_label
  _atom_site_symmetry_multiplicity
  _atom_site_fract_x
  _atom_site_fract_y
  _atom_site_fract_z
  _atom_site_occupancy
  _atom_site_charge
Cu  Cu1       1.0  0.86537  0.28851  0.03019  1.0000 0.7407076854
Cu  Cu2       1.0  0.71149  0.57686  0.36352  1.0000 0.7407076854
Cu  Cu3       1.0  0.42314  0.13463  0.69686  1.0000 0.7407076854
Cu  Cu4       1.0  0.28851  0.86537  0.96981  1.0000 0.7407076854
Cu  Cu5       1.0  0.57686  0.71149  0.63648  1.0000 0.7407076854
Cu  Cu6       1.0  0.13463  0.42314  0.30314  1.0000 0.7407076854
H   H1        1.0  0.92380  0.39360  0.74630  1.0000 0.3079616029
H   H2        1.0  0.76710  0.32500  0.85780  1.0000 0.1206686471
H   H3        1.0  0.15800  0.41930  0.78290  1.0000 0.1383057583
H   H4        1.0  0.25890  0.37860  0.92010  1.0000 0.1279694052
H   H5        1.0  0.12820  0.24660  0.96380  1.0000 0.1279694052
H   H6        1.0  0.26750  0.42490  0.05970  1.0000 0.0926118542
H   H7        1.0  0.60640  0.53020  0.07963  1.0000 0.3079616029
H   H8        1.0  0.67500  0.44210  0.19113  1.0000 0.1206686471
H   H9        1.0  0.58070  0.73870  0.11623  1.0000 0.1383057583
H   H10       1.0  0.62140  0.88030  0.25343  1.0000 0.1279694052
H   H11       1.0  0.75340  0.88160  0.29713  1.0000 0.1279694052
H   H12       1.0  0.57510  0.84260  0.39303  1.0000 0.0926118542
H   H13       1.0  0.46980  0.07620  0.41297  1.0000 0.3079616029
H   H14       1.0  0.55790  0.23290  0.52447  1.0000 0.1206686471
H   H15       1.0  0.26130  0.84200  0.44957  1.0000 0.1383057583
H   H16       1.0  0.11970  0.74110  0.58677  1.0000 0.1279694052
H   H17       1.0  0.11840  0.87180  0.63047  1.0000 0.1279694052
H   H18       1.0  0.15740  0.73250  0.72637  1.0000 0.0926118542
H   H19       1.0  0.39360  0.92380  0.25370  1.0000 0.3079616029
H   H20       1.0  0.32500  0.76710  0.14220  1.0000 0.1206686471
H   H21       1.0  0.41930  0.15800  0.21710  1.0000 0.1383057583
H   H22       1.0  0.37860  0.25890  0.07990  1.0000 0.1279694052
H   H23       1.0  0.24660  0.12820  0.03620  1.0000 0.1279694052
H   H24       1.0  0.42490  0.26750  0.94030  1.0000 0.0926118542
H   H25       1.0  0.53020  0.60640  0.92037  1.0000 0.3079616029
H   H26       1.0  0.44210  0.67500  0.80887  1.0000 0.1206686471
H   H27       1.0  0.73870  0.58070  0.88377  1.0000 0.1383057583
H   H28       1.0  0.88030  0.62140  0.74657  1.0000 0.1279694052
H   H29       1.0  0.88160  0.75340  0.70287  1.0000 0.1279694052
H   H30       1.0  0.84260  0.57510  0.60697  1.0000 0.0926118542
H   H31       1.0  0.07620  0.46980  0.58703  1.0000 0.3079616029
H   H32       1.0  0.23290  0.55790  0.47553  1.0000 0.1206686471
H   H33       1.0  0.84200  0.26130  0.55043  1.0000 0.1383057583
H   H34       1.0  0.74110  0.11970  0.41323  1.0000 0.1279694052
H   H35       1.0  0.87180  0.11840  0.36953  1.0000 0.1279694052
H   H36       1.0  0.73250  0.15740  0.27363  1.0000 0.0926118542
C   C1        1.0  0.86200  0.34130  0.85730  1.0000 0.1815899907
C   C2        1.0  0.07730  0.39340  0.81570  1.0000 -0.1215850414
C   C3        1.0  0.06410  0.36180  0.89450  1.0000 0.1815899907
C   C4        1.0  0.16840  0.34810  0.94880  1.0000 -0.2836418402
C   C5        1.0  0.20080  0.44080  0.02590  1.0000 0.0279727552
C   C6        1.0  0.07250  0.40230  0.14640  1.0000 0.3557648558
C   C7        1.0  0.27460  0.60140  0.00430  1.0000 0.5665072698
C   C8        1.0  0.65870  0.52070  0.19063  1.0000 0.1815899907
C   C9        1.0  0.60660  0.68390  0.14903  1.0000 -0.1215850414
C   C10       1.0  0.63820  0.70230  0.22783  1.0000 0.1815899907
C   C11       1.0  0.65190  0.82030  0.28213  1.0000 -0.2836418402
C   C12       1.0  0.55920  0.76000  0.35923  1.0000 0.0279727552
C   C13       1.0  0.59770  0.67020  0.47973  1.0000 0.3557648558
C   C14       1.0  0.39860  0.67320  0.33763  1.0000 0.5665072698
C   C15       1.0  0.47930  0.13800  0.52397  1.0000 0.1815899907
C   C16       1.0  0.31610  0.92270  0.48237  1.0000 -0.1215850414
C   C17       1.0  0.29770  0.93590  0.56117  1.0000 0.1815899907
C   C18       1.0  0.17970  0.83160  0.61547  1.0000 -0.2836418402
C   C19       1.0  0.24000  0.79920  0.69257  1.0000 0.0279727552
C   C20       1.0  0.32980  0.92750  0.81307  1.0000 0.3557648558
C   C21       1.0  0.32680  0.72540  0.67097  1.0000 0.5665072698
C   C22       1.0  0.34130  0.86200  0.14270  1.0000 0.1815899907
C   C23       1.0  0.39340  0.07730  0.18430  1.0000 -0.1215850414
C   C24       1.0  0.36180  0.06410  0.10550  1.0000 0.1815899907
C   C25       1.0  0.34810  0.16840  0.05120  1.0000 -0.2836418402
C   C26       1.0  0.44080  0.20080  0.97410  1.0000 0.0279727552
C   C27       1.0  0.40230  0.07250  0.85360  1.0000 0.3557648558
C   C28       1.0  0.60140  0.27460  0.99570  1.0000 0.5665072698
C   C29       1.0  0.52070  0.65870  0.80937  1.0000 0.1815899907
C   C30       1.0  0.68390  0.60660  0.85097  1.0000 -0.1215850414
C   C31       1.0  0.70230  0.63820  0.77217  1.0000 0.1815899907
C   C32       1.0  0.82030  0.65190  0.71787  1.0000 -0.2836418402
C   C33       1.0  0.76000  0.55920  0.64077  1.0000 0.0279727552
C   C34       1.0  0.67020  0.59770  0.52027  1.0000 0.3557648558
C   C35       1.0  0.67320  0.39860  0.66237  1.0000 0.5665072698
C   C36       1.0  0.13800  0.47930  0.47603  1.0000 0.1815899907
C   C37       1.0  0.92270  0.31610  0.51763  1.0000 -0.1215850414
C   C38       1.0  0.93590  0.29770  0.43883  1.0000 0.1815899907
C   C39       1.0  0.83160  0.17970  0.38453  1.0000 -0.2836418402
C   C40       1.0  0.79920  0.24000  0.30743  1.0000 0.0279727552
C   C41       1.0  0.92750  0.32980  0.18693  1.0000 0.3557648558
C   C42       1.0  0.72540  0.32680  0.32903  1.0000 0.5665072698
N   N1        1.0  0.93050  0.32950  0.91950  1.0000 -0.359347731
N   N2        1.0  0.94680  0.37950  0.79400  1.0000 -0.183731263
N   N3        1.0  0.06460  0.38980  0.06960  1.0000 -0.4173180115
N   N4        1.0  0.67050  0.60100  0.25283  1.0000 -0.359347731
N   N5        1.0  0.62050  0.56730  0.12733  1.0000 -0.183731263
N   N6        1.0  0.61020  0.67480  0.40293  1.0000 -0.4173180115
N   N7        1.0  0.39900  0.06950  0.58617  1.0000 -0.359347731
N   N8        1.0  0.43270  0.05320  0.46067  1.0000 -0.183731263
N   N9        1.0  0.32520  0.93540  0.73627  1.0000 -0.4173180115
N   N10       1.0  0.32950  0.93050  0.08050  1.0000 -0.359347731
N   N11       1.0  0.37950  0.94680  0.20600  1.0000 -0.183731263
N   N12       1.0  0.38980  0.06460  0.93040  1.0000 -0.4173180115
N   N13       1.0  0.60100  0.67050  0.74717  1.0000 -0.359347731
N   N14       1.0  0.56730  0.62050  0.87267  1.0000 -0.183731263
N   N15       1.0  0.67480  0.61020  0.59707  1.0000 -0.4173180115
N   N16       1.0  0.06950  0.39900  0.41383  1.0000 -0.359347731
N   N17       1.0  0.05320  0.43270  0.53933  1.0000 -0.183731263
N   N18       1.0  0.93540  0.32520  0.26373  1.0000 -0.4173180115
O   O1        1.0  0.19770  0.66020  0.00110  1.0000 -0.5130078297
O   O2        1.0  0.40760  0.66160  0.98870  1.0000 -0.6126622062
O   O3        1.0  0.18620  0.46330  0.18930  1.0000 -0.4783252975
O   O4        1.0  0.33980  0.53750  0.33443  1.0000 -0.5130078297
O   O5        1.0  0.33840  0.74600  0.32203  1.0000 -0.6126622062
O   O6        1.0  0.53670  0.72290  0.52263  1.0000 -0.4783252975
O   O7        1.0  0.46250  0.80230  0.66777  1.0000 -0.5130078297
O   O8        1.0  0.25400  0.59240  0.65537  1.0000 -0.6126622062
O   O9        1.0  0.27710  0.81380  0.85597  1.0000 -0.4783252975
O   O10       1.0  0.66020  0.19770  0.99890  1.0000 -0.5130078297
O   O11       1.0  0.66160  0.40760  0.01130  1.0000 -0.6126622062
O   O12       1.0  0.46330  0.18620  0.81070  1.0000 -0.4783252975
O   O13       1.0  0.53750  0.33980  0.66557  1.0000 -0.5130078297
O   O14       1.0  0.74600  0.33840  0.67797  1.0000 -0.6126622062
O   O15       1.0  0.72290  0.53670  0.47737  1.0000 -0.4783252975
O   O16       1.0  0.80230  0.46250  0.33223  1.0000 -0.5130078297
O   O17       1.0  0.59240  0.25400  0.34463  1.0000 -0.6126622062
O   O18       1.0  0.81380  0.27710  0.14403  1.0000 -0.4783252975
