# DDEC6 charges by PACMAN v1.1 (https://github.com/mtap-research/PACMAN-charge/)
data_2019[Eu][tcs]3[FSR]1
_chemical_formula_sum              "Eu4 H48 C84 Cl4 O24"
_cell_length_a       9.6763
_cell_length_b       19.8663
_cell_length_c       13.5393
_cell_angle_alpha    90
_cell_angle_beta     96.683
_cell_angle_gamma    90

_symmetry_space_group_name_H-M    "P 1"
_symmetry_Int_Tables_number       1

loop_
  _symmetry_equiv_pos_as_xyz
  'x, y, z'

loop_
  _atom_site_type_symbol
  _atom_site_label
  _atom_site_symmetry_multiplicity
  _atom_site_fract_x
  _atom_site_fract_y
  _atom_site_fract_z
  _atom_site_occupancy
  _atom_site_charge
Eu  Eu1       1.0  0.06455  0.80573  0.00912  1.0000 2.1041032167
Eu  Eu2       1.0  0.43545  0.30573  0.99088  1.0000 2.1041032167
Eu  Eu3       1.0  0.93545  0.19427  0.99088  1.0000 2.1041032167
Eu  Eu4       1.0  0.56455  0.69427  0.00912  1.0000 2.1041032167
H   H1        1.0  0.85760  0.86150  0.72020  1.0000 0.1278163909
H   H2        1.0  0.77970  0.87110  0.55130  1.0000 0.1211878043
H   H3        1.0  0.45050  0.75180  0.58890  1.0000 0.1211878043
H   H4        1.0  0.52490  0.74430  0.75780  1.0000 0.1278163909
H   H5        1.0  0.66260  0.80890  0.22350  1.0000 0.1425362022
H   H6        1.0  0.74430  0.81270  0.39240  1.0000 0.1211878043
H   H7        1.0  0.34870  0.82640  0.46010  1.0000 0.1278163909
H   H8        1.0  0.26710  0.82660  0.29180  1.0000 0.1278163909
H   H9        1.0  0.98740  0.01710  0.21180  1.0000 0.155499065
H   H10       1.0  0.98230  0.06850  0.36570  1.0000 0.1211878043
H   H11       1.0  0.02020  0.88650  0.50010  1.0000 0.1211878043
H   H12       1.0  0.00930  0.83480  0.34570  1.0000 0.1211878043
H   H13       1.0  0.64240  0.36150  0.27980  1.0000 0.1278163909
H   H14       1.0  0.72030  0.37110  0.44870  1.0000 0.1211878043
H   H15       1.0  0.04950  0.25180  0.41110  1.0000 0.1211878043
H   H16       1.0  0.97510  0.24430  0.24220  1.0000 0.1278163909
H   H17       1.0  0.83740  0.30890  0.77650  1.0000 0.1425362022
H   H18       1.0  0.75570  0.31270  0.60760  1.0000 0.1211878043
H   H19       1.0  0.15130  0.32640  0.53990  1.0000 0.1278163909
H   H20       1.0  0.23290  0.32660  0.70820  1.0000 0.1278163909
H   H21       1.0  0.51260  0.51710  0.78820  1.0000 0.155499065
H   H22       1.0  0.51770  0.56850  0.63430  1.0000 0.1211878043
H   H23       1.0  0.47980  0.38650  0.49990  1.0000 0.1211878043
H   H24       1.0  0.49070  0.33480  0.65430  1.0000 0.1211878043
H   H25       1.0  0.14240  0.13850  0.27980  1.0000 0.1278163909
H   H26       1.0  0.22030  0.12890  0.44870  1.0000 0.1211878043
H   H27       1.0  0.54950  0.24820  0.41110  1.0000 0.1211878043
H   H28       1.0  0.47510  0.25570  0.24220  1.0000 0.1278163909
H   H29       1.0  0.33740  0.19110  0.77650  1.0000 0.1425362022
H   H30       1.0  0.25570  0.18730  0.60760  1.0000 0.1211878043
H   H31       1.0  0.65130  0.17360  0.53990  1.0000 0.1278163909
H   H32       1.0  0.73290  0.17340  0.70820  1.0000 0.1278163909
H   H33       1.0  0.01260  0.98290  0.78820  1.0000 0.155499065
H   H34       1.0  0.01770  0.93150  0.63430  1.0000 0.1211878043
H   H35       1.0  0.97980  0.11350  0.49990  1.0000 0.1211878043
H   H36       1.0  0.99070  0.16520  0.65430  1.0000 0.1211878043
H   H37       1.0  0.35760  0.63850  0.72020  1.0000 0.1278163909
H   H38       1.0  0.27970  0.62890  0.55130  1.0000 0.1211878043
H   H39       1.0  0.95050  0.74820  0.58890  1.0000 0.1211878043
H   H40       1.0  0.02490  0.75570  0.75780  1.0000 0.1278163909
H   H41       1.0  0.16260  0.69110  0.22350  1.0000 0.1425362022
H   H42       1.0  0.24430  0.68730  0.39240  1.0000 0.1211878043
H   H43       1.0  0.84870  0.67360  0.46010  1.0000 0.1278163909
H   H44       1.0  0.76710  0.67340  0.29180  1.0000 0.1278163909
H   H45       1.0  0.48740  0.48290  0.21180  1.0000 0.155499065
H   H46       1.0  0.48230  0.43150  0.36570  1.0000 0.1211878043
H   H47       1.0  0.52020  0.61350  0.50010  1.0000 0.1211878043
H   H48       1.0  0.50930  0.66520  0.34570  1.0000 0.1211878043
C   C1        1.0  0.69830  0.80253  0.75610  1.0000 -0.0181128022
C   C2        1.0  0.77400  0.83975  0.69377  1.0000 -0.0803637768
C   C3        1.0  0.72770  0.84524  0.59293  1.0000 -0.1495979338
C   C4        1.0  0.60580  0.81324  0.55200  1.0000 0.0799333717
C   C5        1.0  0.53240  0.77487  0.61550  1.0000 -0.1387204922
C   C6        1.0  0.57700  0.76996  0.71590  1.0000 -0.0717499203
C   C7        1.0  0.74570  0.79773  0.86550  1.0000 0.6846556903
C   C8        1.0  0.45600  0.81574  0.24072  1.0000 -0.0035021215
C   C9        1.0  0.59860  0.81236  0.27140  1.0000 -0.0717499203
C   C10       1.0  0.64700  0.81406  0.37220  1.0000 -0.1284590124
C   C11       1.0  0.55490  0.81770  0.44440  1.0000 0.0799333717
C   C12       1.0  0.41280  0.82270  0.41240  1.0000 -0.1387204922
C   C13       1.0  0.36410  0.82231  0.31210  1.0000 -0.0803637768
C   C14       1.0  0.39840  0.80734  0.13332  1.0000 0.6725180239
C   C15       1.0  0.99650  0.92083  0.26329  1.0000 0.0012568875
C   C16       1.0  0.99080  0.99037  0.27010  1.0000 -0.0624690636
C   C17       1.0  0.99010  0.02091  0.36240  1.0000 -0.1284590124
C   C18       1.0  0.00040  0.98345  0.45045  1.0000 0.0799333717
C   C19       1.0  0.01030  0.91333  0.44170  1.0000 -0.1495979338
C   C20       1.0  0.00590  0.88245  0.34980  1.0000 -0.0904822259
C   C21       1.0  0.99270  0.88637  0.16464  1.0000 0.566405365
C   C22       1.0  0.80170  0.30253  0.24390  1.0000 -0.0181128022
C   C23       1.0  0.72600  0.33975  0.30623  1.0000 -0.0803637768
C   C24       1.0  0.77230  0.34524  0.40707  1.0000 -0.1495979338
C   C25       1.0  0.89420  0.31324  0.44800  1.0000 0.0799333717
C   C26       1.0  0.96760  0.27487  0.38450  1.0000 -0.1387204922
C   C27       1.0  0.92300  0.26996  0.28410  1.0000 -0.0717499203
C   C28       1.0  0.75430  0.29773  0.13450  1.0000 0.6846556903
C   C29       1.0  0.04400  0.31574  0.75928  1.0000 -0.0035021215
C   C30       1.0  0.90140  0.31236  0.72860  1.0000 -0.0717499203
C   C31       1.0  0.85300  0.31406  0.62780  1.0000 -0.1284590124
C   C32       1.0  0.94510  0.31770  0.55560  1.0000 0.0799333717
C   C33       1.0  0.08720  0.32270  0.58760  1.0000 -0.1387204922
C   C34       1.0  0.13590  0.32231  0.68790  1.0000 -0.0803637768
C   C35       1.0  0.10160  0.30734  0.86668  1.0000 0.6725180239
C   C36       1.0  0.50350  0.42083  0.73671  1.0000 0.0012568875
C   C37       1.0  0.50920  0.49037  0.72990  1.0000 -0.0624690636
C   C38       1.0  0.50990  0.52091  0.63760  1.0000 -0.1284590124
C   C39       1.0  0.49960  0.48345  0.54955  1.0000 0.0799333717
C   C40       1.0  0.48970  0.41333  0.55830  1.0000 -0.1495979338
C   C41       1.0  0.49410  0.38245  0.65020  1.0000 -0.0904822259
C   C42       1.0  0.50730  0.38637  0.83536  1.0000 0.566405365
C   C43       1.0  0.30170  0.19747  0.24390  1.0000 -0.0181128022
C   C44       1.0  0.22600  0.16025  0.30623  1.0000 -0.0803637768
C   C45       1.0  0.27230  0.15476  0.40707  1.0000 -0.1495979338
C   C46       1.0  0.39420  0.18676  0.44800  1.0000 0.0799333717
C   C47       1.0  0.46760  0.22513  0.38450  1.0000 -0.1387204922
C   C48       1.0  0.42300  0.23004  0.28410  1.0000 -0.0717499203
C   C49       1.0  0.25430  0.20227  0.13450  1.0000 0.6846556903
C   C50       1.0  0.54400  0.18426  0.75928  1.0000 -0.0035021215
C   C51       1.0  0.40140  0.18764  0.72860  1.0000 -0.0717499203
C   C52       1.0  0.35300  0.18594  0.62780  1.0000 -0.1284590124
C   C53       1.0  0.44510  0.18230  0.55560  1.0000 0.0799333717
C   C54       1.0  0.58720  0.17730  0.58760  1.0000 -0.1387204922
C   C55       1.0  0.63590  0.17769  0.68790  1.0000 -0.0803637768
C   C56       1.0  0.60160  0.19266  0.86668  1.0000 0.6725180239
C   C57       1.0  0.00350  0.07917  0.73671  1.0000 0.0012568875
C   C58       1.0  0.00920  0.00963  0.72990  1.0000 -0.0624690636
C   C59       1.0  0.00990  0.97909  0.63760  1.0000 -0.1284590124
C   C60       1.0  0.99960  0.01655  0.54955  1.0000 0.0799333717
C   C61       1.0  0.98970  0.08667  0.55830  1.0000 -0.1495979338
C   C62       1.0  0.99410  0.11755  0.65020  1.0000 -0.0904822259
C   C63       1.0  0.00730  0.11363  0.83536  1.0000 0.566405365
C   C64       1.0  0.19830  0.69747  0.75610  1.0000 -0.0181128022
C   C65       1.0  0.27400  0.66025  0.69377  1.0000 -0.0803637768
C   C66       1.0  0.22770  0.65476  0.59293  1.0000 -0.1495979338
C   C67       1.0  0.10580  0.68676  0.55200  1.0000 0.0799333717
C   C68       1.0  0.03240  0.72513  0.61550  1.0000 -0.1387204922
C   C69       1.0  0.07700  0.73004  0.71590  1.0000 -0.0717499203
C   C70       1.0  0.24570  0.70227  0.86550  1.0000 0.6846556903
C   C71       1.0  0.95600  0.68426  0.24072  1.0000 -0.0035021215
C   C72       1.0  0.09860  0.68764  0.27140  1.0000 -0.0717499203
C   C73       1.0  0.14700  0.68594  0.37220  1.0000 -0.1284590124
C   C74       1.0  0.05490  0.68230  0.44440  1.0000 0.0799333717
C   C75       1.0  0.91280  0.67730  0.41240  1.0000 -0.1387204922
C   C76       1.0  0.86410  0.67769  0.31210  1.0000 -0.0803637768
C   C77       1.0  0.89840  0.69266  0.13332  1.0000 0.6725180239
C   C78       1.0  0.49650  0.57917  0.26329  1.0000 0.0012568875
C   C79       1.0  0.49080  0.50963  0.27010  1.0000 -0.0624690636
C   C80       1.0  0.49010  0.47909  0.36240  1.0000 -0.1284590124
C   C81       1.0  0.50040  0.51655  0.45045  1.0000 0.0799333717
C   C82       1.0  0.51030  0.58667  0.44170  1.0000 -0.1495979338
C   C83       1.0  0.50590  0.61755  0.34980  1.0000 -0.0904822259
C   C84       1.0  0.49270  0.61363  0.16464  1.0000 0.566405365
Cl  Cl1       1.0  0.18817  0.88422  0.88030  1.0000 -0.7177500634
Cl  Cl2       1.0  0.31183  0.38422  0.11970  1.0000 -0.7177500634
Cl  Cl3       1.0  0.81183  0.11578  0.11970  1.0000 -0.7177500634
Cl  Cl4       1.0  0.68817  0.61578  0.88030  1.0000 -0.7177500634
O   O1        1.0  0.86828  0.81497  0.89521  1.0000 -0.6596604495
O   O2        1.0  0.65994  0.77836  0.92176  1.0000 -0.6420282035
O   O3        1.0  0.48129  0.79683  0.06988  1.0000 -0.6262229739
O   O4        1.0  0.26850  0.81074  0.11390  1.0000 -0.6596604495
O   O5        1.0  0.02560  0.91729  0.08954  1.0000 -0.5612733571
O   O6        1.0  0.95740  0.82532  0.15946  1.0000 -0.6262229739
O   O7        1.0  0.63172  0.31497  0.10479  1.0000 -0.6596604495
O   O8        1.0  0.84006  0.27836  0.07824  1.0000 -0.6420282035
O   O9        1.0  0.01871  0.29683  0.93012  1.0000 -0.6262229739
O   O10       1.0  0.23150  0.31074  0.88610  1.0000 -0.6596604495
O   O11       1.0  0.47440  0.41729  0.91046  1.0000 -0.5612733571
O   O12       1.0  0.54260  0.32532  0.84054  1.0000 -0.6262229739
O   O13       1.0  0.13172  0.18503  0.10479  1.0000 -0.6596604495
O   O14       1.0  0.34006  0.22164  0.07824  1.0000 -0.6420282035
O   O15       1.0  0.51871  0.20317  0.93012  1.0000 -0.6262229739
O   O16       1.0  0.73150  0.18926  0.88610  1.0000 -0.6596604495
O   O17       1.0  0.97440  0.08271  0.91046  1.0000 -0.5612733571
O   O18       1.0  0.04260  0.17468  0.84054  1.0000 -0.6262229739
O   O19       1.0  0.36828  0.68503  0.89521  1.0000 -0.6596604495
O   O20       1.0  0.15994  0.72164  0.92176  1.0000 -0.6420282035
O   O21       1.0  0.98129  0.70317  0.06988  1.0000 -0.6262229739
O   O22       1.0  0.76850  0.68926  0.11390  1.0000 -0.6596604495
O   O23       1.0  0.52560  0.58271  0.08954  1.0000 -0.5612733571
O   O24       1.0  0.45740  0.67468  0.15946  1.0000 -0.6262229739
