# DDEC6 charges by PACMAN v1.1 (https://github.com/mtap-research/PACMAN-charge/)
data_2019[U][pts]3[FSR]1
_chemical_formula_sum              "U2 P8 H40 C50 O28"
_cell_length_a       13.1523
_cell_length_b       13.1523
_cell_length_c       15.9527
_cell_angle_alpha    65.4347
_cell_angle_beta     114.565
_cell_angle_gamma    102.749

_symmetry_space_group_name_H-M    "P 1"
_symmetry_Int_Tables_number       1

loop_
  _symmetry_equiv_pos_as_xyz
  'x, y, z'

loop_
  _atom_site_type_symbol
  _atom_site_label
  _atom_site_symmetry_multiplicity
  _atom_site_fract_x
  _atom_site_fract_y
  _atom_site_fract_z
  _atom_site_occupancy
  _atom_site_charge
U   U1        1.0  0.50000  0.00000  0.00000  1.0000 2.6263898462
U   U2        1.0  0.00000  0.50000  0.50000  1.0000 2.6263898462
P   P1        1.0  0.28099  0.79847  0.91988  1.0000 1.299782142
P   P2        1.0  0.33478  0.92892  0.14788  1.0000 1.299782142
P   P3        1.0  0.79847  0.28099  0.58012  1.0000 1.299782142
P   P4        1.0  0.92892  0.33478  0.35212  1.0000 1.299782142
P   P5        1.0  0.71901  0.20153  0.08012  1.0000 1.299782142
P   P6        1.0  0.66522  0.07108  0.85212  1.0000 1.299782142
P   P7        1.0  0.20153  0.71901  0.41988  1.0000 1.299782142
P   P8        1.0  0.07108  0.66522  0.64788  1.0000 1.299782142
H   H1        1.0  0.20980  0.85920  0.97660  1.0000 0.4057139158
H   H2        1.0  0.29720  0.81500  0.26080  1.0000 0.3843524307
H   H3        1.0  0.22300  0.39720  0.05170  1.0000 0.1297885179
H   H4        1.0  0.20150  0.57150  0.92820  1.0000 0.1297885179
H   H5        1.0  0.39140  0.70900  0.12820  1.0000 0.1428858302
H   H6        1.0  0.40920  0.53620  0.25050  1.0000 0.1297885179
H   H7        1.0  0.25460  0.11660  0.31300  1.0000 0.1297885179
H   H8        1.0  0.26000  0.96580  0.27870  1.0000 0.1297885179
H   H9        1.0  0.41270  0.15970  0.09090  1.0000 0.1428858302
H   H10       1.0  0.40520  0.31100  0.12420  1.0000 0.1297885179
H   H11       1.0  0.85920  0.20980  0.52340  1.0000 0.4057139158
H   H12       1.0  0.81500  0.29720  0.23920  1.0000 0.3843524307
H   H13       1.0  0.39720  0.22300  0.44830  1.0000 0.1297885179
H   H14       1.0  0.57150  0.20150  0.57180  1.0000 0.1297885179
H   H15       1.0  0.70900  0.39140  0.37180  1.0000 0.1428858302
H   H16       1.0  0.53620  0.40920  0.24950  1.0000 0.1297885179
H   H17       1.0  0.11660  0.25460  0.18700  1.0000 0.1297885179
H   H18       1.0  0.96580  0.26000  0.22130  1.0000 0.1297885179
H   H19       1.0  0.15970  0.41270  0.40910  1.0000 0.1428858302
H   H20       1.0  0.31100  0.40520  0.37580  1.0000 0.1297885179
H   H21       1.0  0.79020  0.14080  0.02340  1.0000 0.4057139158
H   H22       1.0  0.70280  0.18500  0.73920  1.0000 0.3843524307
H   H23       1.0  0.77700  0.60280  0.94830  1.0000 0.1297885179
H   H24       1.0  0.79850  0.42850  0.07180  1.0000 0.1297885179
H   H25       1.0  0.60860  0.29100  0.87180  1.0000 0.1428858302
H   H26       1.0  0.59080  0.46380  0.74950  1.0000 0.1297885179
H   H27       1.0  0.74540  0.88340  0.68700  1.0000 0.1297885179
H   H28       1.0  0.74000  0.03420  0.72130  1.0000 0.1297885179
H   H29       1.0  0.58730  0.84030  0.90910  1.0000 0.1428858302
H   H30       1.0  0.59480  0.68900  0.87580  1.0000 0.1297885179
H   H31       1.0  0.14080  0.79020  0.47660  1.0000 0.4057139158
H   H32       1.0  0.18500  0.70280  0.76080  1.0000 0.3843524307
H   H33       1.0  0.60280  0.77700  0.55170  1.0000 0.1297885179
H   H34       1.0  0.42850  0.79850  0.42820  1.0000 0.1297885179
H   H35       1.0  0.29100  0.60860  0.62820  1.0000 0.1428858302
H   H36       1.0  0.46380  0.59080  0.75050  1.0000 0.1297885179
H   H37       1.0  0.88340  0.74540  0.81300  1.0000 0.1297885179
H   H38       1.0  0.03420  0.74000  0.77870  1.0000 0.1297885179
H   H39       1.0  0.84030  0.58730  0.59090  1.0000 0.1428858302
H   H40       1.0  0.68900  0.59480  0.62420  1.0000 0.1297885179
C   C1        1.0  0.32180  0.44600  0.16500  1.0000 0.0897678137
C   C2        1.0  0.25800  0.45980  0.06770  1.0000 -0.1392991171
C   C3        1.0  0.24500  0.56500  0.99320  1.0000 -0.0493725309
C   C4        1.0  0.29500  0.66020  0.01340  1.0000 -0.2041202859
C   C5        1.0  0.35710  0.64650  0.11180  1.0000 -0.0493725309
C   C6        1.0  0.36850  0.54230  0.18510  1.0000 -0.1336892508
C   C7        1.0  0.32560  0.23200  0.21990  1.0000 0.0897678137
C   C8        1.0  0.28510  0.12650  0.26670  1.0000 -0.1336892508
C   C9        1.0  0.28880  0.03540  0.24640  1.0000 -0.0493725309
C   C10       1.0  0.33460  0.04540  0.17850  1.0000 -0.182764791
C   C11       1.0  0.37900  0.15020  0.13490  1.0000 -0.0391008631
C   C12       1.0  0.37460  0.24160  0.15510  1.0000 -0.1392991171
C   C13       1.0  0.44600  0.32180  0.33500  1.0000 0.0897678137
C   C14       1.0  0.45980  0.25800  0.43230  1.0000 -0.1392991171
C   C15       1.0  0.56500  0.24500  0.50680  1.0000 -0.0493725309
C   C16       1.0  0.66020  0.29500  0.48660  1.0000 -0.2041202859
C   C17       1.0  0.64650  0.35710  0.38820  1.0000 -0.0493725309
C   C18       1.0  0.54230  0.36850  0.31490  1.0000 -0.1336892508
C   C19       1.0  0.23200  0.32560  0.28010  1.0000 0.0897678137
C   C20       1.0  0.12650  0.28510  0.23330  1.0000 -0.1336892508
C   C21       1.0  0.03540  0.28880  0.25360  1.0000 -0.0493725309
C   C22       1.0  0.04540  0.33460  0.32150  1.0000 -0.182764791
C   C23       1.0  0.15020  0.37900  0.36510  1.0000 -0.0391008631
C   C24       1.0  0.24160  0.37460  0.34490  1.0000 -0.1392991171
C   C25       1.0  0.67820  0.55400  0.83500  1.0000 0.0897678137
C   C26       1.0  0.74200  0.54020  0.93230  1.0000 -0.1392991171
C   C27       1.0  0.75500  0.43500  0.00680  1.0000 -0.0493725309
C   C28       1.0  0.70500  0.33980  0.98660  1.0000 -0.2041202859
C   C29       1.0  0.64290  0.35350  0.88820  1.0000 -0.0493725309
C   C30       1.0  0.63150  0.45770  0.81490  1.0000 -0.1336892508
C   C31       1.0  0.67440  0.76800  0.78010  1.0000 0.0897678137
C   C32       1.0  0.71490  0.87350  0.73330  1.0000 -0.1336892508
C   C33       1.0  0.71120  0.96460  0.75360  1.0000 -0.0493725309
C   C34       1.0  0.66540  0.95460  0.82150  1.0000 -0.182764791
C   C35       1.0  0.62100  0.84980  0.86510  1.0000 -0.0391008631
C   C36       1.0  0.62540  0.75840  0.84490  1.0000 -0.1392991171
C   C37       1.0  0.55400  0.67820  0.66500  1.0000 0.0897678137
C   C38       1.0  0.54020  0.74200  0.56770  1.0000 -0.1392991171
C   C39       1.0  0.43500  0.75500  0.49320  1.0000 -0.0493725309
C   C40       1.0  0.33980  0.70500  0.51340  1.0000 -0.2041202859
C   C41       1.0  0.35350  0.64290  0.61180  1.0000 -0.0493725309
C   C42       1.0  0.45770  0.63150  0.68510  1.0000 -0.1336892508
C   C43       1.0  0.76800  0.67440  0.71990  1.0000 0.0897678137
C   C44       1.0  0.87350  0.71490  0.76670  1.0000 -0.1336892508
C   C45       1.0  0.96460  0.71120  0.74640  1.0000 -0.0493725309
C   C46       1.0  0.95460  0.66540  0.67850  1.0000 -0.182764791
C   C47       1.0  0.84980  0.62100  0.63490  1.0000 -0.0391008631
C   C48       1.0  0.75840  0.62540  0.65510  1.0000 -0.1392991171
C   C49       1.0  0.33080  0.33080  0.25000  1.0000 -0.0034034719
C   C50       1.0  0.66920  0.66920  0.75000  1.0000 -0.0034034719
O   O1        1.0  0.39210  0.86090  0.95180  1.0000 -0.8222046197
O   O2        1.0  0.18830  0.85170  0.92320  1.0000 -0.5649113208
O   O3        1.0  0.24400  0.79460  0.82030  1.0000 -0.6824646742
O   O4        1.0  0.23030  0.92310  0.06330  1.0000 -0.6934502572
O   O5        1.0  0.44190  0.94190  0.12950  1.0000 -0.8222046197
O   O6        1.0  0.34970  0.82350  0.24310  1.0000 -0.5800679475
O   O7        1.0  0.61240  0.90880  0.07640  1.0000 -0.6597785056
O   O8        1.0  0.86090  0.39210  0.54820  1.0000 -0.8222046197
O   O9        1.0  0.85170  0.18830  0.57680  1.0000 -0.5649113208
O   O10       1.0  0.79460  0.24400  0.67970  1.0000 -0.6824646742
O   O11       1.0  0.92310  0.23030  0.43670  1.0000 -0.6934502572
O   O12       1.0  0.94190  0.44190  0.37050  1.0000 -0.8222046197
O   O13       1.0  0.82350  0.34970  0.25690  1.0000 -0.5800679475
O   O14       1.0  0.90880  0.61240  0.42360  1.0000 -0.6597785056
O   O15       1.0  0.60790  0.13910  0.04820  1.0000 -0.8222046197
O   O16       1.0  0.81170  0.14830  0.07680  1.0000 -0.5649113208
O   O17       1.0  0.75600  0.20540  0.17970  1.0000 -0.6824646742
O   O18       1.0  0.76970  0.07690  0.93670  1.0000 -0.6934502572
O   O19       1.0  0.55810  0.05810  0.87050  1.0000 -0.8222046197
O   O20       1.0  0.65030  0.17650  0.75690  1.0000 -0.5800679475
O   O21       1.0  0.38760  0.09120  0.92360  1.0000 -0.6597785056
O   O22       1.0  0.13910  0.60790  0.45180  1.0000 -0.8222046197
O   O23       1.0  0.14830  0.81170  0.42320  1.0000 -0.5649113208
O   O24       1.0  0.20540  0.75600  0.32030  1.0000 -0.6824646742
O   O25       1.0  0.07690  0.76970  0.56330  1.0000 -0.6934502572
O   O26       1.0  0.05810  0.55810  0.62950  1.0000 -0.8222046197
O   O27       1.0  0.17650  0.65030  0.74310  1.0000 -0.5800679475
O   O28       1.0  0.09120  0.38760  0.57640  1.0000 -0.6597785056
