# DDEC6 charges by PACMAN v1.1 (https://github.com/mtap-research/PACMAN-charge/)
data_2019[Zn][nan]2[FSR]2
_chemical_formula_sum              "Zn12 H216 C312 N48 O60"
_cell_length_a       26.1212
_cell_length_b       26.1212
_cell_length_c       26.1212
_cell_angle_alpha    146.328
_cell_angle_beta     112.34
_cell_angle_gamma    77.7416

_symmetry_space_group_name_H-M    "P 1"
_symmetry_Int_Tables_number       1

loop_
  _symmetry_equiv_pos_as_xyz
  'x, y, z'

loop_
  _atom_site_type_symbol
  _atom_site_label
  _atom_site_symmetry_multiplicity
  _atom_site_fract_x
  _atom_site_fract_y
  _atom_site_fract_z
  _atom_site_occupancy
  _atom_site_charge
Zn  Zn1       1.0  0.89159  0.62281  0.76646  1.0000 0.7589706822
Zn  Zn2       1.0  0.35635  0.12513  0.73354  1.0000 0.7589706822
Zn  Zn3       1.0  0.14365  0.87719  0.76878  1.0000 0.7589706822
Zn  Zn4       1.0  0.60841  0.37487  0.73122  1.0000 0.7589706822
Zn  Zn5       1.0  0.72561  0.47561  0.25000  1.0000 0.7589706822
Zn  Zn6       1.0  0.77439  0.02439  0.75000  1.0000 0.7589706822
Zn  Zn7       1.0  0.10841  0.37719  0.23354  1.0000 0.7589706822
Zn  Zn8       1.0  0.64365  0.87487  0.26646  1.0000 0.7589706822
Zn  Zn9       1.0  0.85635  0.12281  0.23122  1.0000 0.7589706822
Zn  Zn10      1.0  0.39159  0.62513  0.26878  1.0000 0.7589706822
Zn  Zn11      1.0  0.27439  0.52439  0.75000  1.0000 0.7589706822
Zn  Zn12      1.0  0.22561  0.97561  0.25000  1.0000 0.7589706822
H   H1        1.0  0.58620  0.05310  0.95870  1.0000 0.1386089002
H   H2        1.0  0.06960  0.63550  0.65070  1.0000 0.1281308508
H   H3        1.0  0.83610  0.45360  0.67910  1.0000 0.1197112505
H   H4        1.0  0.75560  0.18030  0.05010  1.0000 0.1197112505
H   H5        1.0  0.80330  0.85720  0.94490  1.0000 0.1086041338
H   H6        1.0  0.59770  0.19700  0.04410  1.0000 0.1197112505
H   H7        1.0  0.74260  0.03320  0.95800  1.0000 0.1281308508
H   H8        1.0  0.89840  0.61520  0.64080  1.0000 0.1197112505
H   H9        1.0  0.95390  0.61510  0.94380  1.0000 0.1197112505
H   H10       1.0  0.02200  0.63340  0.80040  1.0000 0.1197112505
H   H11       1.0  0.03780  0.85350  0.11270  1.0000 0.1281308508
H   H12       1.0  0.06270  0.63560  0.73210  1.0000 0.1197112505
H   H13       1.0  0.90260  0.61530  0.56050  1.0000 0.1386089002
H   H14       1.0  0.71570  0.69800  0.66970  1.0000 0.1197112505
H   H15       1.0  0.65320  0.79790  0.72650  1.0000 0.1281308508
H   H16       1.0  0.99410  0.66020  0.07530  1.0000 0.1386089002
H   H17       1.0  0.83930  0.49650  0.36980  1.0000 0.1281308508
H   H18       1.0  0.99530  0.61820  0.47170  1.0000 0.1281308508
H   H19       1.0  0.07540  0.63440  0.56440  1.0000 0.1197112505
H   H20       1.0  0.74230  0.95800  0.00250  1.0000 0.1386089002
H   H21       1.0  0.77530  0.30720  0.41190  1.0000 0.1281308508
H   H22       1.0  0.82360  0.46010  0.53090  1.0000 0.1386089002
H   H23       1.0  0.07950  0.89900  0.24370  1.0000 0.1281308508
H   H24       1.0  0.90780  0.71080  0.48880  1.0000 0.1386089002
H   H25       1.0  0.78870  0.17510  0.36500  1.0000 0.1386089002
H   H26       1.0  0.81360  0.64870  0.37070  1.0000 0.1281308508
H   H27       1.0  0.59440  0.62750  0.54130  1.0000 0.1386089002
H   H28       1.0  0.48480  0.41890  0.84930  1.0000 0.1281308508
H   H29       1.0  0.27450  0.15700  0.82090  1.0000 0.1197112505
H   H30       1.0  0.63020  0.70550  0.44990  1.0000 0.1197112505
H   H31       1.0  0.41230  0.85840  0.55510  1.0000 0.1086041338
H   H32       1.0  0.65290  0.55360  0.45590  1.0000 0.1197112505
H   H33       1.0  0.57520  0.78460  0.54200  1.0000 0.1281308508
H   H34       1.0  0.47440  0.25760  0.85920  1.0000 0.1197112505
H   H35       1.0  0.17130  0.01010  0.55620  1.0000 0.1197112505
H   H36       1.0  0.33300  0.22160  0.69960  1.0000 0.1197112505
H   H37       1.0  0.24080  0.92510  0.38730  1.0000 0.1281308508
H   H38       1.0  0.40350  0.33060  0.76790  1.0000 0.1197112505
H   H39       1.0  0.55480  0.34210  0.93950  1.0000 0.1386089002
H   H40       1.0  0.52830  0.04600  0.83030  1.0000 0.1197112505
H   H41       1.0  0.57140  0.92670  0.77350  1.0000 0.1281308508
H   H42       1.0  0.08490  0.91880  0.42470  1.0000 0.1386089002
H   H43       1.0  0.62670  0.46950  0.13020  1.0000 0.1281308508
H   H44       1.0  0.64650  0.52360  0.02830  1.0000 0.1281308508
H   H45       1.0  0.57000  0.51100  0.93560  1.0000 0.1197112505
H   H46       1.0  0.45550  0.73980  0.49750  1.0000 0.1386089002
H   H47       1.0  0.39530  0.36340  0.08810  1.0000 0.1281308508
H   H48       1.0  0.42920  0.29270  0.96910  1.0000 0.1386089002
H   H49       1.0  0.15530  0.83580  0.25630  1.0000 0.1281308508
H   H50       1.0  0.72200  0.41900  0.01120  1.0000 0.1386089002
H   H51       1.0  0.31010  0.42370  0.13500  1.0000 0.1386089002
H   H52       1.0  0.77800  0.44290  0.12930  1.0000 0.1281308508
H   H53       1.0  0.90560  0.44690  0.03310  1.0000 0.1386089002
H   H54       1.0  0.01520  0.86450  0.93410  1.0000 0.1281308508
H   H55       1.0  0.22550  0.04640  0.88250  1.0000 0.1197112505
H   H56       1.0  0.86980  0.31970  0.07530  1.0000 0.1197112505
H   H57       1.0  0.08770  0.64280  0.44610  1.0000 0.1086041338
H   H58       1.0  0.84710  0.30300  0.90070  1.0000 0.1197112505
H   H59       1.0  0.92480  0.46680  0.20940  1.0000 0.1281308508
H   H60       1.0  0.02560  0.88480  0.78320  1.0000 0.1197112505
H   H61       1.0  0.32870  0.88490  0.83880  1.0000 0.1197112505
H   H62       1.0  0.16700  0.86660  0.88860  1.0000 0.1197112505
H   H63       1.0  0.25920  0.64650  0.68430  1.0000 0.1281308508
H   H64       1.0  0.09650  0.86440  0.92710  1.0000 0.1197112505
H   H65       1.0  0.94520  0.88470  0.78730  1.0000 0.1386089002
H   H66       1.0  0.97170  0.80200  0.51770  1.0000 0.1197112505
H   H67       1.0  0.92860  0.70210  0.35530  1.0000 0.1281308508
H   H68       1.0  0.41510  0.83980  0.83390  1.0000 0.1386089002
H   H69       1.0  0.87330  0.00350  0.84280  1.0000 0.1281308508
H   H70       1.0  0.85350  0.88180  0.87710  1.0000 0.1281308508
H   H71       1.0  0.93000  0.86560  0.94100  1.0000 0.1197112505
H   H72       1.0  0.04450  0.54200  0.28430  1.0000 0.1386089002
H   H73       1.0  0.10470  0.19280  0.96810  1.0000 0.1281308508
H   H74       1.0  0.07080  0.03990  0.86350  1.0000 0.1386089002
H   H75       1.0  0.34470  0.60100  0.68050  1.0000 0.1281308508
H   H76       1.0  0.77800  0.78920  0.69700  1.0000 0.1386089002
H   H77       1.0  0.18990  0.32490  0.11360  1.0000 0.1386089002
H   H78       1.0  0.72200  0.85130  0.66490  1.0000 0.1281308508
H   H79       1.0  0.91380  0.87250  0.46690  1.0000 0.1386089002
H   H80       1.0  0.43040  0.08110  0.56590  1.0000 0.1281308508
H   H81       1.0  0.66390  0.34300  0.61750  1.0000 0.1197112505
H   H82       1.0  0.74440  0.79450  0.42470  1.0000 0.1197112505
H   H83       1.0  0.69670  0.64160  0.05390  1.0000 0.1086041338
H   H84       1.0  0.90230  0.94640  0.59930  1.0000 0.1197112505
H   H85       1.0  0.75740  0.71540  0.29060  1.0000 0.1281308508
H   H86       1.0  0.60160  0.24240  0.71680  1.0000 0.1197112505
H   H87       1.0  0.54610  0.48990  0.66120  1.0000 0.1197112505
H   H88       1.0  0.47800  0.27840  0.61140  1.0000 0.1197112505
H   H89       1.0  0.46220  0.57490  0.81570  1.0000 0.1281308508
H   H90       1.0  0.43730  0.16940  0.57290  1.0000 0.1197112505
H   H91       1.0  0.59740  0.15790  0.71270  1.0000 0.1386089002
H   H92       1.0  0.78430  0.45400  0.98230  1.0000 0.1197112505
H   H93       1.0  0.84680  0.57330  0.14470  1.0000 0.1281308508
H   H94       1.0  0.50590  0.58120  0.66610  1.0000 0.1386089002
H   H95       1.0  0.66070  0.03050  0.65720  1.0000 0.1281308508
H   H96       1.0  0.50470  0.97640  0.62290  1.0000 0.1281308508
H   H97       1.0  0.42460  0.98900  0.55900  1.0000 0.1197112505
H   H98       1.0  0.75770  0.76020  0.21570  1.0000 0.1386089002
H   H99       1.0  0.72470  0.13660  0.53190  1.0000 0.1281308508
H   H100      1.0  0.67640  0.20730  0.63650  1.0000 0.1386089002
H   H101      1.0  0.42050  0.66420  0.81950  1.0000 0.1281308508
H   H102      1.0  0.59220  0.08100  0.80300  1.0000 0.1386089002
H   H103      1.0  0.71130  0.07630  0.38640  1.0000 0.1386089002
H   H104      1.0  0.68640  0.05710  0.83510  1.0000 0.1281308508
H   H105      1.0  0.75000  0.35310  0.60310  1.0000 0.1281308508
H   H106      1.0  0.75000  0.04940  0.29940  1.0000 0.1086041338
H   H107      1.0  0.25000  0.14690  0.89690  1.0000 0.1281308508
H   H108      1.0  0.25000  0.45060  0.20060  1.0000 0.1086041338
H   H109      1.0  0.41380  0.94690  0.04130  1.0000 0.1386089002
H   H110      1.0  0.93040  0.36450  0.34930  1.0000 0.1281308508
H   H111      1.0  0.16390  0.54640  0.32090  1.0000 0.1197112505
H   H112      1.0  0.24440  0.81970  0.94990  1.0000 0.1197112505
H   H113      1.0  0.19670  0.14280  0.05510  1.0000 0.1086041338
H   H114      1.0  0.40230  0.80300  0.95590  1.0000 0.1197112505
H   H115      1.0  0.25740  0.96680  0.04200  1.0000 0.1281308508
H   H116      1.0  0.10160  0.38480  0.35920  1.0000 0.1197112505
H   H117      1.0  0.04610  0.38490  0.05620  1.0000 0.1197112505
H   H118      1.0  0.97800  0.36660  0.19960  1.0000 0.1197112505
H   H119      1.0  0.96220  0.14650  0.88730  1.0000 0.1281308508
H   H120      1.0  0.93730  0.36440  0.26790  1.0000 0.1197112505
H   H121      1.0  0.09740  0.38470  0.43950  1.0000 0.1386089002
H   H122      1.0  0.28430  0.30200  0.33030  1.0000 0.1197112505
H   H123      1.0  0.34680  0.20210  0.27350  1.0000 0.1281308508
H   H124      1.0  0.00590  0.33980  0.92470  1.0000 0.1386089002
H   H125      1.0  0.16070  0.50350  0.63020  1.0000 0.1281308508
H   H126      1.0  0.00470  0.38180  0.52830  1.0000 0.1281308508
H   H127      1.0  0.92460  0.36560  0.43560  1.0000 0.1197112505
H   H128      1.0  0.25770  0.04200  0.99750  1.0000 0.1386089002
H   H129      1.0  0.22470  0.69280  0.58810  1.0000 0.1281308508
H   H130      1.0  0.17640  0.53990  0.46910  1.0000 0.1386089002
H   H131      1.0  0.92050  0.10100  0.75630  1.0000 0.1281308508
H   H132      1.0  0.09220  0.28920  0.51120  1.0000 0.1386089002
H   H133      1.0  0.21130  0.82490  0.63500  1.0000 0.1386089002
H   H134      1.0  0.18640  0.35130  0.62930  1.0000 0.1281308508
H   H135      1.0  0.40560  0.37250  0.45870  1.0000 0.1386089002
H   H136      1.0  0.51520  0.58110  0.15070  1.0000 0.1281308508
H   H137      1.0  0.72550  0.84300  0.17910  1.0000 0.1197112505
H   H138      1.0  0.36980  0.29450  0.55010  1.0000 0.1197112505
H   H139      1.0  0.58770  0.14160  0.44490  1.0000 0.1086041338
H   H140      1.0  0.34710  0.44640  0.54410  1.0000 0.1197112505
H   H141      1.0  0.42480  0.21540  0.45800  1.0000 0.1281308508
H   H142      1.0  0.52560  0.74240  0.14080  1.0000 0.1197112505
H   H143      1.0  0.82870  0.98990  0.44380  1.0000 0.1197112505
H   H144      1.0  0.66700  0.77840  0.30040  1.0000 0.1197112505
H   H145      1.0  0.75920  0.07490  0.61270  1.0000 0.1281308508
H   H146      1.0  0.59650  0.66940  0.23210  1.0000 0.1197112505
H   H147      1.0  0.44520  0.65790  0.06050  1.0000 0.1386089002
H   H148      1.0  0.47170  0.95400  0.16970  1.0000 0.1197112505
H   H149      1.0  0.42860  0.07330  0.22650  1.0000 0.1281308508
H   H150      1.0  0.91510  0.08120  0.57530  1.0000 0.1386089002
H   H151      1.0  0.37330  0.53050  0.86980  1.0000 0.1281308508
H   H152      1.0  0.35350  0.47640  0.97170  1.0000 0.1281308508
H   H153      1.0  0.43000  0.48900  0.06440  1.0000 0.1197112505
H   H154      1.0  0.54450  0.26020  0.50250  1.0000 0.1386089002
H   H155      1.0  0.60470  0.63660  0.91190  1.0000 0.1281308508
H   H156      1.0  0.57080  0.70730  0.03090  1.0000 0.1386089002
H   H157      1.0  0.84470  0.16420  0.74370  1.0000 0.1281308508
H   H158      1.0  0.27800  0.58100  0.98880  1.0000 0.1386089002
H   H159      1.0  0.68990  0.57630  0.86500  1.0000 0.1386089002
H   H160      1.0  0.22200  0.55710  0.87070  1.0000 0.1281308508
H   H161      1.0  0.09440  0.55310  0.96690  1.0000 0.1386089002
H   H162      1.0  0.98480  0.13550  0.06590  1.0000 0.1281308508
H   H163      1.0  0.77450  0.95360  0.11750  1.0000 0.1197112505
H   H164      1.0  0.13020  0.68030  0.92470  1.0000 0.1197112505
H   H165      1.0  0.91230  0.35720  0.55390  1.0000 0.1086041338
H   H166      1.0  0.15290  0.69700  0.09930  1.0000 0.1197112505
H   H167      1.0  0.07520  0.53320  0.79060  1.0000 0.1281308508
H   H168      1.0  0.97440  0.11520  0.21680  1.0000 0.1197112505
H   H169      1.0  0.67130  0.11510  0.16120  1.0000 0.1197112505
H   H170      1.0  0.83300  0.13340  0.11140  1.0000 0.1197112505
H   H171      1.0  0.74080  0.35350  0.31570  1.0000 0.1281308508
H   H172      1.0  0.90350  0.13560  0.07290  1.0000 0.1197112505
H   H173      1.0  0.05480  0.11530  0.21270  1.0000 0.1386089002
H   H174      1.0  0.02830  0.19800  0.48230  1.0000 0.1197112505
H   H175      1.0  0.07140  0.29790  0.64470  1.0000 0.1281308508
H   H176      1.0  0.58490  0.16020  0.16610  1.0000 0.1386089002
H   H177      1.0  0.12670  0.99650  0.15720  1.0000 0.1281308508
H   H178      1.0  0.14650  0.11820  0.12290  1.0000 0.1281308508
H   H179      1.0  0.07000  0.13440  0.05900  1.0000 0.1197112505
H   H180      1.0  0.95550  0.45800  0.71570  1.0000 0.1386089002
H   H181      1.0  0.89530  0.80720  0.03190  1.0000 0.1281308508
H   H182      1.0  0.92920  0.96010  0.13650  1.0000 0.1386089002
H   H183      1.0  0.65530  0.39900  0.31950  1.0000 0.1281308508
H   H184      1.0  0.22200  0.21080  0.30300  1.0000 0.1386089002
H   H185      1.0  0.81010  0.67510  0.88640  1.0000 0.1386089002
H   H186      1.0  0.27800  0.14870  0.33510  1.0000 0.1281308508
H   H187      1.0  0.08620  0.12750  0.53310  1.0000 0.1386089002
H   H188      1.0  0.56960  0.91890  0.43410  1.0000 0.1281308508
H   H189      1.0  0.33610  0.65700  0.38250  1.0000 0.1197112505
H   H190      1.0  0.25560  0.20550  0.57530  1.0000 0.1197112505
H   H191      1.0  0.30330  0.35840  0.94610  1.0000 0.1086041338
H   H192      1.0  0.09770  0.05360  0.40070  1.0000 0.1197112505
H   H193      1.0  0.24260  0.28460  0.70940  1.0000 0.1281308508
H   H194      1.0  0.39840  0.75760  0.28320  1.0000 0.1197112505
H   H195      1.0  0.45390  0.51010  0.33880  1.0000 0.1197112505
H   H196      1.0  0.52200  0.72160  0.38860  1.0000 0.1197112505
H   H197      1.0  0.53780  0.42510  0.18430  1.0000 0.1281308508
H   H198      1.0  0.56270  0.83060  0.42710  1.0000 0.1197112505
H   H199      1.0  0.40260  0.84210  0.28730  1.0000 0.1386089002
H   H200      1.0  0.21570  0.54600  0.01770  1.0000 0.1197112505
H   H201      1.0  0.15320  0.42670  0.85530  1.0000 0.1281308508
H   H202      1.0  0.49410  0.41880  0.33390  1.0000 0.1386089002
H   H203      1.0  0.33930  0.96950  0.34280  1.0000 0.1281308508
H   H204      1.0  0.49530  0.02360  0.37710  1.0000 0.1281308508
H   H205      1.0  0.57540  0.01100  0.44100  1.0000 0.1197112505
H   H206      1.0  0.24230  0.23980  0.78430  1.0000 0.1386089002
H   H207      1.0  0.27530  0.86340  0.46810  1.0000 0.1281308508
H   H208      1.0  0.32360  0.79270  0.36350  1.0000 0.1386089002
H   H209      1.0  0.57950  0.33580  0.18050  1.0000 0.1281308508
H   H210      1.0  0.40780  0.91900  0.19700  1.0000 0.1386089002
H   H211      1.0  0.28870  0.92370  0.61360  1.0000 0.1386089002
H   H212      1.0  0.31360  0.94290  0.16490  1.0000 0.1281308508
H   H213      1.0  0.25000  0.64690  0.39690  1.0000 0.1281308508
H   H214      1.0  0.25000  0.95060  0.70060  1.0000 0.1086041338
H   H215      1.0  0.75000  0.85310  0.10310  1.0000 0.1281308508
H   H216      1.0  0.75000  0.54940  0.79940  1.0000 0.1086041338
C   C1        1.0  0.98529  0.62419  0.61270  1.0000 0.1586666735
C   C2        1.0  0.62010  0.07890  0.97680  1.0000 -0.1991310223
C   C3        1.0  0.03709  0.63049  0.61440  1.0000 -0.1901571571
C   C4        1.0  0.82706  0.43656  0.62770  1.0000 0.0997009061
C   C5        1.0  0.94199  0.61729  0.50950  1.0000 0.1586666735
C   C6        1.0  0.67840  0.20550  0.05750  1.0000 -0.0371611631
C   C7        1.0  0.76503  0.76623  0.80020  1.0000 -0.0371611631
C   C8        1.0  0.72130  0.15450  0.03100  1.0000 -0.0914418505
C   C9        1.0  0.77293  0.84573  0.90120  1.0000 -0.0914418505
C   C10       1.0  0.62720  0.16450  0.02810  1.0000 -0.0826036855
C   C11       1.0  0.71390  0.06740  0.97730  1.0000 -0.230706778
C   C12       1.0  0.99134  0.72994  0.01480  1.0000 -0.0485731633
C   C13       1.0  0.93433  0.61963  0.67210  1.0000 0.0997009061
C   C14       1.0  0.66370  0.03000  0.95150  1.0000 0.2405917107
C   C15       1.0  0.97880  0.67260  0.00440  1.0000 -0.0985019791
C   C16       1.0  0.00180  0.62950  0.75910  1.0000 -0.0255651909
C   C17       1.0  0.02900  0.81420  0.10500  1.0000 -0.0826036855
C   C18       1.0  0.04060  0.78500  0.17300  1.0000 0.2405917107
C   C19       1.0  0.02470  0.63110  0.72180  1.0000 -0.1095685556
C   C20       1.0  0.93754  0.61844  0.56090  1.0000 -0.27149663
C   C21       1.0  0.72080  0.75020  0.73660  1.0000 -0.0985019791
C   C22       1.0  0.68380  0.81020  0.77060  1.0000 -0.1991310223
C   C23       1.0  0.68600  0.30180  0.11940  1.0000 0.5390418588
C   C24       1.0  0.00300  0.69930  0.08290  1.0000 -0.1991310223
C   C25       1.0  0.69140  0.88790  0.86890  1.0000 0.2491725789
C   C26       1.0  0.84415  0.54355  0.38600  1.0000 0.1281308508
C   C27       1.0  0.99305  0.62115  0.50870  1.0000 -0.1804694316
C   C28       1.0  0.04040  0.62950  0.56270  1.0000 -0.0485731633
C   C29       1.0  0.73700  0.90550  0.93550  1.0000 -0.1991310223
C   C30       1.0  0.79330  0.35560  0.48030  1.0000 -0.0826036855
C   C31       1.0  0.81990  0.43860  0.54530  1.0000 -0.0371611631
C   C32       1.0  0.05390  0.84200  0.18370  1.0000 -0.1901571571
C   C33       1.0  0.88220  0.66040  0.45100  1.0000 -0.0914418505
C   C34       1.0  0.80618  0.70128  0.76290  1.0000 0.5390418588
C   C35       1.0  0.77280  0.27520  0.49060  1.0000 0.1825237734
C   C36       1.0  0.77350  0.18570  0.39960  1.0000 -0.1901571571
C   C37       1.0  0.96450  0.70430  0.93220  1.0000 0.5390418588
C   C38       1.0  0.83050  0.62620  0.38650  1.0000 -0.0485731633
C   C39       1.0  0.51149  0.37259  0.88730  1.0000 0.1586666735
C   C40       1.0  0.60210  0.64330  0.52320  1.0000 -0.1991310223
C   C41       1.0  0.51609  0.42269  0.88560  1.0000 -0.1901571571
C   C42       1.0  0.30886  0.19936  0.87230  1.0000 0.0997009061
C   C43       1.0  0.60779  0.43249  0.99050  1.0000 0.1586666735
C   C44       1.0  0.64800  0.62090  0.44250  1.0000 -0.0371611631
C   C45       1.0  0.46603  0.96483  0.69980  1.0000 -0.0371611631
C   C46       1.0  0.62350  0.69030  0.46900  1.0000 -0.0914418505
C   C47       1.0  0.44453  0.87173  0.59880  1.0000 -0.0914418505
C   C48       1.0  0.63640  0.59910  0.47190  1.0000 -0.0826036855
C   C49       1.0  0.59010  0.73660  0.52270  1.0000 -0.230706778
C   C50       1.0  0.21514  0.97654  0.48520  1.0000 -0.0485731633
C   C51       1.0  0.44753  0.26223  0.82790  1.0000 0.0997009061
C   C52       1.0  0.57850  0.71220  0.54850  1.0000 0.2405917107
C   C53       1.0  0.16820  0.97440  0.49560  1.0000 -0.0985019791
C   C54       1.0  0.37040  0.24270  0.74090  1.0000 -0.0255651909
C   C55       1.0  0.20920  0.92400  0.39500  1.0000 -0.0826036855
C   C56       1.0  0.11200  0.86760  0.32700  1.0000 0.2405917107
C   C57       1.0  0.40930  0.30290  0.77820  1.0000 -0.1095685556
C   C58       1.0  0.55754  0.37664  0.93910  1.0000 -0.27149663
C   C59       1.0  0.51360  0.98420  0.76340  1.0000 -0.0985019791
C   C60       1.0  0.53960  0.91320  0.72940  1.0000 -0.1991310223
C   C61       1.0  0.68240  0.56660  0.38060  1.0000 0.5390418588
C   C62       1.0  0.11640  0.92010  0.41710  1.0000 -0.1991310223
C   C63       1.0  0.51900  0.82250  0.63110  1.0000 0.2491725789
C   C64       1.0  0.65755  0.45815  0.11400  1.0000 0.1281308508
C   C65       1.0  0.61245  0.48435  0.99130  1.0000 -0.1804694316
C   C66       1.0  0.56680  0.47770  0.93730  1.0000 -0.0485731633
C   C67       1.0  0.47000  0.80150  0.56450  1.0000 -0.1991310223
C   C68       1.0  0.37530  0.31300  0.01970  1.0000 -0.0826036855
C   C69       1.0  0.39330  0.27460  0.95470  1.0000 -0.0371611631
C   C70       1.0  0.15830  0.87020  0.31630  1.0000 -0.1901571571
C   C71       1.0  0.70940  0.43120  0.04900  1.0000 -0.0914418505
C   C72       1.0  0.43838  0.04328  0.73710  1.0000 0.5390418588
C   C73       1.0  0.28460  0.28220  0.00940  1.0000 0.1825237734
C   C74       1.0  0.28610  0.37390  0.10040  1.0000 -0.1901571571
C   C75       1.0  0.27210  0.03230  0.56780  1.0000 0.5390418588
C   C76       1.0  0.73970  0.44400  0.11350  1.0000 -0.0485731633
C   C77       1.0  0.98851  0.87581  0.86110  1.0000 0.1586666735
C   C78       1.0  0.89790  0.42110  0.04120  1.0000 -0.1991310223
C   C79       1.0  0.98391  0.86951  0.90660  1.0000 -0.1901571571
C   C80       1.0  0.19114  0.06344  0.89050  1.0000 0.0997009061
C   C81       1.0  0.89221  0.88271  0.82470  1.0000 0.1586666735
C   C82       1.0  0.85200  0.29450  0.97290  1.0000 -0.0371611631
C   C83       1.0  0.03397  0.73377  0.49880  1.0000 -0.0371611631
C   C84       1.0  0.87650  0.34550  0.06680  1.0000 -0.0914418505
C   C85       1.0  0.05547  0.65427  0.42720  1.0000 -0.0914418505
C   C86       1.0  0.86360  0.33550  0.96270  1.0000 -0.0826036855
C   C87       1.0  0.90990  0.43260  0.14650  1.0000 -0.230706778
C   C88       1.0  0.28486  0.77006  0.76140  1.0000 -0.0485731633
C   C89       1.0  0.05247  0.88037  0.81470  1.0000 0.0997009061
C   C90       1.0  0.92150  0.47000  0.13370  1.0000 0.2405917107
C   C91       1.0  0.33180  0.82740  0.80620  1.0000 -0.0985019791
C   C92       1.0  0.12960  0.87050  0.87230  1.0000 -0.0255651909
C   C93       1.0  0.29080  0.68580  0.71480  1.0000 -0.0826036855
C   C94       1.0  0.38800  0.71500  0.75560  1.0000 0.2405917107
C   C95       1.0  0.09070  0.86890  0.89360  1.0000 -0.1095685556
C   C96       1.0  0.94246  0.88156  0.81910  1.0000 -0.27149663
C   C97       1.0  0.98640  0.74980  0.47060  1.0000 -0.0985019791
C   C98       1.0  0.96040  0.68980  0.37360  1.0000 -0.1991310223
C   C99       1.0  0.81760  0.19820  0.88420  1.0000 0.5390418588
C   C100      1.0  0.38360  0.80070  0.80370  1.0000 -0.1991310223
C   C101      1.0  0.98100  0.61210  0.30350  1.0000 0.2491725789
C   C102      1.0  0.84245  0.95645  0.80060  1.0000 0.1281308508
C   C103      1.0  0.88755  0.87885  0.87190  1.0000 -0.1804694316
C   C104      1.0  0.93320  0.87050  0.91090  1.0000 -0.0485731633
C   C105      1.0  0.03000  0.59450  0.33150  1.0000 -0.1991310223
C   C106      1.0  0.12470  0.14440  0.93770  1.0000 -0.0826036855
C   C107      1.0  0.10670  0.06140  0.88130  1.0000 -0.0371611631
C   C108      1.0  0.34170  0.65800  0.71190  1.0000 -0.1901571571
C   C109      1.0  0.79060  0.83960  0.72180  1.0000 -0.0914418505
C   C110      1.0  0.06162  0.79872  0.60490  1.0000 0.5390418588
C   C111      1.0  0.21540  0.22480  0.99760  1.0000 0.1825237734
C   C112      1.0  0.21390  0.31430  0.08780  1.0000 -0.1901571571
C   C113      1.0  0.22790  0.79570  0.76020  1.0000 0.5390418588
C   C114      1.0  0.76030  0.87380  0.70430  1.0000 -0.0485731633
C   C115      1.0  0.51471  0.12741  0.63890  1.0000 0.1586666735
C   C116      1.0  0.87990  0.85670  0.45880  1.0000 -0.1991310223
C   C117      1.0  0.46291  0.07731  0.59340  1.0000 -0.1901571571
C   C118      1.0  0.67294  0.30064  0.60950  1.0000 0.0997009061
C   C119      1.0  0.55801  0.06751  0.67530  1.0000 0.1586666735
C   C120      1.0  0.82160  0.87910  0.52710  1.0000 -0.0371611631
C   C121      1.0  0.73497  0.53517  0.00120  1.0000 -0.0371611631
C   C122      1.0  0.77870  0.80970  0.43320  1.0000 -0.0914418505
C   C123      1.0  0.72707  0.62827  0.07280  1.0000 -0.0914418505
C   C124      1.0  0.87280  0.90090  0.53730  1.0000 -0.0826036855
C   C125      1.0  0.78610  0.76340  0.35350  1.0000 -0.230706778
C   C126      1.0  0.50866  0.52346  0.73860  1.0000 -0.0485731633
C   C127      1.0  0.56567  0.23777  0.68530  1.0000 0.0997009061
C   C128      1.0  0.83630  0.78780  0.36630  1.0000 0.2405917107
C   C129      1.0  0.52120  0.52560  0.69380  1.0000 -0.0985019791
C   C130      1.0  0.49820  0.25730  0.62770  1.0000 -0.0255651909
C   C131      1.0  0.47100  0.57600  0.78520  1.0000 -0.0826036855
C   C132      1.0  0.45940  0.63240  0.74440  1.0000 0.2405917107
C   C133      1.0  0.47530  0.19710  0.60640  1.0000 -0.1095685556
C   C134      1.0  0.56246  0.12336  0.68090  1.0000 -0.27149663
C   C135      1.0  0.77920  0.51580  0.02940  1.0000 -0.0985019791
C   C136      1.0  0.81620  0.58680  0.12640  1.0000 -0.1991310223
C   C137      1.0  0.81400  0.93340  0.61580  1.0000 0.5390418588
C   C138      1.0  0.49700  0.57990  0.69630  1.0000 -0.1991310223
C   C139      1.0  0.80860  0.67750  0.19650  1.0000 0.2491725789
C   C140      1.0  0.65585  0.04185  0.69940  1.0000 0.1281308508
C   C141      1.0  0.50695  0.01565  0.62810  1.0000 -0.1804694316
C   C142      1.0  0.45960  0.02230  0.58910  1.0000 -0.0485731633
C   C143      1.0  0.76300  0.69850  0.16850  1.0000 -0.1991310223
C   C144      1.0  0.70670  0.18700  0.56230  1.0000 -0.0826036855
C   C145      1.0  0.68010  0.22540  0.61870  1.0000 -0.0371611631
C   C146      1.0  0.44610  0.62980  0.78810  1.0000 -0.1901571571
C   C147      1.0  0.61780  0.06880  0.77820  1.0000 -0.0914418505
C   C148      1.0  0.69382  0.45672  0.89510  1.0000 0.5390418588
C   C149      1.0  0.72720  0.21780  0.50240  1.0000 0.1825237734
C   C150      1.0  0.72650  0.12610  0.41220  1.0000 -0.1901571571
C   C151      1.0  0.53550  0.46770  0.73980  1.0000 0.5390418588
C   C152      1.0  0.66950  0.05600  0.79570  1.0000 -0.0485731633
C   C153      1.0  0.75000  0.29160  0.54160  1.0000 -0.2577073878
C   C154      1.0  0.75000  0.11090  0.36090  1.0000 -0.0485731633
C   C155      1.0  0.25000  0.20840  0.95840  1.0000 -0.2577073878
C   C156      1.0  0.25000  0.38910  0.13910  1.0000 -0.0485731633
C   C157      1.0  0.01471  0.37581  0.38730  1.0000 0.1586666735
C   C158      1.0  0.37990  0.92110  0.02320  1.0000 -0.1991310223
C   C159      1.0  0.96291  0.36951  0.38560  1.0000 -0.1901571571
C   C160      1.0  0.17294  0.56344  0.37230  1.0000 0.0997009061
C   C161      1.0  0.05801  0.38271  0.49050  1.0000 0.1586666735
C   C162      1.0  0.32160  0.79450  0.94250  1.0000 -0.0371611631
C   C163      1.0  0.23497  0.23377  0.19980  1.0000 -0.0371611631
C   C164      1.0  0.27870  0.84550  0.96900  1.0000 -0.0914418505
C   C165      1.0  0.22707  0.15427  0.09880  1.0000 -0.0914418505
C   C166      1.0  0.37280  0.83550  0.97190  1.0000 -0.0826036855
C   C167      1.0  0.28610  0.93260  0.02270  1.0000 -0.230706778
C   C168      1.0  0.00866  0.27006  0.98520  1.0000 -0.0485731633
C   C169      1.0  0.06567  0.38037  0.32790  1.0000 0.0997009061
C   C170      1.0  0.33630  0.97000  0.04850  1.0000 0.2405917107
C   C171      1.0  0.02120  0.32740  0.99560  1.0000 -0.0985019791
C   C172      1.0  0.99820  0.37050  0.24090  1.0000 -0.0255651909
C   C173      1.0  0.97100  0.18580  0.89500  1.0000 -0.0826036855
C   C174      1.0  0.95940  0.21500  0.82700  1.0000 0.2405917107
C   C175      1.0  0.97530  0.36890  0.27820  1.0000 -0.1095685556
C   C176      1.0  0.06246  0.38156  0.43910  1.0000 -0.27149663
C   C177      1.0  0.27920  0.24980  0.26340  1.0000 -0.0985019791
C   C178      1.0  0.31620  0.18980  0.22940  1.0000 -0.1991310223
C   C179      1.0  0.31400  0.69820  0.88060  1.0000 0.5390418588
C   C180      1.0  0.99700  0.30070  0.91710  1.0000 -0.1991310223
C   C181      1.0  0.30860  0.11210  0.13110  1.0000 0.2491725789
C   C182      1.0  0.15585  0.45645  0.61400  1.0000 0.1281308508
C   C183      1.0  0.00695  0.37885  0.49130  1.0000 -0.1804694316
C   C184      1.0  0.95960  0.37050  0.43730  1.0000 -0.0485731633
C   C185      1.0  0.26300  0.09450  0.06450  1.0000 -0.1991310223
C   C186      1.0  0.20670  0.64440  0.51970  1.0000 -0.0826036855
C   C187      1.0  0.18010  0.56140  0.45470  1.0000 -0.0371611631
C   C188      1.0  0.94610  0.15800  0.81630  1.0000 -0.1901571571
C   C189      1.0  0.11780  0.33960  0.54900  1.0000 -0.0914418505
C   C190      1.0  0.19382  0.29872  0.23710  1.0000 0.5390418588
C   C191      1.0  0.22720  0.72480  0.50940  1.0000 0.1825237734
C   C192      1.0  0.22650  0.81430  0.60040  1.0000 -0.1901571571
C   C193      1.0  0.03550  0.29570  0.06780  1.0000 0.5390418588
C   C194      1.0  0.16950  0.37380  0.61350  1.0000 -0.0485731633
C   C195      1.0  0.48851  0.62741  0.11270  1.0000 0.1586666735
C   C196      1.0  0.39790  0.35670  0.47680  1.0000 -0.1991310223
C   C197      1.0  0.48391  0.57731  0.11440  1.0000 -0.1901571571
C   C198      1.0  0.69114  0.80064  0.12770  1.0000 0.0997009061
C   C199      1.0  0.39221  0.56751  0.00950  1.0000 0.1586666735
C   C200      1.0  0.35200  0.37910  0.55750  1.0000 -0.0371611631
C   C201      1.0  0.53397  0.03517  0.30020  1.0000 -0.0371611631
C   C202      1.0  0.37650  0.30970  0.53100  1.0000 -0.0914418505
C   C203      1.0  0.55547  0.12827  0.40120  1.0000 -0.0914418505
C   C204      1.0  0.36360  0.40090  0.52810  1.0000 -0.0826036855
C   C205      1.0  0.40990  0.26340  0.47730  1.0000 -0.230706778
C   C206      1.0  0.78486  0.02346  0.51480  1.0000 -0.0485731633
C   C207      1.0  0.55247  0.73777  0.17210  1.0000 0.0997009061
C   C208      1.0  0.42150  0.28780  0.45150  1.0000 0.2405917107
C   C209      1.0  0.83180  0.02560  0.50440  1.0000 -0.0985019791
C   C210      1.0  0.62960  0.75730  0.25910  1.0000 -0.0255651909
C   C211      1.0  0.79080  0.07600  0.60500  1.0000 -0.0826036855
C   C212      1.0  0.88800  0.13240  0.67300  1.0000 0.2405917107
C   C213      1.0  0.59070  0.69710  0.22180  1.0000 -0.1095685556
C   C214      1.0  0.44246  0.62336  0.06090  1.0000 -0.27149663
C   C215      1.0  0.48640  0.01580  0.23660  1.0000 -0.0985019791
C   C216      1.0  0.46040  0.08680  0.27060  1.0000 -0.1991310223
C   C217      1.0  0.31760  0.43340  0.61940  1.0000 0.5390418588
C   C218      1.0  0.88360  0.07990  0.58290  1.0000 -0.1991310223
C   C219      1.0  0.48100  0.17750  0.36890  1.0000 0.2491725789
C   C220      1.0  0.34245  0.54185  0.88600  1.0000 0.1281308508
C   C221      1.0  0.38755  0.51565  0.00870  1.0000 -0.1804694316
C   C222      1.0  0.43320  0.52230  0.06270  1.0000 -0.0485731633
C   C223      1.0  0.53000  0.19850  0.43550  1.0000 -0.1991310223
C   C224      1.0  0.62470  0.68700  0.98030  1.0000 -0.0826036855
C   C225      1.0  0.60670  0.72540  0.04530  1.0000 -0.0371611631
C   C226      1.0  0.84170  0.12980  0.68370  1.0000 -0.1901571571
C   C227      1.0  0.29060  0.56880  0.95100  1.0000 -0.0914418505
C   C228      1.0  0.56162  0.95672  0.26290  1.0000 0.5390418588
C   C229      1.0  0.71540  0.71780  0.99060  1.0000 0.1825237734
C   C230      1.0  0.71390  0.62610  0.89960  1.0000 -0.1901571571
C   C231      1.0  0.72790  0.96770  0.43220  1.0000 0.5390418588
C   C232      1.0  0.26030  0.55600  0.88650  1.0000 -0.0485731633
C   C233      1.0  0.01149  0.12419  0.13890  1.0000 0.1586666735
C   C234      1.0  0.10210  0.57890  0.95880  1.0000 -0.1991310223
C   C235      1.0  0.01609  0.13049  0.09340  1.0000 -0.1901571571
C   C236      1.0  0.80886  0.93656  0.10950  1.0000 0.0997009061
C   C237      1.0  0.10779  0.11729  0.17530  1.0000 0.1586666735
C   C238      1.0  0.14800  0.70550  0.02710  1.0000 -0.0371611631
C   C239      1.0  0.96603  0.26623  0.50120  1.0000 -0.0371611631
C   C240      1.0  0.12350  0.65450  0.93320  1.0000 -0.0914418505
C   C241      1.0  0.94453  0.34573  0.57280  1.0000 -0.0914418505
C   C242      1.0  0.13640  0.66450  0.03730  1.0000 -0.0826036855
C   C243      1.0  0.09010  0.56740  0.85350  1.0000 -0.230706778
C   C244      1.0  0.71514  0.22994  0.23860  1.0000 -0.0485731633
C   C245      1.0  0.94753  0.11963  0.18530  1.0000 0.0997009061
C   C246      1.0  0.07850  0.53000  0.86630  1.0000 0.2405917107
C   C247      1.0  0.66820  0.17260  0.19380  1.0000 -0.0985019791
C   C248      1.0  0.87040  0.12950  0.12770  1.0000 -0.0255651909
C   C249      1.0  0.70920  0.31420  0.28520  1.0000 -0.0826036855
C   C250      1.0  0.61200  0.28500  0.24440  1.0000 0.2405917107
C   C251      1.0  0.90930  0.13110  0.10640  1.0000 -0.1095685556
C   C252      1.0  0.05754  0.11844  0.18090  1.0000 -0.27149663
C   C253      1.0  0.01360  0.25020  0.52940  1.0000 -0.0985019791
C   C254      1.0  0.03960  0.31020  0.62640  1.0000 -0.1991310223
C   C255      1.0  0.18240  0.80180  0.11580  1.0000 0.5390418588
C   C256      1.0  0.61640  0.19930  0.19630  1.0000 -0.1991310223
C   C257      1.0  0.01900  0.38790  0.69650  1.0000 0.2491725789
C   C258      1.0  0.15755  0.04355  0.19940  1.0000 0.1281308508
C   C259      1.0  0.11245  0.12115  0.12810  1.0000 -0.1804694316
C   C260      1.0  0.06680  0.12950  0.08910  1.0000 -0.0485731633
C   C261      1.0  0.97000  0.40550  0.66850  1.0000 -0.1991310223
C   C262      1.0  0.87530  0.85560  0.06230  1.0000 -0.0826036855
C   C263      1.0  0.89330  0.93860  0.11870  1.0000 -0.0371611631
C   C264      1.0  0.65830  0.34200  0.28810  1.0000 -0.1901571571
C   C265      1.0  0.20940  0.16040  0.27820  1.0000 -0.0914418505
C   C266      1.0  0.93838  0.20128  0.39510  1.0000 0.5390418588
C   C267      1.0  0.78460  0.77520  0.00240  1.0000 0.1825237734
C   C268      1.0  0.78610  0.68570  0.91220  1.0000 -0.1901571571
C   C269      1.0  0.77210  0.20430  0.23980  1.0000 0.5390418588
C   C270      1.0  0.23970  0.12620  0.29570  1.0000 -0.0485731633
C   C271      1.0  0.48529  0.87259  0.36110  1.0000 0.1586666735
C   C272      1.0  0.12010  0.14330  0.54120  1.0000 -0.1991310223
C   C273      1.0  0.53709  0.92269  0.40660  1.0000 -0.1901571571
C   C274      1.0  0.32706  0.69936  0.39050  1.0000 0.0997009061
C   C275      1.0  0.44199  0.93249  0.32470  1.0000 0.1586666735
C   C276      1.0  0.17840  0.12090  0.47290  1.0000 -0.0371611631
C   C277      1.0  0.26503  0.46483  0.99880  1.0000 -0.0371611631
C   C278      1.0  0.22130  0.19030  0.56680  1.0000 -0.0914418505
C   C279      1.0  0.27293  0.37173  0.92720  1.0000 -0.0914418505
C   C280      1.0  0.12720  0.09910  0.46270  1.0000 -0.0826036855
C   C281      1.0  0.21390  0.23660  0.64650  1.0000 -0.230706778
C   C282      1.0  0.49134  0.47654  0.26140  1.0000 -0.0485731633
C   C283      1.0  0.43433  0.76223  0.31470  1.0000 0.0997009061
C   C284      1.0  0.16370  0.21220  0.63370  1.0000 0.2405917107
C   C285      1.0  0.47880  0.47440  0.30620  1.0000 -0.0985019791
C   C286      1.0  0.50180  0.74270  0.37230  1.0000 -0.0255651909
C   C287      1.0  0.52900  0.42400  0.21480  1.0000 -0.0826036855
C   C288      1.0  0.54060  0.36760  0.25560  1.0000 0.2405917107
C   C289      1.0  0.52470  0.80290  0.39360  1.0000 -0.1095685556
C   C290      1.0  0.43754  0.87664  0.31910  1.0000 -0.27149663
C   C291      1.0  0.22080  0.48420  0.97060  1.0000 -0.0985019791
C   C292      1.0  0.18380  0.41320  0.87360  1.0000 -0.1991310223
C   C293      1.0  0.18600  0.06660  0.38420  1.0000 0.5390418588
C   C294      1.0  0.50300  0.42010  0.30370  1.0000 -0.1991310223
C   C295      1.0  0.19140  0.32250  0.80350  1.0000 0.2491725789
C   C296      1.0  0.34415  0.95815  0.30060  1.0000 0.1281308508
C   C297      1.0  0.49305  0.98435  0.37190  1.0000 -0.1804694316
C   C298      1.0  0.54040  0.97770  0.41090  1.0000 -0.0485731633
C   C299      1.0  0.23700  0.30150  0.83150  1.0000 -0.1991310223
C   C300      1.0  0.29330  0.81300  0.43770  1.0000 -0.0826036855
C   C301      1.0  0.31990  0.77460  0.38130  1.0000 -0.0371611631
C   C302      1.0  0.55390  0.37020  0.21190  1.0000 -0.1901571571
C   C303      1.0  0.38220  0.93120  0.22180  1.0000 -0.0914418505
C   C304      1.0  0.30618  0.54328  0.10490  1.0000 0.5390418588
C   C305      1.0  0.27280  0.78220  0.49760  1.0000 0.1825237734
C   C306      1.0  0.27350  0.87390  0.58780  1.0000 -0.1901571571
C   C307      1.0  0.46450  0.53230  0.26020  1.0000 0.5390418588
C   C308      1.0  0.33050  0.94400  0.20430  1.0000 -0.0485731633
C   C309      1.0  0.25000  0.70840  0.45840  1.0000 -0.2577073878
C   C310      1.0  0.25000  0.88910  0.63910  1.0000 -0.0485731633
C   C311      1.0  0.75000  0.79160  0.04160  1.0000 -0.2577073878
C   C312      1.0  0.75000  0.61090  0.86090  1.0000 -0.0485731633
N   N1        1.0  0.98121  0.62465  0.66616  1.0000 0.0032658893
N   N2        1.0  0.94498  0.62162  0.72736  1.0000 -0.27149663
N   N3        1.0  0.84215  0.49035  0.63900  1.0000 -0.27149663
N   N4        1.0  0.89081  0.60771  0.45150  1.0000 0.0032658893
N   N5        1.0  0.80535  0.55305  0.34630  1.0000 -0.27149663
N   N6        1.0  0.79649  0.35259  0.53130  1.0000 0.0032658893
N   N7        1.0  0.45849  0.31505  0.83384  1.0000 0.0032658893
N   N8        1.0  0.39426  0.21762  0.77264  1.0000 -0.27149663
N   N9        1.0  0.35135  0.20315  0.86100  1.0000 -0.27149663
N   N10       1.0  0.65621  0.43931  0.04850  1.0000 0.0032658893
N   N11       1.0  0.70675  0.45905  0.15370  1.0000 -0.27149663
N   N12       1.0  0.32129  0.26519  0.96870  1.0000 0.0032658893
N   N13       1.0  0.04151  0.87535  0.85656  1.0000 0.0032658893
N   N14       1.0  0.10574  0.87838  0.82336  1.0000 -0.27149663
N   N15       1.0  0.14865  0.00965  0.85180  1.0000 -0.27149663
N   N16       1.0  0.84379  0.89229  0.78310  1.0000 0.0032658893
N   N17       1.0  0.79325  0.94695  0.75230  1.0000 -0.27149663
N   N18       1.0  0.17871  0.14741  0.94390  1.0000 0.0032658893
N   N19       1.0  0.51879  0.18495  0.64344  1.0000 0.0032658893
N   N20       1.0  0.55502  0.28238  0.67664  1.0000 -0.27149663
N   N21       1.0  0.65785  0.29685  0.64820  1.0000 -0.27149663
N   N22       1.0  0.60919  0.06069  0.71690  1.0000 0.0032658893
N   N23       1.0  0.69465  0.04095  0.74770  1.0000 -0.27149663
N   N24       1.0  0.70351  0.23481  0.55610  1.0000 0.0032658893
N   N25       1.0  0.01879  0.37535  0.33384  1.0000 0.0032658893
N   N26       1.0  0.05502  0.37838  0.27264  1.0000 -0.27149663
N   N27       1.0  0.15785  0.50965  0.36100  1.0000 -0.27149663
N   N28       1.0  0.10919  0.39229  0.54850  1.0000 0.0032658893
N   N29       1.0  0.19465  0.44695  0.65370  1.0000 -0.27149663
N   N30       1.0  0.20351  0.64741  0.46870  1.0000 0.0032658893
N   N31       1.0  0.54151  0.68495  0.16616  1.0000 0.0032658893
N   N32       1.0  0.60574  0.78238  0.22736  1.0000 -0.27149663
N   N33       1.0  0.64865  0.79685  0.13900  1.0000 -0.27149663
N   N34       1.0  0.34379  0.56069  0.95150  1.0000 0.0032658893
N   N35       1.0  0.29325  0.54095  0.84630  1.0000 -0.27149663
N   N36       1.0  0.67871  0.73481  0.03130  1.0000 0.0032658893
N   N37       1.0  0.95849  0.12465  0.14344  1.0000 0.0032658893
N   N38       1.0  0.89426  0.12162  0.17664  1.0000 -0.27149663
N   N39       1.0  0.85135  0.99035  0.14820  1.0000 -0.27149663
N   N40       1.0  0.15621  0.10771  0.21690  1.0000 0.0032658893
N   N41       1.0  0.20675  0.05305  0.24770  1.0000 -0.27149663
N   N42       1.0  0.82129  0.85259  0.05610  1.0000 0.0032658893
N   N43       1.0  0.48121  0.81505  0.35656  1.0000 0.0032658893
N   N44       1.0  0.44498  0.71762  0.32336  1.0000 -0.27149663
N   N45       1.0  0.34215  0.70315  0.35180  1.0000 -0.27149663
N   N46       1.0  0.39081  0.93931  0.28310  1.0000 0.0032658893
N   N47       1.0  0.30535  0.95905  0.25230  1.0000 -0.27149663
N   N48       1.0  0.29649  0.76519  0.44390  1.0000 0.0032658893
O   O1        1.0  0.64471  0.33713  0.12358  1.0000 -0.5405719883
O   O2        1.0  0.73676  0.34848  0.17088  1.0000 -0.5596306877
O   O3        1.0  0.92711  0.62793  0.85238  1.0000 -0.5596306877
O   O4        1.0  0.65123  0.94373  0.90010  1.0000 -0.207455658
O   O5        1.0  0.97628  0.75758  0.94410  1.0000 -0.5405719883
O   O6        1.0  0.84084  0.71167  0.82257  1.0000 -0.5596306877
O   O7        1.0  0.80660  0.64460  0.68160  1.0000 -0.5468182719
O   O8        1.0  0.71355  0.52113  0.37642  1.0000 -0.5405719883
O   O9        1.0  0.67760  0.56588  0.32912  1.0000 -0.5596306877
O   O10       1.0  0.27555  0.07473  0.64762  1.0000 -0.5596306877
O   O11       1.0  0.54363  0.75113  0.59990  1.0000 -0.207455658
O   O12       1.0  0.31348  0.03218  0.55590  1.0000 -0.5405719883
O   O13       1.0  0.38910  0.01827  0.67743  1.0000 -0.5596306877
O   O14       1.0  0.46300  0.12500  0.81840  1.0000 -0.5468182719
O   O15       1.0  0.78645  0.16287  0.80758  1.0000 -0.5405719883
O   O16       1.0  0.82240  0.15152  0.88828  1.0000 -0.5596306877
O   O17       1.0  0.22445  0.87207  0.79918  1.0000 -0.5596306877
O   O18       1.0  0.95637  0.55627  0.20750  1.0000 -0.207455658
O   O19       1.0  0.18652  0.74242  0.71870  1.0000 -0.5405719883
O   O20       1.0  0.11090  0.78833  0.62917  1.0000 -0.5596306877
O   O21       1.0  0.03700  0.85540  0.66200  1.0000 -0.5468182719
O   O22       1.0  0.85529  0.97887  0.69242  1.0000 -0.5405719883
O   O23       1.0  0.76324  0.93412  0.61172  1.0000 -0.5596306877
O   O24       1.0  0.57289  0.42527  0.70082  1.0000 -0.5596306877
O   O25       1.0  0.84877  0.74887  0.29250  1.0000 -0.207455658
O   O26       1.0  0.52372  0.46782  0.78130  1.0000 -0.5405719883
O   O27       1.0  0.65916  0.48173  0.87083  1.0000 -0.5596306877
O   O28       1.0  0.69340  0.37500  0.83800  1.0000 -0.5468182719
O   O29       1.0  0.05940  0.80940  0.25000  1.0000 -0.2157041288
O   O30       1.0  0.44060  0.69060  0.75000  1.0000 -0.2157041288
O   O31       1.0  0.35529  0.66287  0.87642  1.0000 -0.5405719883
O   O32       1.0  0.26324  0.65152  0.82912  1.0000 -0.5596306877
O   O33       1.0  0.07289  0.37207  0.14762  1.0000 -0.5596306877
O   O34       1.0  0.34877  0.05627  0.09990  1.0000 -0.207455658
O   O35       1.0  0.02372  0.24242  0.05590  1.0000 -0.5405719883
O   O36       1.0  0.15916  0.28833  0.17743  1.0000 -0.5596306877
O   O37       1.0  0.19340  0.35540  0.31840  1.0000 -0.5468182719
O   O38       1.0  0.28645  0.47887  0.62358  1.0000 -0.5405719883
O   O39       1.0  0.32240  0.43412  0.67088  1.0000 -0.5596306877
O   O40       1.0  0.72445  0.92527  0.35238  1.0000 -0.5596306877
O   O41       1.0  0.45637  0.24887  0.40010  1.0000 -0.207455658
O   O42       1.0  0.68652  0.96782  0.44410  1.0000 -0.5405719883
O   O43       1.0  0.61090  0.98173  0.32257  1.0000 -0.5596306877
O   O44       1.0  0.53700  0.87500  0.18160  1.0000 -0.5468182719
O   O45       1.0  0.21355  0.83713  0.19242  1.0000 -0.5405719883
O   O46       1.0  0.17760  0.84848  0.11172  1.0000 -0.5596306877
O   O47       1.0  0.77555  0.12793  0.20082  1.0000 -0.5596306877
O   O48       1.0  0.04363  0.44373  0.79250  1.0000 -0.207455658
O   O49       1.0  0.81348  0.25758  0.28130  1.0000 -0.5405719883
O   O50       1.0  0.88910  0.21167  0.37083  1.0000 -0.5596306877
O   O51       1.0  0.96300  0.14460  0.33800  1.0000 -0.5468182719
O   O52       1.0  0.14471  0.02113  0.30758  1.0000 -0.5405719883
O   O53       1.0  0.23676  0.06588  0.38828  1.0000 -0.5596306877
O   O54       1.0  0.42711  0.57473  0.29918  1.0000 -0.5596306877
O   O55       1.0  0.15123  0.25113  0.70750  1.0000 -0.207455658
O   O56       1.0  0.47628  0.53218  0.21870  1.0000 -0.5405719883
O   O57       1.0  0.34084  0.51827  0.12917  1.0000 -0.5596306877
O   O58       1.0  0.30660  0.62500  0.16200  1.0000 -0.5468182719
O   O59       1.0  0.94060  0.19060  0.75000  1.0000 -0.2157041288
O   O60       1.0  0.55940  0.30940  0.25000  1.0000 -0.2157041288
