# DDEC6 charges by PACMAN v1.1 (https://github.com/mtap-research/PACMAN-charge/)
data_2019[Ce][noq]3[FSR]1
_chemical_formula_sum              "Ce12 H16 C144 Cl48 O108"
_cell_length_a       17.316
_cell_length_b       36.7219
_cell_length_c       23.0564
_cell_angle_alpha    90
_cell_angle_beta     127.661
_cell_angle_gamma    90

_symmetry_space_group_name_H-M    "P 1"
_symmetry_Int_Tables_number       1

loop_
  _symmetry_equiv_pos_as_xyz
  'x, y, z'

loop_
  _atom_site_type_symbol
  _atom_site_label
  _atom_site_symmetry_multiplicity
  _atom_site_fract_x
  _atom_site_fract_y
  _atom_site_fract_z
  _atom_site_occupancy
  _atom_site_charge
Ce  Ce1       1.0  0.30564  0.51006  0.83439  1.0000 2.0055351784
Ce  Ce2       1.0  0.76336  0.63648  0.50608  1.0000 2.0339054397
Ce  Ce3       1.0  0.78578  0.62968  0.90461  1.0000 2.0000097882
Ce  Ce4       1.0  0.69436  0.01006  0.66561  1.0000 2.0000097882
Ce  Ce5       1.0  0.23664  0.13648  0.99392  1.0000 2.0339054397
Ce  Ce6       1.0  0.21422  0.12968  0.59539  1.0000 2.0000097882
Ce  Ce7       1.0  0.69436  0.48994  0.16561  1.0000 2.0000097882
Ce  Ce8       1.0  0.23664  0.36352  0.49392  1.0000 2.0339054397
Ce  Ce9       1.0  0.21422  0.37032  0.09539  1.0000 2.0000097882
Ce  Ce10      1.0  0.30564  0.98994  0.33439  1.0000 2.0055351784
Ce  Ce11      1.0  0.76336  0.86352  0.00608  1.0000 2.0339054397
Ce  Ce12      1.0  0.78578  0.87032  0.40461  1.0000 2.0000097882
H   H1        1.0  0.37910  0.55486  0.97031  1.0000 0.3582943535
H   H2        1.0  0.40361  0.52023  0.99651  1.0000 0.3680566481
H   H3        1.0  0.53885  0.65171  0.43211  1.0000 0.4356347067
H   H4        1.0  0.54647  0.61148  0.43766  1.0000 0.4356347067
H   H5        1.0  0.62090  0.05486  0.52969  1.0000 0.3582943535
H   H6        1.0  0.59639  0.02023  0.50349  1.0000 0.3680566481
H   H7        1.0  0.46115  0.15171  0.06789  1.0000 0.4356347067
H   H8        1.0  0.45353  0.11148  0.06234  1.0000 0.4356347067
H   H9        1.0  0.62090  0.44514  0.02969  1.0000 0.3582943535
H   H10       1.0  0.59639  0.47977  0.00349  1.0000 0.3680566481
H   H11       1.0  0.46115  0.34829  0.56789  1.0000 0.4356347067
H   H12       1.0  0.45353  0.38852  0.56234  1.0000 0.4356347067
H   H13       1.0  0.37910  0.94514  0.47031  1.0000 0.3582943535
H   H14       1.0  0.40361  0.97977  0.49651  1.0000 0.3680566481
H   H15       1.0  0.53885  0.84829  0.93211  1.0000 0.4356347067
H   H16       1.0  0.54647  0.88852  0.93766  1.0000 0.4356347067
C   C1        1.0  0.75230  0.65419  0.64200  1.0000 0.2810319772
C   C2        1.0  0.76570  0.65348  0.75390  1.0000 0.2704229286
C   C3        1.0  0.51890  0.53375  0.87430  1.0000 0.2592826516
C   C4        1.0  0.74940  0.67198  0.69460  1.0000 -0.1180625128
C   C5        1.0  0.75380  0.59996  0.36880  1.0000 0.2592826516
C   C6        1.0  0.69870  0.57269  0.38090  1.0000 0.2704229286
C   C7        1.0  0.74500  0.55773  0.28270  1.0000 0.2810319772
C   C8        1.0  0.33390  0.40914  0.97130  1.0000 -0.1180625128
C   C9        1.0  0.48120  0.59155  0.80230  1.0000 -0.1392439852
C   C10       1.0  0.66160  0.54098  0.33840  1.0000 -0.1112800937
C   C11       1.0  0.17010  0.41103  0.94830  1.0000 0.2865866502
C   C12       1.0  0.61070  0.53235  0.89140  1.0000 -0.1112800937
C   C13       1.0  0.44960  0.56528  0.82640  1.0000 0.2704229286
C   C14       1.0  0.10900  0.55040  0.68840  1.0000 0.2810319772
C   C15       1.0  0.77920  0.59003  0.32420  1.0000 -0.1293036624
C   C16       1.0  0.78180  0.61197  0.75940  1.0000 0.2865866502
C   C17       1.0  0.57530  0.59173  0.82280  1.0000 0.2704229286
C   C18       1.0  0.64610  0.56069  0.87320  1.0000 0.2810319772
C   C19       1.0  0.27370  0.39542  0.98750  1.0000 0.2704229286
C   C20       1.0  0.03030  0.55874  0.61560  1.0000 -0.1029996419
C   C21       1.0  0.76540  0.61279  0.64620  1.0000 0.2704229286
C   C22       1.0  0.12480  0.57321  0.75050  1.0000 0.2810319772
C   C23       1.0  0.68160  0.53222  0.28930  1.0000 0.2810319772
C   C24       1.0  0.71750  0.72206  0.44390  1.0000 0.2810319772
C   C25       1.0  0.78280  0.59431  0.70580  1.0000 -0.1112800937
C   C26       1.0  0.96770  0.58734  0.59920  1.0000 0.2704229286
C   C27       1.0  0.67060  0.75480  0.40900  1.0000 -0.1180625128
C   C28       1.0  0.30950  0.44012  0.92800  1.0000 0.2810319772
C   C29       1.0  0.14070  0.43935  0.89740  1.0000 -0.1293036624
C   C30       1.0  0.98560  0.61133  0.66030  1.0000 0.2704229286
C   C31       1.0  0.20580  0.45586  0.88930  1.0000 0.2592826516
C   C32       1.0  0.72340  0.78548  0.41560  1.0000 0.2810319772
C   C33       1.0  0.82970  0.72059  0.49270  1.0000 0.2704229286
C   C34       1.0  0.88160  0.75218  0.50310  1.0000 -0.1180625128
C   C35       1.0  0.83520  0.78497  0.46830  1.0000 0.2810319772
C   C36       1.0  0.06100  0.60221  0.73320  1.0000 -0.1112800937
C   C37       1.0  0.24770  0.15419  0.85800  1.0000 0.2810319772
C   C38       1.0  0.23430  0.15348  0.74610  1.0000 0.2704229286
C   C39       1.0  0.48110  0.03375  0.62570  1.0000 0.2592826516
C   C40       1.0  0.25060  0.17198  0.80540  1.0000 -0.1180625128
C   C41       1.0  0.24620  0.09996  0.13120  1.0000 0.2592826516
C   C42       1.0  0.30130  0.07269  0.11910  1.0000 0.2704229286
C   C43       1.0  0.25500  0.05773  0.21730  1.0000 0.2810319772
C   C44       1.0  0.66610  0.90914  0.52870  1.0000 -0.1180625128
C   C45       1.0  0.51880  0.09155  0.69770  1.0000 -0.1392439852
C   C46       1.0  0.33840  0.04098  0.16160  1.0000 -0.1112800937
C   C47       1.0  0.82990  0.91103  0.55170  1.0000 0.2865866502
C   C48       1.0  0.38930  0.03235  0.60860  1.0000 -0.1112800937
C   C49       1.0  0.55040  0.06528  0.67360  1.0000 0.2704229286
C   C50       1.0  0.89100  0.05040  0.81160  1.0000 0.2810319772
C   C51       1.0  0.22080  0.09003  0.17580  1.0000 -0.1293036624
C   C52       1.0  0.21820  0.11197  0.74060  1.0000 0.2865866502
C   C53       1.0  0.42470  0.09173  0.67720  1.0000 0.2704229286
C   C54       1.0  0.35390  0.06069  0.62680  1.0000 0.2810319772
C   C55       1.0  0.72630  0.89542  0.51250  1.0000 0.2704229286
C   C56       1.0  0.96970  0.05874  0.88440  1.0000 -0.1029996419
C   C57       1.0  0.23460  0.11279  0.85380  1.0000 0.2704229286
C   C58       1.0  0.87520  0.07321  0.74950  1.0000 0.2810319772
C   C59       1.0  0.31840  0.03222  0.21070  1.0000 0.2810319772
C   C60       1.0  0.28250  0.22206  0.05610  1.0000 0.2810319772
C   C61       1.0  0.21720  0.09431  0.79420  1.0000 -0.1112800937
C   C62       1.0  0.03230  0.08734  0.90080  1.0000 0.2704229286
C   C63       1.0  0.32940  0.25480  0.09100  1.0000 -0.1180625128
C   C64       1.0  0.69050  0.94012  0.57200  1.0000 0.2810319772
C   C65       1.0  0.85930  0.93935  0.60260  1.0000 -0.1293036624
C   C66       1.0  0.01440  0.11133  0.83970  1.0000 0.2704229286
C   C67       1.0  0.79420  0.95586  0.61070  1.0000 0.2592826516
C   C68       1.0  0.27660  0.28548  0.08440  1.0000 0.2810319772
C   C69       1.0  0.17030  0.22059  0.00730  1.0000 0.2704229286
C   C70       1.0  0.11840  0.25218  0.99690  1.0000 -0.1180625128
C   C71       1.0  0.16480  0.28497  0.03170  1.0000 0.2810319772
C   C72       1.0  0.93900  0.10221  0.76680  1.0000 -0.1112800937
C   C73       1.0  0.24770  0.34581  0.35800  1.0000 0.2810319772
C   C74       1.0  0.23430  0.34652  0.24610  1.0000 0.2704229286
C   C75       1.0  0.48110  0.46625  0.12570  1.0000 0.2592826516
C   C76       1.0  0.25060  0.32802  0.30540  1.0000 -0.1180625128
C   C77       1.0  0.24620  0.40004  0.63120  1.0000 0.2592826516
C   C78       1.0  0.30130  0.42731  0.61910  1.0000 0.2704229286
C   C79       1.0  0.25500  0.44227  0.71730  1.0000 0.2810319772
C   C80       1.0  0.66610  0.59086  0.02870  1.0000 -0.1112800937
C   C81       1.0  0.51880  0.40845  0.19770  1.0000 -0.1392439852
C   C82       1.0  0.33840  0.45902  0.66160  1.0000 -0.1112800937
C   C83       1.0  0.82990  0.58897  0.05170  1.0000 0.2865866502
C   C84       1.0  0.38930  0.46765  0.10860  1.0000 -0.1112800937
C   C85       1.0  0.55040  0.43472  0.17360  1.0000 0.2704229286
C   C86       1.0  0.89100  0.44960  0.31160  1.0000 0.2810319772
C   C87       1.0  0.22080  0.40997  0.67580  1.0000 -0.1293036624
C   C88       1.0  0.21820  0.38803  0.24060  1.0000 0.2865866502
C   C89       1.0  0.42470  0.40827  0.17720  1.0000 0.2704229286
C   C90       1.0  0.35390  0.43931  0.12680  1.0000 0.2810319772
C   C91       1.0  0.72630  0.60458  0.01250  1.0000 0.2704229286
C   C92       1.0  0.96970  0.44126  0.38440  1.0000 -0.1029996419
C   C93       1.0  0.23460  0.38721  0.35380  1.0000 0.2704229286
C   C94       1.0  0.87520  0.42679  0.24950  1.0000 0.2810319772
C   C95       1.0  0.31840  0.46778  0.71070  1.0000 0.2810319772
C   C96       1.0  0.28250  0.27794  0.55610  1.0000 0.2810319772
C   C97       1.0  0.21720  0.40569  0.29420  1.0000 -0.1112800937
C   C98       1.0  0.03230  0.41266  0.40080  1.0000 0.2704229286
C   C99       1.0  0.32940  0.24520  0.59100  1.0000 -0.1180625128
C   C100      1.0  0.69050  0.55988  0.07200  1.0000 0.2810319772
C   C101      1.0  0.85930  0.56065  0.10260  1.0000 -0.1392439852
C   C102      1.0  0.01440  0.38867  0.33970  1.0000 0.2704229286
C   C103      1.0  0.79420  0.54414  0.11070  1.0000 0.2592826516
C   C104      1.0  0.27660  0.21452  0.58440  1.0000 0.2810319772
C   C105      1.0  0.17030  0.27941  0.50730  1.0000 0.2704229286
C   C106      1.0  0.11840  0.24782  0.49690  1.0000 -0.1112800937
C   C107      1.0  0.16480  0.21503  0.53170  1.0000 0.2810319772
C   C108      1.0  0.93900  0.39779  0.26680  1.0000 -0.1112800937
C   C109      1.0  0.75230  0.84581  0.14200  1.0000 0.2810319772
C   C110      1.0  0.76570  0.84652  0.25390  1.0000 0.2704229286
C   C111      1.0  0.51890  0.96625  0.37430  1.0000 0.2592826516
C   C112      1.0  0.74940  0.82802  0.19460  1.0000 -0.1180625128
C   C113      1.0  0.75380  0.90004  0.86880  1.0000 0.2592826516
C   C114      1.0  0.69870  0.92731  0.88090  1.0000 0.2704229286
C   C115      1.0  0.74500  0.94227  0.78270  1.0000 0.2810319772
C   C116      1.0  0.33390  0.09086  0.47130  1.0000 -0.1112800937
C   C117      1.0  0.48120  0.90845  0.30230  1.0000 -0.1392439852
C   C118      1.0  0.66160  0.95902  0.83840  1.0000 -0.1112800937
C   C119      1.0  0.17010  0.08897  0.44830  1.0000 0.2865866502
C   C120      1.0  0.61070  0.96765  0.39140  1.0000 -0.1112800937
C   C121      1.0  0.44960  0.93472  0.32640  1.0000 0.2704229286
C   C122      1.0  0.10900  0.94960  0.18840  1.0000 0.2810319772
C   C123      1.0  0.77920  0.90997  0.82420  1.0000 -0.1293036624
C   C124      1.0  0.78180  0.88803  0.25940  1.0000 0.2865866502
C   C125      1.0  0.57530  0.90827  0.32280  1.0000 0.2704229286
C   C126      1.0  0.64610  0.93931  0.37320  1.0000 0.2810319772
C   C127      1.0  0.27370  0.10458  0.48750  1.0000 0.2704229286
C   C128      1.0  0.03030  0.94126  0.11560  1.0000 -0.1029996419
C   C129      1.0  0.76540  0.88721  0.14620  1.0000 0.2704229286
C   C130      1.0  0.12480  0.92679  0.25050  1.0000 0.2810319772
C   C131      1.0  0.68160  0.96778  0.78930  1.0000 0.2810319772
C   C132      1.0  0.71750  0.77794  0.94390  1.0000 0.2810319772
C   C133      1.0  0.78280  0.90569  0.20580  1.0000 -0.1112800937
C   C134      1.0  0.96770  0.91266  0.09920  1.0000 0.2704229286
C   C135      1.0  0.67060  0.74520  0.90900  1.0000 -0.1180625128
C   C136      1.0  0.30950  0.05988  0.42800  1.0000 0.2810319772
C   C137      1.0  0.14070  0.06065  0.39740  1.0000 -0.1293036624
C   C138      1.0  0.98560  0.88867  0.16030  1.0000 0.2704229286
C   C139      1.0  0.20580  0.04414  0.38930  1.0000 0.2592826516
C   C140      1.0  0.72340  0.71452  0.91560  1.0000 0.2810319772
C   C141      1.0  0.82970  0.77941  0.99270  1.0000 0.2704229286
C   C142      1.0  0.88160  0.74782  0.00310  1.0000 -0.1180625128
C   C143      1.0  0.83520  0.71503  0.96830  1.0000 0.2810319772
C   C144      1.0  0.06100  0.89779  0.23320  1.0000 -0.1112800937
Cl  Cl1       1.0  0.84598  0.61962  0.31120  1.0000 0.0589501143
Cl  Cl2       1.0  0.58346  0.51328  0.34208  1.0000 -0.0279955294
Cl  Cl3       1.0  0.45054  0.39182  0.01636  1.0000 -0.0027955891
Cl  Cl4       1.0  0.72864  0.71842  0.68501  1.0000 0.0018969089
Cl  Cl5       1.0  0.68993  0.49794  0.94872  1.0000 -0.0279955294
Cl  Cl6       1.0  0.54487  0.75630  0.35453  1.0000 -0.0057787424
Cl  Cl7       1.0  0.00485  0.53104  0.54533  1.0000 -0.0211742452
Cl  Cl8       1.0  0.00869  0.75101  0.56250  1.0000 0.129949507
Cl  Cl9       1.0  0.40554  0.62842  0.75299  1.0000 0.0509985374
Cl  Cl10      1.0  0.07218  0.62736  0.80162  1.0000 -0.0027955891
Cl  Cl11      1.0  0.02504  0.45770  0.85352  1.0000 0.1006391352
Cl  Cl12      1.0  0.80264  0.54791  0.71381  1.0000 -0.0027955891
Cl  Cl13      1.0  0.15402  0.11962  0.18880  1.0000 0.0589501143
Cl  Cl14      1.0  0.41654  0.01328  0.15792  1.0000 -0.0279955294
Cl  Cl15      1.0  0.54946  0.89182  0.48364  1.0000 -0.0057787424
Cl  Cl16      1.0  0.27136  0.21842  0.81499  1.0000 0.0018969089
Cl  Cl17      1.0  0.31007  0.99794  0.55128  1.0000 -0.0279955294
Cl  Cl18      1.0  0.45513  0.25630  0.14547  1.0000 -0.0057787424
Cl  Cl19      1.0  0.99515  0.03104  0.95467  1.0000 -0.0211742452
Cl  Cl20      1.0  0.99131  0.25101  0.93750  1.0000 0.1210896627
Cl  Cl21      1.0  0.59446  0.12842  0.74701  1.0000 0.0509985374
Cl  Cl22      1.0  0.92782  0.12736  0.69838  1.0000 -0.0027955891
Cl  Cl23      1.0  0.97496  0.95770  0.64648  1.0000 0.1006391352
Cl  Cl24      1.0  0.19736  0.04791  0.78619  1.0000 -0.0027955891
Cl  Cl25      1.0  0.15402  0.38038  0.68880  1.0000 0.0589501143
Cl  Cl26      1.0  0.41654  0.48672  0.65792  1.0000 -0.0211742452
Cl  Cl27      1.0  0.54946  0.60818  0.98364  1.0000 -0.0057787424
Cl  Cl28      1.0  0.27136  0.28158  0.31499  1.0000 0.0018969089
Cl  Cl29      1.0  0.31007  0.50206  0.05128  1.0000 -0.0279955294
Cl  Cl30      1.0  0.45513  0.24370  0.64547  1.0000 -0.0057787424
Cl  Cl31      1.0  0.99515  0.46896  0.45467  1.0000 -0.0211742452
Cl  Cl32      1.0  0.99131  0.24899  0.43750  1.0000 0.1210896627
Cl  Cl33      1.0  0.59446  0.37158  0.24701  1.0000 0.0509985374
Cl  Cl34      1.0  0.92782  0.37264  0.19838  1.0000 -0.0027955891
Cl  Cl35      1.0  0.97496  0.54230  0.14648  1.0000 0.1210896627
Cl  Cl36      1.0  0.19736  0.45209  0.28619  1.0000 -0.0027955891
Cl  Cl37      1.0  0.84598  0.88038  0.81120  1.0000 0.0661574086
Cl  Cl38      1.0  0.58346  0.98672  0.84208  1.0000 -0.0279955294
Cl  Cl39      1.0  0.45054  0.10818  0.51636  1.0000 -0.0057787424
Cl  Cl40      1.0  0.72864  0.78158  0.18501  1.0000 0.0018969089
Cl  Cl41      1.0  0.68993  0.00206  0.44872  1.0000 -0.0279955294
Cl  Cl42      1.0  0.54487  0.74370  0.85453  1.0000 -0.0057787424
Cl  Cl43      1.0  0.00485  0.96896  0.04533  1.0000 -0.0211742452
Cl  Cl44      1.0  0.00869  0.74899  0.06250  1.0000 0.129949507
Cl  Cl45      1.0  0.40554  0.87158  0.25299  1.0000 0.0509985374
Cl  Cl46      1.0  0.07218  0.87264  0.30162  1.0000 -0.0027955891
Cl  Cl47      1.0  0.02504  0.04230  0.35352  1.0000 0.1077863282
Cl  Cl48      1.0  0.80264  0.95209  0.21381  1.0000 -0.0027955891
O   O1        1.0  0.77181  0.63032  0.40021  1.0000 -0.4716874102
O   O2        1.0  0.48730  0.51157  0.89740  1.0000 -0.4797277477
O   O3        1.0  0.36459  0.45740  0.92059  1.0000 -0.4381980559
O   O4        1.0  0.73180  0.56445  0.89610  1.0000 -0.4381980559
O   O5        1.0  0.75870  0.54855  0.23700  1.0000 -0.4797277477
O   O6        1.0  0.18700  0.48438  0.85160  1.0000 -0.4875183882
O   O7        1.0  0.40640  0.53543  0.96930  1.0000 -0.71628005
O   O8        1.0  0.16690  0.52437  0.70750  1.0000 -0.4716874102
O   O9        1.0  0.19320  0.56306  0.81440  1.0000 -0.4580031038
O   O10       1.0  0.67500  0.69296  0.43730  1.0000 -0.4797277477
O   O11       1.0  0.76670  0.66754  0.80440  1.0000 -0.4580031038
O   O12       1.0  0.74200  0.66985  0.58990  1.0000 -0.4580031038
O   O13       1.0  0.64860  0.50485  0.24870  1.0000 -0.4580031038
O   O14       1.0  0.36830  0.56533  0.81430  1.0000 -0.4797277477
O   O15       1.0  0.68520  0.58135  0.42710  1.0000 -0.4875183882
O   O16       1.0  0.68520  0.81456  0.38090  1.0000 -0.4330021271
O   O17       1.0  0.89550  0.59533  0.53520  1.0000 -0.4797277477
O   O18       1.0  0.92760  0.63735  0.64000  1.0000 -0.4381980559
O   O19       1.0  0.29830  0.37141  0.03460  1.0000 -0.4580031038
O   O20       1.0  0.61050  0.61535  0.80570  1.0000 -0.4511339327
O   O21       1.0  0.79260  0.59677  0.81210  1.0000 -0.4208932737
O   O22       1.0  0.86780  0.69038  0.52220  1.0000 -0.4511339327
O   O23       1.0  0.87710  0.81445  0.47650  1.0000 -0.4580031038
O   O24       1.0  0.12150  0.39708  0.96520  1.0000 -0.4208932737
O   O25       1.0  0.76090  0.59811  0.59510  1.0000 -0.4797277477
O   O26       1.0  0.95820  0.61764  0.95350  1.0000 -0.5589690675
O   O27       1.0  0.58300  0.63260  0.44780  1.0000 -0.7683447072
O   O28       1.0  0.22819  0.13032  0.09979  1.0000 -0.4716874102
O   O29       1.0  0.51270  0.01157  0.60260  1.0000 -0.4797277477
O   O30       1.0  0.63541  0.95740  0.57941  1.0000 -0.4381980559
O   O31       1.0  0.26820  0.06445  0.60390  1.0000 -0.4381980559
O   O32       1.0  0.24130  0.04855  0.26300  1.0000 -0.4716874102
O   O33       1.0  0.81300  0.98438  0.64840  1.0000 -0.4875183882
O   O34       1.0  0.59360  0.03543  0.53070  1.0000 -0.71628005
O   O35       1.0  0.83310  0.02437  0.79250  1.0000 -0.4716874102
O   O36       1.0  0.80680  0.06306  0.68560  1.0000 -0.4580031038
O   O37       1.0  0.32500  0.19296  0.06270  1.0000 -0.4797277477
O   O38       1.0  0.23330  0.16754  0.69560  1.0000 -0.4580031038
O   O39       1.0  0.25800  0.16985  0.91010  1.0000 -0.4580031038
O   O40       1.0  0.35140  0.00485  0.25130  1.0000 -0.4511339327
O   O41       1.0  0.63170  0.06533  0.68570  1.0000 -0.4797277477
O   O42       1.0  0.31480  0.08135  0.07290  1.0000 -0.4875183882
O   O43       1.0  0.31480  0.31456  0.11910  1.0000 -0.4330021271
O   O44       1.0  0.10450  0.09533  0.96480  1.0000 -0.4797277477
O   O45       1.0  0.07240  0.13735  0.86000  1.0000 -0.4330021271
O   O46       1.0  0.70170  0.87141  0.46540  1.0000 -0.4580031038
O   O47       1.0  0.38950  0.11535  0.69430  1.0000 -0.4511339327
O   O48       1.0  0.20740  0.09677  0.68790  1.0000 -0.4208932737
O   O49       1.0  0.13220  0.19038  0.97780  1.0000 -0.4511339327
O   O50       1.0  0.12290  0.31445  0.02350  1.0000 -0.4580031038
O   O51       1.0  0.87850  0.89708  0.53480  1.0000 -0.4208932737
O   O52       1.0  0.23910  0.09811  0.90490  1.0000 -0.4797277477
O   O53       1.0  0.04180  0.11764  0.54650  1.0000 -0.5771270463
O   O54       1.0  0.41700  0.13260  0.05220  1.0000 -0.7683447072
O   O55       1.0  0.22819  0.36968  0.59979  1.0000 -0.4716874102
O   O56       1.0  0.51270  0.48843  0.10260  1.0000 -0.4797277477
O   O57       1.0  0.63541  0.54260  0.07941  1.0000 -0.4381980559
O   O58       1.0  0.26820  0.43555  0.10390  1.0000 -0.4381980559
O   O59       1.0  0.24130  0.45145  0.76300  1.0000 -0.4716874102
O   O60       1.0  0.81300  0.51562  0.14840  1.0000 -0.4875183882
O   O61       1.0  0.59360  0.46457  0.03070  1.0000 -0.71628005
O   O62       1.0  0.83310  0.47563  0.29250  1.0000 -0.4580031038
O   O63       1.0  0.80680  0.43694  0.18560  1.0000 -0.4580031038
O   O64       1.0  0.32500  0.30704  0.56270  1.0000 -0.4797277477
O   O65       1.0  0.23330  0.33246  0.19560  1.0000 -0.4580031038
O   O66       1.0  0.25800  0.33015  0.41010  1.0000 -0.4580031038
O   O67       1.0  0.35140  0.49515  0.75130  1.0000 -0.4580031038
O   O68       1.0  0.63170  0.43467  0.18570  1.0000 -0.4797277477
O   O69       1.0  0.31480  0.41865  0.57290  1.0000 -0.4875183882
O   O70       1.0  0.31480  0.18544  0.61910  1.0000 -0.4330021271
O   O71       1.0  0.10450  0.40467  0.46480  1.0000 -0.4797277477
O   O72       1.0  0.07240  0.36265  0.36000  1.0000 -0.4381980559
O   O73       1.0  0.70170  0.62859  0.96540  1.0000 -0.4580031038
O   O74       1.0  0.38950  0.38465  0.19430  1.0000 -0.4511339327
O   O75       1.0  0.20740  0.40323  0.18790  1.0000 -0.4208932737
O   O76       1.0  0.13220  0.30962  0.47780  1.0000 -0.4511339327
O   O77       1.0  0.12290  0.18555  0.52350  1.0000 -0.4580031038
O   O78       1.0  0.87850  0.60292  0.03480  1.0000 -0.4208932737
O   O79       1.0  0.23910  0.40189  0.40490  1.0000 -0.4797277477
O   O80       1.0  0.04180  0.38236  0.04650  1.0000 -0.5589690675
O   O81       1.0  0.41700  0.36740  0.55220  1.0000 -0.7683447072
O   O82       1.0  0.77181  0.86968  0.90021  1.0000 -0.4716874102
O   O83       1.0  0.48730  0.98843  0.39740  1.0000 -0.4797277477
O   O84       1.0  0.36459  0.04260  0.42059  1.0000 -0.4381980559
O   O85       1.0  0.73180  0.93555  0.39610  1.0000 -0.4381980559
O   O86       1.0  0.75870  0.95145  0.73700  1.0000 -0.4716874102
O   O87       1.0  0.18700  0.01562  0.35160  1.0000 -0.4875183882
O   O88       1.0  0.40640  0.96457  0.46930  1.0000 -0.71628005
O   O89       1.0  0.16690  0.97563  0.20750  1.0000 -0.4716874102
O   O90       1.0  0.19320  0.93694  0.31440  1.0000 -0.4580031038
O   O91       1.0  0.67500  0.80704  0.93730  1.0000 -0.4797277477
O   O92       1.0  0.76670  0.83246  0.30440  1.0000 -0.4580031038
O   O93       1.0  0.74200  0.83015  0.08990  1.0000 -0.4580031038
O   O94       1.0  0.64860  0.99515  0.74870  1.0000 -0.4511339327
O   O95       1.0  0.36830  0.93467  0.31430  1.0000 -0.4797277477
O   O96       1.0  0.68520  0.91865  0.92710  1.0000 -0.4875183882
O   O97       1.0  0.68520  0.68544  0.88090  1.0000 -0.4330021271
O   O98       1.0  0.89550  0.90467  0.03520  1.0000 -0.4797277477
O   O99       1.0  0.92760  0.86265  0.14000  1.0000 -0.4381980559
O   O100      1.0  0.29830  0.12859  0.53460  1.0000 -0.4511339327
O   O101      1.0  0.61050  0.88465  0.30570  1.0000 -0.4511339327
O   O102      1.0  0.79260  0.90323  0.31210  1.0000 -0.4208932737
O   O103      1.0  0.86780  0.80962  0.02220  1.0000 -0.4511339327
O   O104      1.0  0.87710  0.68555  0.97650  1.0000 -0.4580031038
O   O105      1.0  0.12150  0.10292  0.46520  1.0000 -0.4208932737
O   O106      1.0  0.76090  0.90189  0.09510  1.0000 -0.4797277477
O   O107      1.0  0.95820  0.88236  0.45350  1.0000 -0.5589690675
O   O108      1.0  0.58300  0.86740  0.94780  1.0000 -0.7683447072
