# DDEC6 charges by PACMAN v1.1 (https://github.com/mtap-research/PACMAN-charge/)
data_2019[Cu][bto]3[FSR]5
_chemical_formula_sum              "Cu6 H36 C42 N18 O18"
_cell_length_a       10.79
_cell_length_b       10.79
_cell_length_c       16.891
_cell_angle_alpha    90
_cell_angle_beta     90
_cell_angle_gamma    120

_symmetry_space_group_name_H-M    "P 1"
_symmetry_Int_Tables_number       1

loop_
  _symmetry_equiv_pos_as_xyz
  'x, y, z'

loop_
  _atom_site_type_symbol
  _atom_site_label
  _atom_site_symmetry_multiplicity
  _atom_site_fract_x
  _atom_site_fract_y
  _atom_site_fract_z
  _atom_site_occupancy
  _atom_site_charge
Cu  Cu1       1.0  0.29035  0.86523  0.96958  1.0000 0.7384800749
Cu  Cu2       1.0  0.13477  0.42512  0.30291  1.0000 0.7384800749
Cu  Cu3       1.0  0.57488  0.70965  0.63625  1.0000 0.7384800749
Cu  Cu4       1.0  0.86523  0.29035  0.03042  1.0000 0.7384800749
Cu  Cu5       1.0  0.42512  0.13477  0.69709  1.0000 0.7384800749
Cu  Cu6       1.0  0.70965  0.57488  0.36375  1.0000 0.7384800749
H   H1        1.0  0.39340  0.92370  0.25250  1.0000 0.3079185821
H   H2        1.0  0.32540  0.76760  0.14200  1.0000 0.1198043736
H   H3        1.0  0.42000  0.15570  0.21690  1.0000 0.136828153
H   H4        1.0  0.38030  0.25600  0.07970  1.0000 0.1286470082
H   H5        1.0  0.24860  0.12760  0.03630  1.0000 0.1286470082
H   H6        1.0  0.42360  0.26460  0.94110  1.0000 0.0956709893
H   H7        1.0  0.07630  0.46970  0.58583  1.0000 0.3079185821
H   H8        1.0  0.23240  0.55780  0.47533  1.0000 0.1198043736
H   H9        1.0  0.84430  0.26430  0.55023  1.0000 0.136828153
H   H10       1.0  0.74400  0.12430  0.41303  1.0000 0.1286470082
H   H11       1.0  0.87240  0.12100  0.36963  1.0000 0.1286470082
H   H12       1.0  0.73540  0.15900  0.27443  1.0000 0.0956709893
H   H13       1.0  0.53030  0.60660  0.91917  1.0000 0.3079185821
H   H14       1.0  0.44220  0.67460  0.80867  1.0000 0.1198043736
H   H15       1.0  0.73570  0.58000  0.88357  1.0000 0.136828153
H   H16       1.0  0.87570  0.61970  0.74637  1.0000 0.1286470082
H   H17       1.0  0.87900  0.75140  0.70297  1.0000 0.1286470082
H   H18       1.0  0.84100  0.57640  0.60777  1.0000 0.0956709893
H   H19       1.0  0.92370  0.39340  0.74750  1.0000 0.3079185821
H   H20       1.0  0.76760  0.32540  0.85800  1.0000 0.1198043736
H   H21       1.0  0.15570  0.42000  0.78310  1.0000 0.136828153
H   H22       1.0  0.25600  0.38030  0.92030  1.0000 0.1286470082
H   H23       1.0  0.12760  0.24860  0.96370  1.0000 0.1286470082
H   H24       1.0  0.26460  0.42360  0.05890  1.0000 0.0956709893
H   H25       1.0  0.46970  0.07630  0.41417  1.0000 0.3079185821
H   H26       1.0  0.55780  0.23240  0.52467  1.0000 0.1198043736
H   H27       1.0  0.26430  0.84430  0.44977  1.0000 0.136828153
H   H28       1.0  0.12430  0.74400  0.58697  1.0000 0.1286470082
H   H29       1.0  0.12100  0.87240  0.63037  1.0000 0.1286470082
H   H30       1.0  0.15900  0.73540  0.72557  1.0000 0.0956709893
H   H31       1.0  0.60660  0.53030  0.08083  1.0000 0.3079185821
H   H32       1.0  0.67460  0.44220  0.19133  1.0000 0.1198043736
H   H33       1.0  0.58000  0.73570  0.11643  1.0000 0.136828153
H   H34       1.0  0.61970  0.87570  0.25363  1.0000 0.1286470082
H   H35       1.0  0.75140  0.87900  0.29703  1.0000 0.1286470082
H   H36       1.0  0.57640  0.84100  0.39223  1.0000 0.0956709893
C   C1        1.0  0.34100  0.86140  0.14240  1.0000 0.1785254304
C   C2        1.0  0.39340  0.07560  0.18430  1.0000 -0.1104607297
C   C3        1.0  0.35990  0.06240  0.10530  1.0000 0.1785254304
C   C4        1.0  0.34920  0.16610  0.05110  1.0000 -0.2882598801
C   C5        1.0  0.44000  0.19850  0.97430  1.0000 0.0265306507
C   C6        1.0  0.40320  0.07210  0.85360  1.0000 0.3536592361
C   C7        1.0  0.60110  0.27370  0.99600  1.0000 0.562638505
C   C8        1.0  0.13860  0.47960  0.47573  1.0000 0.1785254304
C   C9        1.0  0.92440  0.31780  0.51763  1.0000 -0.1104607297
C   C10       1.0  0.93760  0.29750  0.43863  1.0000 0.1785254304
C   C11       1.0  0.83390  0.18310  0.38443  1.0000 -0.2882598801
C   C12       1.0  0.80150  0.24150  0.30763  1.0000 0.0265306507
C   C13       1.0  0.92790  0.33110  0.18693  1.0000 0.3536592361
C   C14       1.0  0.72630  0.32740  0.32933  1.0000 0.562638505
C   C15       1.0  0.52040  0.65900  0.80907  1.0000 0.1785254304
C   C16       1.0  0.68220  0.60660  0.85097  1.0000 -0.1104607297
C   C17       1.0  0.70250  0.64010  0.77197  1.0000 0.1785254304
C   C18       1.0  0.81690  0.65080  0.71777  1.0000 -0.2882598801
C   C19       1.0  0.75850  0.56000  0.64097  1.0000 0.0265306507
C   C20       1.0  0.66890  0.59680  0.52027  1.0000 0.3536592361
C   C21       1.0  0.67260  0.39890  0.66267  1.0000 0.562638505
C   C22       1.0  0.86140  0.34100  0.85760  1.0000 0.1785254304
C   C23       1.0  0.07560  0.39340  0.81570  1.0000 -0.1104607297
C   C24       1.0  0.06240  0.35990  0.89470  1.0000 0.1785254304
C   C25       1.0  0.16610  0.34920  0.94890  1.0000 -0.2882598801
C   C26       1.0  0.19850  0.44000  0.02570  1.0000 0.0265306507
C   C27       1.0  0.07210  0.40320  0.14640  1.0000 0.3536592361
C   C28       1.0  0.27370  0.60110  0.00400  1.0000 0.562638505
C   C29       1.0  0.47960  0.13860  0.52427  1.0000 0.1785254304
C   C30       1.0  0.31780  0.92440  0.48237  1.0000 -0.1104607297
C   C31       1.0  0.29750  0.93760  0.56137  1.0000 0.1785254304
C   C32       1.0  0.18310  0.83390  0.61557  1.0000 -0.2882598801
C   C33       1.0  0.24150  0.80150  0.69237  1.0000 0.0265306507
C   C34       1.0  0.33110  0.92790  0.81307  1.0000 0.3536592361
C   C35       1.0  0.32740  0.72630  0.67067  1.0000 0.562638505
C   C36       1.0  0.65900  0.52040  0.19093  1.0000 0.1785254304
C   C37       1.0  0.60660  0.68220  0.14903  1.0000 -0.1104607297
C   C38       1.0  0.64010  0.70250  0.22803  1.0000 0.1785254304
C   C39       1.0  0.65080  0.81690  0.28223  1.0000 -0.2882598801
C   C40       1.0  0.56000  0.75850  0.35903  1.0000 0.0265306507
C   C41       1.0  0.59680  0.66890  0.47973  1.0000 0.3536592361
C   C42       1.0  0.39890  0.67260  0.33733  1.0000 0.562638505
N   N1        1.0  0.32800  0.92890  0.08050  1.0000 -0.3568920804
N   N2        1.0  0.37930  0.94640  0.20530  1.0000 -0.1791633629
N   N3        1.0  0.39030  0.06440  0.93046  1.0000 -0.419535966
N   N4        1.0  0.07110  0.39910  0.41383  1.0000 -0.3568920804
N   N5        1.0  0.05360  0.43290  0.53863  1.0000 -0.1791633629
N   N6        1.0  0.93560  0.32590  0.26379  1.0000 -0.419535966
N   N7        1.0  0.60090  0.67200  0.74717  1.0000 -0.3568920804
N   N8        1.0  0.56710  0.62070  0.87197  1.0000 -0.1791633629
N   N9        1.0  0.67410  0.60970  0.59713  1.0000 -0.419535966
N   N10       1.0  0.92890  0.32800  0.91950  1.0000 -0.3568920804
N   N11       1.0  0.94640  0.37930  0.79470  1.0000 -0.1791633629
N   N12       1.0  0.06440  0.39030  0.06954  1.0000 -0.419535966
N   N13       1.0  0.39910  0.07110  0.58617  1.0000 -0.3568920804
N   N14       1.0  0.43290  0.05360  0.46137  1.0000 -0.1791633629
N   N15       1.0  0.32590  0.93560  0.73621  1.0000 -0.419535966
N   N16       1.0  0.67200  0.60090  0.25283  1.0000 -0.3568920804
N   N17       1.0  0.62070  0.56710  0.12803  1.0000 -0.1791633629
N   N18       1.0  0.60970  0.67410  0.40287  1.0000 -0.419535966
O   O1        1.0  0.46440  0.18610  0.81062  1.0000 -0.482091453
O   O2        1.0  0.66040  0.19810  0.99850  1.0000 -0.5077940189
O   O3        1.0  0.66140  0.40630  0.01140  1.0000 -0.6116779509
O   O4        1.0  0.81390  0.27830  0.14395  1.0000 -0.482091453
O   O5        1.0  0.80190  0.46230  0.33183  1.0000 -0.5077940189
O   O6        1.0  0.59370  0.25510  0.34473  1.0000 -0.6116779509
O   O7        1.0  0.72170  0.53560  0.47729  1.0000 -0.482091453
O   O8        1.0  0.53770  0.33960  0.66517  1.0000 -0.5077940189
O   O9        1.0  0.74490  0.33860  0.67807  1.0000 -0.6116779509
O   O10       1.0  0.18610  0.46440  0.18938  1.0000 -0.482091453
O   O11       1.0  0.19810  0.66040  0.00150  1.0000 -0.5077940189
O   O12       1.0  0.40630  0.66140  0.98860  1.0000 -0.6116779509
O   O13       1.0  0.27830  0.81390  0.85605  1.0000 -0.482091453
O   O14       1.0  0.46230  0.80190  0.66817  1.0000 -0.5077940189
O   O15       1.0  0.25510  0.59370  0.65527  1.0000 -0.6116779509
O   O16       1.0  0.53560  0.72170  0.52271  1.0000 -0.482091453
O   O17       1.0  0.33960  0.53770  0.33483  1.0000 -0.5077940189
O   O18       1.0  0.33860  0.74490  0.32193  1.0000 -0.6116779509
