# DDEC6 charges by PACMAN v1.1 (https://github.com/mtap-research/PACMAN-charge/)
data_2019[Nd][nan]3[FSR]1
_chemical_formula_sum              "Nd4 H20 C28 S2 N4 O28"
_cell_length_a       13.3
_cell_length_b       13.3
_cell_length_c       8.8425
_cell_angle_alpha    74.1981
_cell_angle_beta     105.802
_cell_angle_gamma    116.174

_symmetry_space_group_name_H-M    "P 1"
_symmetry_Int_Tables_number       1

loop_
  _symmetry_equiv_pos_as_xyz
  'x, y, z'

loop_
  _atom_site_type_symbol
  _atom_site_label
  _atom_site_symmetry_multiplicity
  _atom_site_fract_x
  _atom_site_fract_y
  _atom_site_fract_z
  _atom_site_occupancy
  _atom_site_charge
Nd  Nd1       1.0  0.80882  0.07036  0.90237  1.0000 2.1023754766
Nd  Nd2       1.0  0.07036  0.80882  0.59763  1.0000 2.1023754766
Nd  Nd3       1.0  0.19118  0.92964  0.09763  1.0000 2.1023754766
Nd  Nd4       1.0  0.92964  0.19118  0.40237  1.0000 2.1023754766
H   H1        1.0  0.59334  0.85666  0.90650  1.0000 0.3897940432
H   H2        1.0  0.64975  0.84885  0.79369  1.0000 0.3897940432
H   H3        1.0  0.11762  0.35486  0.03808  1.0000 0.1360127363
H   H4        1.0  0.18526  0.52412  0.13732  1.0000 0.1299006989
H   H5        1.0  0.01200  0.52000  0.62100  1.0000 0.1117535224
H   H6        1.0  0.85666  0.59334  0.59350  1.0000 0.3897940432
H   H7        1.0  0.84885  0.64975  0.70631  1.0000 0.3897940432
H   H8        1.0  0.35486  0.11762  0.46192  1.0000 0.1360127363
H   H9        1.0  0.52412  0.18526  0.36268  1.0000 0.1299006989
H   H10       1.0  0.52000  0.01200  0.87900  1.0000 0.1117535224
H   H11       1.0  0.40666  0.14334  0.09350  1.0000 0.3897940432
H   H12       1.0  0.35025  0.15115  0.20631  1.0000 0.3897940432
H   H13       1.0  0.88238  0.64514  0.96192  1.0000 0.1360127363
H   H14       1.0  0.81474  0.47588  0.86268  1.0000 0.1299006989
H   H15       1.0  0.98800  0.48000  0.37900  1.0000 0.1117535224
H   H16       1.0  0.14334  0.40666  0.40650  1.0000 0.3897940432
H   H17       1.0  0.15115  0.35025  0.29369  1.0000 0.3897940432
H   H18       1.0  0.64514  0.88238  0.53808  1.0000 0.1360127363
H   H19       1.0  0.47588  0.81474  0.63732  1.0000 0.1299006989
H   H20       1.0  0.48000  0.98800  0.12100  1.0000 0.1117535224
C   C1        1.0  0.15732  0.71868  0.99142  1.0000 0.5494903614
C   C2        1.0  0.05841  0.41839  0.81411  1.0000 -0.0463404992
C   C3        1.0  0.13026  0.61214  0.93266  1.0000 0.1360127363
C   C4        1.0  0.00926  0.31074  0.74396  1.0000 0.6308506121
C   C5        1.0  0.04731  0.51689  0.72141  1.0000 0.080570816
C   C6        1.0  0.10931  0.41949  0.97251  1.0000 -0.0684768065
C   C7        1.0  0.14813  0.51987  0.03223  1.0000 -0.1589191529
C   C8        1.0  0.71868  0.15732  0.50858  1.0000 0.5494903614
C   C9        1.0  0.41839  0.05841  0.68589  1.0000 -0.0463404992
C   C10       1.0  0.61214  0.13026  0.56734  1.0000 0.1360127363
C   C11       1.0  0.31074  0.00926  0.75604  1.0000 0.6308506121
C   C12       1.0  0.51689  0.04731  0.77859  1.0000 0.080570816
C   C13       1.0  0.41949  0.10931  0.52749  1.0000 -0.0684768065
C   C14       1.0  0.51987  0.14813  0.46777  1.0000 -0.1589191529
C   C15       1.0  0.84268  0.28132  0.00858  1.0000 0.5494903614
C   C16       1.0  0.94159  0.58161  0.18589  1.0000 -0.0463404992
C   C17       1.0  0.86974  0.38786  0.06734  1.0000 0.1299006989
C   C18       1.0  0.99074  0.68926  0.25604  1.0000 0.6308506121
C   C19       1.0  0.95269  0.48311  0.27859  1.0000 0.080570816
C   C20       1.0  0.89069  0.58051  0.02749  1.0000 -0.0684768065
C   C21       1.0  0.85187  0.48013  0.96777  1.0000 -0.1589191529
C   C22       1.0  0.28132  0.84268  0.49142  1.0000 0.5494903614
C   C23       1.0  0.58161  0.94159  0.31411  1.0000 -0.0463404992
C   C24       1.0  0.38786  0.86974  0.43266  1.0000 0.1360127363
C   C25       1.0  0.68926  0.99074  0.24396  1.0000 0.6308506121
C   C26       1.0  0.48311  0.95269  0.22141  1.0000 0.080570816
C   C27       1.0  0.58051  0.89069  0.47251  1.0000 -0.0684768065
C   C28       1.0  0.48013  0.85187  0.53223  1.0000 -0.1589191529
S   S1        1.0  0.02073  0.02073  0.25000  1.0000 1.5665086796
S   S2        1.0  0.97927  0.97927  0.75000  1.0000 1.5665086796
N   N1        1.0  0.08025  0.61215  0.77745  1.0000 -0.3733316372
N   N2        1.0  0.61215  0.08025  0.72255  1.0000 -0.3733316372
N   N3        1.0  0.91975  0.38785  0.22255  1.0000 -0.3733316372
N   N4        1.0  0.38785  0.91975  0.27745  1.0000 -0.3733316372
O   O1        1.0  0.98786  0.21862  0.84062  1.0000 -0.6199302385
O   O2        1.0  0.12565  0.79293  0.89346  1.0000 -0.6869526218
O   O3        1.0  0.92153  0.99637  0.11988  1.0000 -0.7498244952
O   O4        1.0  0.12357  0.04081  0.19508  1.0000 -0.7498244952
O   O5        1.0  0.20550  0.73104  0.13193  1.0000 -0.5694724033
O   O6        1.0  0.99478  0.32316  0.59491  1.0000 -0.6488030563
O   O7        1.0  0.66630  0.86870  0.89440  1.0000 -0.7664059709
O   O8        1.0  0.21862  0.98786  0.65938  1.0000 -0.6199302385
O   O9        1.0  0.79293  0.12565  0.60654  1.0000 -0.6869526218
O   O10       1.0  0.99637  0.92153  0.38012  1.0000 -0.7498244952
O   O11       1.0  0.04081  0.12357  0.30492  1.0000 -0.7498244952
O   O12       1.0  0.73104  0.20550  0.36807  1.0000 -0.5694724033
O   O13       1.0  0.32316  0.99478  0.90509  1.0000 -0.6488030563
O   O14       1.0  0.86870  0.66630  0.60560  1.0000 -0.7664059709
O   O15       1.0  0.01214  0.78138  0.15938  1.0000 -0.6199302385
O   O16       1.0  0.87435  0.20707  0.10654  1.0000 -0.6869526218
O   O17       1.0  0.07847  0.00363  0.88012  1.0000 -0.7498244952
O   O18       1.0  0.87643  0.95919  0.80492  1.0000 -0.7498244952
O   O19       1.0  0.79450  0.26896  0.86807  1.0000 -0.5694724033
O   O20       1.0  0.00522  0.67684  0.40509  1.0000 -0.6488030563
O   O21       1.0  0.33370  0.13130  0.10560  1.0000 -0.7664059709
O   O22       1.0  0.78138  0.01214  0.34062  1.0000 -0.6199302385
O   O23       1.0  0.20707  0.87435  0.39346  1.0000 -0.6869526218
O   O24       1.0  0.00363  0.07847  0.61988  1.0000 -0.7498244952
O   O25       1.0  0.95919  0.87643  0.69508  1.0000 -0.7498244952
O   O26       1.0  0.26896  0.79450  0.63193  1.0000 -0.5694724033
O   O27       1.0  0.67684  0.00522  0.09491  1.0000 -0.6488030563
O   O28       1.0  0.13130  0.33370  0.39440  1.0000 -0.7664059709
