# DDEC6 charges by PACMAN v1.1 (https://github.com/mtap-research/PACMAN-charge/)
data_2019[Gd][nan]2[FSR]1
_chemical_formula_sum              "Gd2 H34 C22 N4 O18"
_cell_length_a       6.6057
_cell_length_b       10.4744
_cell_length_c       13.3124
_cell_angle_alpha    97.308
_cell_angle_beta     98.25
_cell_angle_gamma    97.139

_symmetry_space_group_name_H-M    "P 1"
_symmetry_Int_Tables_number       1

loop_
  _symmetry_equiv_pos_as_xyz
  'x, y, z'

loop_
  _atom_site_type_symbol
  _atom_site_label
  _atom_site_symmetry_multiplicity
  _atom_site_fract_x
  _atom_site_fract_y
  _atom_site_fract_z
  _atom_site_occupancy
  _atom_site_charge
Gd  Gd1       1.0  0.07044  0.89935  0.12816  1.0000 1.9636216199
Gd  Gd2       1.0  0.92956  0.10065  0.87184  1.0000 1.9636216199
H   H1        1.0  0.20584  0.83500  0.36984  1.0000 0.138891015
H   H2        1.0  0.04414  0.88001  0.44123  1.0000 0.138891015
H   H3        1.0  0.77836  0.97553  0.35330  1.0000 0.1482731984
H   H4        1.0  0.63523  0.83725  0.33582  1.0000 0.1482731984
H   H5        1.0  0.26874  0.52201  0.23676  1.0000 0.138891015
H   H6        1.0  0.12743  0.42959  0.14069  1.0000 0.1482731984
H   H7        1.0  0.32373  0.26885  0.21849  1.0000 0.167455945
H   H8        1.0  0.51182  0.23654  0.16039  1.0000 0.1608336678
H   H9        1.0  0.83084  0.67507  0.36493  1.0000 0.108240233
H   H10       1.0  0.99166  0.64398  0.28886  1.0000 0.101934362
H   H11       1.0  0.56708  0.66726  0.21871  1.0000 0.108240233
H   H12       1.0  0.72828  0.62973  0.14471  1.0000 0.1311636901
H   H13       1.0  0.74517  0.43050  0.20607  1.0000 0.1190539932
H   H14       1.0  0.60752  0.46943  0.29174  1.0000 0.108240233
H   H15       1.0  0.46411  0.42457  0.07533  1.0000 0.2635369932
H   H16       1.0  0.19048  0.76726  0.94330  1.0000 0.375062052
H   H17       1.0  0.24811  0.90439  0.94004  1.0000 0.3966481721
H   H18       1.0  0.79416  0.16500  0.63016  1.0000 0.138891015
H   H19       1.0  0.95586  0.11999  0.55877  1.0000 0.138891015
H   H20       1.0  0.22164  0.02447  0.64670  1.0000 0.1482731984
H   H21       1.0  0.36477  0.16275  0.66418  1.0000 0.1482731984
H   H22       1.0  0.73126  0.47799  0.76324  1.0000 0.138891015
H   H23       1.0  0.87257  0.57041  0.85931  1.0000 0.1482731984
H   H24       1.0  0.67627  0.73115  0.78151  1.0000 0.167455945
H   H25       1.0  0.48818  0.76346  0.83961  1.0000 0.1608336678
H   H26       1.0  0.16916  0.32493  0.63507  1.0000 0.108240233
H   H27       1.0  0.00834  0.35602  0.71114  1.0000 0.101934362
H   H28       1.0  0.43292  0.33274  0.78129  1.0000 0.108240233
H   H29       1.0  0.27172  0.37027  0.85529  1.0000 0.1311636901
H   H30       1.0  0.25483  0.56950  0.79393  1.0000 0.1190539932
H   H31       1.0  0.39248  0.53057  0.70826  1.0000 0.108240233
H   H32       1.0  0.53589  0.57543  0.92467  1.0000 0.2635369932
H   H33       1.0  0.80952  0.23274  0.05670  1.0000 0.374764148
H   H34       1.0  0.75189  0.09561  0.05996  1.0000 0.3966481721
C   C1        1.0  0.08920  0.88530  0.37390  1.0000 -0.298010614
C   C2        1.0  0.16050  0.02670  0.36520  1.0000 0.6298176086
C   C3        1.0  0.73210  0.89400  0.30460  1.0000 -0.298010614
C   C4        1.0  0.61790  0.92610  0.20550  1.0000 0.678815726
C   C5        1.0  0.25840  0.49020  0.16270  1.0000 -0.2727084721
C   C6        1.0  0.25330  0.60530  0.10310  1.0000 0.6448071038
C   C7        1.0  0.38410  0.27740  0.15540  1.0000 -0.2630307639
C   C8        1.0  0.23120  0.20820  0.06250  1.0000 0.6602920329
C   C9        1.0  0.86770  0.68620  0.29670  1.0000 -0.0897487218
C   C10       1.0  0.68840  0.62170  0.21280  1.0000 -0.2316125298
C   C11       1.0  0.62990  0.47820  0.22080  1.0000 -0.0897487218
C   C12       1.0  0.91080  0.11470  0.62610  1.0000 -0.298010614
C   C13       1.0  0.83950  0.97330  0.63480  1.0000 0.6298176086
C   C14       1.0  0.26790  0.10600  0.69540  1.0000 -0.298010614
C   C15       1.0  0.38210  0.07390  0.79450  1.0000 0.678815726
C   C16       1.0  0.74160  0.50980  0.83730  1.0000 -0.2727084721
C   C17       1.0  0.74670  0.39470  0.89690  1.0000 0.6448071038
C   C18       1.0  0.61590  0.72260  0.84460  1.0000 -0.2630307639
C   C19       1.0  0.76880  0.79180  0.93750  1.0000 0.6602920329
C   C20       1.0  0.13230  0.31380  0.70330  1.0000 -0.0897487218
C   C21       1.0  0.31160  0.37830  0.78720  1.0000 -0.2316125298
C   C22       1.0  0.37010  0.52180  0.77920  1.0000 -0.0897487218
N   N1        1.0  0.91460  0.82800  0.28990  1.0000 -0.1396726632
N   N2        1.0  0.43570  0.41850  0.14650  1.0000 0.03775027
N   N3        1.0  0.08540  0.17200  0.71010  1.0000 -0.1396726632
N   N4        1.0  0.56430  0.58150  0.85350  1.0000 0.03775027
O   O1        1.0  0.12850  0.06100  0.27740  1.0000 -0.6775075162
O   O2        1.0  0.24850  0.09810  0.44590  1.0000 -0.5686093533
O   O3        1.0  0.72340  0.94950  0.13580  1.0000 -0.6562603379
O   O4        1.0  0.42930  0.93400  0.20090  1.0000 -0.6336998904
O   O5        1.0  0.16250  0.69230  0.14170  1.0000 -0.6562603379
O   O6        1.0  0.33290  0.60360  0.02380  1.0000 -0.5458469355
O   O7        1.0  0.15730  0.09120  0.06200  1.0000 -0.7078657115
O   O8        1.0  0.18500  0.26940  0.99080  1.0000 -0.6048843229
O   O9        1.0  0.24990  0.84330  0.98180  1.0000 -0.7833157147
O   O10       1.0  0.87150  0.93900  0.72260  1.0000 -0.6775075162
O   O11       1.0  0.75150  0.90190  0.55410  1.0000 -0.5686093533
O   O12       1.0  0.27660  0.05050  0.86420  1.0000 -0.6562603379
O   O13       1.0  0.57070  0.06600  0.79910  1.0000 -0.6336998904
O   O14       1.0  0.83750  0.30770  0.85830  1.0000 -0.6562603379
O   O15       1.0  0.66710  0.39640  0.97620  1.0000 -0.5458469355
O   O16       1.0  0.84270  0.90880  0.93800  1.0000 -0.7078657115
O   O17       1.0  0.81500  0.73060  0.00920  1.0000 -0.6050131286
O   O18       1.0  0.75010  0.15670  0.01820  1.0000 -0.7833157147
