# DDEC6 charges by PACMAN v1.1 (https://github.com/mtap-research/PACMAN-charge/)
data_2019[Cu][dia]3[FSR]1
_chemical_formula_sum              "Cu2 H40 C56 N4 O8"
_cell_length_a       13.454
_cell_length_b       13.454
_cell_length_c       8.8355
_cell_angle_alpha    85.3309
_cell_angle_beta     94.6691
_cell_angle_gamma    57.8699

_symmetry_space_group_name_H-M    "P 1"
_symmetry_Int_Tables_number       1

loop_
  _symmetry_equiv_pos_as_xyz
  'x, y, z'

loop_
  _atom_site_type_symbol
  _atom_site_label
  _atom_site_symmetry_multiplicity
  _atom_site_fract_x
  _atom_site_fract_y
  _atom_site_fract_z
  _atom_site_occupancy
  _atom_site_charge
Cu  Cu1       1.0  0.83329  0.95945  0.46250  1.0000 0.7110318746
Cu  Cu2       1.0  0.04055  0.16671  0.96250  1.0000 0.7110318746
H   H1        1.0  0.67230  0.90410  0.31640  1.0000 0.1184153459
H   H2        1.0  0.57500  0.92220  0.07830  1.0000 0.1307135447
H   H3        1.0  0.74420  0.06540  0.89030  1.0000 0.1494103278
H   H4        1.0  0.83480  0.04580  0.13400  1.0000 0.1085171212
H   H5        1.0  0.61500  0.03620  0.71670  1.0000 0.1307135447
H   H6        1.0  0.46160  0.99080  0.85360  1.0000 0.1085171212
H   H7        1.0  0.30580  0.99900  0.69130  1.0000 0.1085171212
H   H8        1.0  0.18870  0.04670  0.45700  1.0000 0.1085171212
H   H9        1.0  0.38620  0.15160  0.25860  1.0000 0.1184153459
H   H10       1.0  0.50630  0.09850  0.49110  1.0000 0.1184153459
H   H11       1.0  0.51110  0.25910  0.61450  1.0000 0.1184153459
H   H12       1.0  0.39800  0.43520  0.71470  1.0000 0.1085171212
H   H13       1.0  0.62520  0.53220  0.60920  1.0000 0.1184153459
H   H14       1.0  0.73610  0.35710  0.50550  1.0000 0.1085171212
H   H15       1.0  0.47020  0.65680  0.74990  1.0000 0.1184153459
H   H16       1.0  0.29210  0.61170  0.77750  1.0000 0.1184153459
H   H17       1.0  0.99500  0.99700  0.84030  1.0000 0.1184153459
H   H18       1.0  0.09710  0.80890  0.76930  1.0000 0.1373124327
H   H19       1.0  0.40480  0.77320  0.94030  1.0000 0.1307135447
H   H20       1.0  0.29450  0.96350  0.00370  1.0000 0.1085171212
H   H21       1.0  0.09590  0.32770  0.81640  1.0000 0.1184153459
H   H22       1.0  0.07780  0.42500  0.57830  1.0000 0.1307135447
H   H23       1.0  0.93460  0.25580  0.39030  1.0000 0.1494103278
H   H24       1.0  0.95420  0.16520  0.63400  1.0000 0.1085171212
H   H25       1.0  0.96380  0.38500  0.21670  1.0000 0.1307135447
H   H26       1.0  0.00920  0.53840  0.35360  1.0000 0.1085171212
H   H27       1.0  0.00100  0.69420  0.19130  1.0000 0.1085171212
H   H28       1.0  0.95330  0.81130  0.95700  1.0000 0.1085171212
H   H29       1.0  0.84840  0.61380  0.75860  1.0000 0.1184153459
H   H30       1.0  0.90150  0.49370  0.99110  1.0000 0.1184153459
H   H31       1.0  0.74090  0.48890  0.11450  1.0000 0.1184153459
H   H32       1.0  0.56480  0.60200  0.21470  1.0000 0.1085171212
H   H33       1.0  0.46780  0.37480  0.10920  1.0000 0.1184153459
H   H34       1.0  0.64290  0.26390  0.00550  1.0000 0.1085171212
H   H35       1.0  0.34320  0.52980  0.24990  1.0000 0.1184153459
H   H36       1.0  0.38830  0.70790  0.27750  1.0000 0.1184153459
H   H37       1.0  0.00300  0.00500  0.34030  1.0000 0.1184153459
H   H38       1.0  0.19110  0.90290  0.26930  1.0000 0.1373124327
H   H39       1.0  0.22680  0.59520  0.44030  1.0000 0.1307135447
H   H40       1.0  0.03650  0.70550  0.50370  1.0000 0.1085171212
C   C1        1.0  0.68601  0.93821  0.22850  1.0000 0.0722072912
C   C2        1.0  0.62763  0.94883  0.08670  1.0000 -0.1857594197
C   C3        1.0  0.64593  0.99881  0.95520  1.0000 0.1664658169
C   C4        1.0  0.72675  0.03327  0.97620  1.0000 -0.1818865185
C   C5        1.0  0.78121  0.02045  0.12220  1.0000 0.0846219565
C   C6        1.0  0.58424  0.01892  0.80080  1.0000 -0.1388927146
C   C7        1.0  0.48775  0.01475  0.76950  1.0000 -0.1388927146
C   C8        1.0  0.41856  0.04356  0.61760  1.0000 0.1307135447
C   C9        1.0  0.32278  0.02938  0.60320  1.0000 -0.1584881489
C   C10       1.0  0.25233  0.05873  0.46400  1.0000 -0.1071331359
C   C11       1.0  0.27368  0.10558  0.33370  1.0000 -0.0305216257
C   C12       1.0  0.37011  0.12011  0.34650  1.0000 -0.1071331359
C   C13       1.0  0.44093  0.08913  0.48480  1.0000 -0.1388927146
C   C14       1.0  0.19658  0.13870  0.18340  1.0000 0.5335024203
C   C15       1.0  0.71673  0.17145  0.50230  1.0000 0.5383626128
C   C16       1.0  0.63722  0.28910  0.55480  1.0000 -0.0184908277
C   C17       1.0  0.53494  0.31414  0.61440  1.0000 -0.1071331359
C   C18       1.0  0.46750  0.41914  0.67390  1.0000 -0.1584881489
C   C19       1.0  0.50073  0.50123  0.67430  1.0000 0.1184153459
C   C20       1.0  0.60178  0.47686  0.61090  1.0000 -0.1529814546
C   C21       1.0  0.66851  0.37201  0.55030  1.0000 -0.090543775
C   C22       1.0  0.43438  0.61256  0.73880  1.0000 -0.1285688375
C   C23       1.0  0.32771  0.65649  0.78300  1.0000 -0.1529814546
C   C24       1.0  0.07931  0.95189  0.85750  1.0000 0.0722072912
C   C25       1.0  0.13983  0.83935  0.81510  1.0000 -0.1818865185
C   C26       1.0  0.26320  0.77136  0.83980  1.0000 0.1664658169
C   C27       1.0  0.32080  0.81860  0.91530  1.0000 -0.195507655
C   C28       1.0  0.25437  0.93201  0.95340  1.0000 0.0722072912
C   C29       1.0  0.06179  0.31399  0.72850  1.0000 0.0722072912
C   C30       1.0  0.05117  0.37237  0.58670  1.0000 -0.1857594197
C   C31       1.0  0.00119  0.35407  0.45520  1.0000 0.1664658169
C   C32       1.0  0.96673  0.27325  0.47620  1.0000 -0.1818865185
C   C33       1.0  0.97955  0.21879  0.62220  1.0000 0.0846219565
C   C34       1.0  0.98108  0.41576  0.30080  1.0000 -0.1388927146
C   C35       1.0  0.98525  0.51225  0.26950  1.0000 -0.1388927146
C   C36       1.0  0.95644  0.58144  0.11760  1.0000 0.1307135447
C   C37       1.0  0.97062  0.67722  0.10320  1.0000 -0.1584881489
C   C38       1.0  0.94127  0.74767  0.96400  1.0000 -0.1071331359
C   C39       1.0  0.89442  0.72632  0.83370  1.0000 -0.0305216257
C   C40       1.0  0.87989  0.62989  0.84650  1.0000 -0.1071331359
C   C41       1.0  0.91087  0.55907  0.98480  1.0000 -0.1388927146
C   C42       1.0  0.86130  0.80342  0.68340  1.0000 0.5335024203
C   C43       1.0  0.82855  0.28327  0.00230  1.0000 0.5383626128
C   C44       1.0  0.71090  0.36278  0.05480  1.0000 -0.0184908277
C   C45       1.0  0.68586  0.46506  0.11440  1.0000 -0.1071331359
C   C46       1.0  0.58086  0.53250  0.17390  1.0000 -0.1584881489
C   C47       1.0  0.49877  0.49927  0.17430  1.0000 0.1184153459
C   C48       1.0  0.52314  0.39822  0.11090  1.0000 -0.1529814546
C   C49       1.0  0.62799  0.33149  0.05030  1.0000 -0.090543775
C   C50       1.0  0.38744  0.56562  0.23880  1.0000 -0.1285688375
C   C51       1.0  0.34351  0.67229  0.28300  1.0000 -0.1529814546
C   C52       1.0  0.04811  0.92069  0.35750  1.0000 0.0722072912
C   C53       1.0  0.16065  0.86017  0.31510  1.0000 -0.1818865185
C   C54       1.0  0.22864  0.73680  0.33980  1.0000 0.1664658169
C   C55       1.0  0.18140  0.67920  0.41530  1.0000 -0.195507655
C   C56       1.0  0.06799  0.74563  0.45340  1.0000 0.0722072912
N   N1        1.0  0.76231  0.97427  0.24760  1.0000 -0.2471500766
N   N2        1.0  0.13524  0.99924  0.92180  1.0000 -0.2471500766
N   N3        1.0  0.02573  0.23769  0.74760  1.0000 -0.2471500766
N   N4        1.0  0.00076  0.86476  0.42180  1.0000 -0.2471500766
O   O1        1.0  0.11393  0.11833  0.18180  1.0000 -0.5303783809
O   O2        1.0  0.21507  0.18083  0.06590  1.0000 -0.5728419815
O   O3        1.0  0.68455  0.09757  0.50870  1.0000 -0.5180267488
O   O4        1.0  0.81281  0.14633  0.46020  1.0000 -0.5622780715
O   O5        1.0  0.88167  0.88607  0.68180  1.0000 -0.5303783809
O   O6        1.0  0.81917  0.78493  0.56590  1.0000 -0.5728419815
O   O7        1.0  0.90243  0.31545  0.00870  1.0000 -0.5180267488
O   O8        1.0  0.85367  0.18719  0.96020  1.0000 -0.5622780715
