# DDEC6 charges by PACMAN v1.1 (https://github.com/mtap-research/PACMAN-charge/)
data_2020[Mn][sql]2[FSR]2
_chemical_formula_sum              "Mn4 H152 C72 N24 O24"
_cell_length_a       12.1956
_cell_length_b       22.723
_cell_length_c       17.0328
_cell_angle_alpha    90
_cell_angle_beta     134.167
_cell_angle_gamma    90

_symmetry_space_group_name_H-M    "P 1"
_symmetry_Int_Tables_number       1

loop_
  _symmetry_equiv_pos_as_xyz
  'x, y, z'

loop_
  _atom_site_type_symbol
  _atom_site_label
  _atom_site_symmetry_multiplicity
  _atom_site_fract_x
  _atom_site_fract_y
  _atom_site_fract_z
  _atom_site_occupancy
  _atom_site_charge
Mn  Mn1       1.0  0.24931  0.25006  0.99794  1.0000 0.9144556059
Mn  Mn2       1.0  0.24931  0.24994  0.49794  1.0000 0.9144556059
Mn  Mn3       1.0  0.75069  0.75006  0.50206  1.0000 0.9155715538
Mn  Mn4       1.0  0.75069  0.74994  0.00206  1.0000 0.9155715538
H   H1        1.0  0.14482  0.13395  0.84425  1.0000 0.0807910321
H   H2        1.0  0.41195  0.01005  0.05608  1.0000 0.1282469956
H   H3        1.0  0.49933  0.05016  0.03681  1.0000 0.1186617172
H   H4        1.0  0.44889  0.07741  0.09432  1.0000 0.1380012019
H   H5        1.0  0.18611  0.98848  0.86315  1.0000 0.1282469956
H   H6        1.0  0.09891  0.04167  0.77740  1.0000 0.1118002822
H   H7        1.0  0.26179  0.02037  0.82670  1.0000 0.1186617172
H   H8        1.0  0.36292  0.36504  0.15420  1.0000 0.0745942054
H   H9        1.0  0.08008  0.49422  0.95664  1.0000 0.1186617172
H   H10       1.0  0.08700  0.43736  0.90476  1.0000 0.1282469956
H   H11       1.0  0.99671  0.43471  0.94135  1.0000 0.1282469956
H   H12       1.0  0.39788  0.45282  0.22447  1.0000 0.1118002822
H   H13       1.0  0.35024  0.50484  0.14229  1.0000 0.1282469956
H   H14       1.0  0.24628  0.49026  0.16525  1.0000 0.1186617172
H   H15       1.0  0.31471  0.12529  0.21378  1.0000 0.1118002822
H   H16       1.0  0.41663  0.17638  0.22600  1.0000 0.1186617172
H   H17       1.0  0.50278  0.20846  0.38732  1.0000 0.1186617172
H   H18       1.0  0.46105  0.14280  0.39433  1.0000 0.1186617172
H   H19       1.0  0.99879  0.20746  0.10935  1.0000 0.1186617172
H   H20       1.0  0.04650  0.14251  0.10572  1.0000 0.1186617172
H   H21       1.0  0.17622  0.12549  0.27908  1.0000 0.1186617172
H   H22       1.0  0.07705  0.17862  0.26518  1.0000 0.1186617172
H   H23       1.0  0.33498  0.27958  0.21998  1.0000 0.1118002822
H   H24       1.0  0.15565  0.29272  0.14071  1.0000 0.1186617172
H   H25       1.0  0.16305  0.27902  0.27390  1.0000 0.1118002822
H   H26       1.0  0.34204  0.29231  0.35332  1.0000 0.1186617172
H   H27       1.0  0.85863  0.15605  0.74820  1.0000 0.1118002822
H   H28       1.0  0.89119  0.16641  0.85620  1.0000 0.1186617172
H   H29       1.0  0.63840  0.15717  0.74450  1.0000 0.1118002822
H   H30       1.0  0.60701  0.16863  0.63733  1.0000 0.1186617172
H   H31       1.0  0.88348  0.32302  0.85029  1.0000 0.1186617172
H   H32       1.0  0.95517  0.27029  0.93682  1.0000 0.1186617172
H   H33       1.0  0.67346  0.30666  0.81595  1.0000 0.1118002822
H   H34       1.0  0.72750  0.24167  0.86733  1.0000 0.1118002822
H   H35       1.0  0.81972  0.30645  0.67794  1.0000 0.1118002822
H   H36       1.0  0.76923  0.24127  0.62759  1.0000 0.1118002822
H   H37       1.0  0.53983  0.26587  0.55981  1.0000 0.1186617172
H   H38       1.0  0.60728  0.32066  0.64189  1.0000 0.1186617172
H   H39       1.0  0.14482  0.36605  0.34425  1.0000 0.0807910321
H   H40       1.0  0.41195  0.48995  0.55608  1.0000 0.1282469956
H   H41       1.0  0.49933  0.44984  0.53681  1.0000 0.1186617172
H   H42       1.0  0.44889  0.42259  0.59432  1.0000 0.1380012019
H   H43       1.0  0.18611  0.51152  0.36315  1.0000 0.1282469956
H   H44       1.0  0.09891  0.45833  0.27740  1.0000 0.1118002822
H   H45       1.0  0.26179  0.47963  0.32670  1.0000 0.1186617172
H   H46       1.0  0.36292  0.13496  0.65420  1.0000 0.0745942054
H   H47       1.0  0.08008  0.00578  0.45664  1.0000 0.1186617172
H   H48       1.0  0.08700  0.06264  0.40476  1.0000 0.1282469956
H   H49       1.0  0.99671  0.06529  0.44135  1.0000 0.1282469956
H   H50       1.0  0.39788  0.04718  0.72447  1.0000 0.1118002822
H   H51       1.0  0.35024  0.99516  0.64229  1.0000 0.1282469956
H   H52       1.0  0.24628  0.00974  0.66525  1.0000 0.1186617172
H   H53       1.0  0.31471  0.37471  0.71378  1.0000 0.1118002822
H   H54       1.0  0.41663  0.32362  0.72600  1.0000 0.1186617172
H   H55       1.0  0.50278  0.29154  0.88732  1.0000 0.1186617172
H   H56       1.0  0.46105  0.35720  0.89433  1.0000 0.1186617172
H   H57       1.0  0.99879  0.29254  0.60935  1.0000 0.1186617172
H   H58       1.0  0.04650  0.35749  0.60572  1.0000 0.1186617172
H   H59       1.0  0.17622  0.37451  0.77908  1.0000 0.1186617172
H   H60       1.0  0.07705  0.32138  0.76518  1.0000 0.1186617172
H   H61       1.0  0.33498  0.22042  0.71998  1.0000 0.1118002822
H   H62       1.0  0.15565  0.20728  0.64071  1.0000 0.1186617172
H   H63       1.0  0.16305  0.22098  0.77390  1.0000 0.1118002822
H   H64       1.0  0.34204  0.20769  0.85332  1.0000 0.1186617172
H   H65       1.0  0.85863  0.34395  0.24820  1.0000 0.1118002822
H   H66       1.0  0.89119  0.33359  0.35620  1.0000 0.1186617172
H   H67       1.0  0.63840  0.34283  0.24450  1.0000 0.1118002822
H   H68       1.0  0.60701  0.33137  0.13733  1.0000 0.1186617172
H   H69       1.0  0.88348  0.17698  0.35029  1.0000 0.1186617172
H   H70       1.0  0.95517  0.22971  0.43682  1.0000 0.1186617172
H   H71       1.0  0.67346  0.19334  0.31595  1.0000 0.1118002822
H   H72       1.0  0.72750  0.25833  0.36733  1.0000 0.1118002822
H   H73       1.0  0.81972  0.19355  0.17794  1.0000 0.1118002822
H   H74       1.0  0.76923  0.25873  0.12759  1.0000 0.1118002822
H   H75       1.0  0.53983  0.23413  0.05981  1.0000 0.1186617172
H   H76       1.0  0.60728  0.17934  0.14189  1.0000 0.1186617172
H   H77       1.0  0.85518  0.63395  0.65575  1.0000 0.0807910321
H   H78       1.0  0.58805  0.51005  0.44392  1.0000 0.1282469956
H   H79       1.0  0.50067  0.55016  0.46319  1.0000 0.1186617172
H   H80       1.0  0.55111  0.57741  0.40568  1.0000 0.1380012019
H   H81       1.0  0.81389  0.48848  0.63685  1.0000 0.1282469956
H   H82       1.0  0.90109  0.54167  0.72260  1.0000 0.1186617172
H   H83       1.0  0.73821  0.52037  0.67330  1.0000 0.1186617172
H   H84       1.0  0.63708  0.86504  0.34580  1.0000 0.0745942054
H   H85       1.0  0.91992  0.99422  0.54336  1.0000 0.1186617172
H   H86       1.0  0.91300  0.93736  0.59524  1.0000 0.1282469956
H   H87       1.0  0.00329  0.93471  0.55865  1.0000 0.1282469956
H   H88       1.0  0.60212  0.95282  0.27553  1.0000 0.1118002822
H   H89       1.0  0.64976  0.00484  0.35771  1.0000 0.1282469956
H   H90       1.0  0.75372  0.99026  0.33475  1.0000 0.1186617172
H   H91       1.0  0.68529  0.62529  0.28622  1.0000 0.1118002822
H   H92       1.0  0.58337  0.67638  0.27400  1.0000 0.1186617172
H   H93       1.0  0.49722  0.70846  0.11268  1.0000 0.1186617172
H   H94       1.0  0.53895  0.64280  0.10567  1.0000 0.1186617172
H   H95       1.0  0.00121  0.70746  0.39065  1.0000 0.1186617172
H   H96       1.0  0.95350  0.64251  0.39428  1.0000 0.1186617172
H   H97       1.0  0.82378  0.62549  0.22092  1.0000 0.1186617172
H   H98       1.0  0.92295  0.67862  0.23482  1.0000 0.1186617172
H   H99       1.0  0.66502  0.77958  0.28002  1.0000 0.1118002822
H   H100      1.0  0.84435  0.79272  0.35929  1.0000 0.1186617172
H   H101      1.0  0.83695  0.77902  0.22610  1.0000 0.1118002822
H   H102      1.0  0.65796  0.79231  0.14668  1.0000 0.1186617172
H   H103      1.0  0.14137  0.65605  0.75180  1.0000 0.1118002822
H   H104      1.0  0.10881  0.66641  0.64380  1.0000 0.1186617172
H   H105      1.0  0.36160  0.65717  0.75550  1.0000 0.1118002822
H   H106      1.0  0.39299  0.66863  0.86267  1.0000 0.1186617172
H   H107      1.0  0.11652  0.82302  0.64971  1.0000 0.1186617172
H   H108      1.0  0.04483  0.77029  0.56318  1.0000 0.1186617172
H   H109      1.0  0.32654  0.80666  0.68405  1.0000 0.1118002822
H   H110      1.0  0.27250  0.74167  0.63267  1.0000 0.1118002822
H   H111      1.0  0.18028  0.80645  0.82206  1.0000 0.1118002822
H   H112      1.0  0.23077  0.74127  0.87241  1.0000 0.1118002822
H   H113      1.0  0.46017  0.76587  0.94019  1.0000 0.1186617172
H   H114      1.0  0.39272  0.82066  0.85811  1.0000 0.1186617172
H   H115      1.0  0.85518  0.86605  0.15575  1.0000 0.0807910321
H   H116      1.0  0.58805  0.98995  0.94392  1.0000 0.1282469956
H   H117      1.0  0.50067  0.94984  0.96319  1.0000 0.1186617172
H   H118      1.0  0.55111  0.92259  0.90568  1.0000 0.1380012019
H   H119      1.0  0.81389  0.01152  0.13685  1.0000 0.1282469956
H   H120      1.0  0.90109  0.95833  0.22260  1.0000 0.1186617172
H   H121      1.0  0.73821  0.97963  0.17330  1.0000 0.1186617172
H   H122      1.0  0.63708  0.63496  0.84580  1.0000 0.0745942054
H   H123      1.0  0.91992  0.50578  0.04336  1.0000 0.1186617172
H   H124      1.0  0.91300  0.56264  0.09524  1.0000 0.1282469956
H   H125      1.0  0.00329  0.56529  0.05865  1.0000 0.1282469956
H   H126      1.0  0.60212  0.54718  0.77553  1.0000 0.1118002822
H   H127      1.0  0.64976  0.49516  0.85771  1.0000 0.1282469956
H   H128      1.0  0.75372  0.50974  0.83475  1.0000 0.1186617172
H   H129      1.0  0.68529  0.87471  0.78622  1.0000 0.1118002822
H   H130      1.0  0.58337  0.82362  0.77400  1.0000 0.1186617172
H   H131      1.0  0.49722  0.79154  0.61268  1.0000 0.1186617172
H   H132      1.0  0.53895  0.85720  0.60567  1.0000 0.1186617172
H   H133      1.0  0.00121  0.79254  0.89065  1.0000 0.1186617172
H   H134      1.0  0.95350  0.85749  0.89428  1.0000 0.1186617172
H   H135      1.0  0.82378  0.87451  0.72092  1.0000 0.1186617172
H   H136      1.0  0.92295  0.82138  0.73482  1.0000 0.1186617172
H   H137      1.0  0.66502  0.72042  0.78002  1.0000 0.1118002822
H   H138      1.0  0.84435  0.70728  0.85929  1.0000 0.1186617172
H   H139      1.0  0.83695  0.72098  0.72610  1.0000 0.1118002822
H   H140      1.0  0.65796  0.70769  0.64668  1.0000 0.1186617172
H   H141      1.0  0.14137  0.84395  0.25180  1.0000 0.1118002822
H   H142      1.0  0.10881  0.83359  0.14380  1.0000 0.1186617172
H   H143      1.0  0.36160  0.84283  0.25550  1.0000 0.1118002822
H   H144      1.0  0.39299  0.83137  0.36267  1.0000 0.1186617172
H   H145      1.0  0.11652  0.67698  0.14971  1.0000 0.1186617172
H   H146      1.0  0.04483  0.72971  0.06318  1.0000 0.1186617172
H   H147      1.0  0.32654  0.69334  0.18405  1.0000 0.1118002822
H   H148      1.0  0.27250  0.75833  0.13267  1.0000 0.1118002822
H   H149      1.0  0.18028  0.69355  0.32206  1.0000 0.1118002822
H   H150      1.0  0.23077  0.75873  0.37241  1.0000 0.1118002822
H   H151      1.0  0.46017  0.73413  0.44019  1.0000 0.1186617172
H   H152      1.0  0.39272  0.67934  0.35811  1.0000 0.1186617172
C   C1        1.0  0.23610  0.12260  0.91600  1.0000 0.1766207649
C   C2        1.0  0.42060  0.04980  0.03850  1.0000 -0.3623604046
C   C3        1.0  0.19920  0.02620  0.84260  1.0000 -0.3707387464
C   C4        1.0  0.26880  0.37650  0.08400  1.0000 0.203314828
C   C5        1.0  0.08580  0.45120  0.95870  1.0000 -0.3545356484
C   C6        1.0  0.31170  0.47330  0.15700  1.0000 -0.3707387464
C   C7        1.0  0.34340  0.16730  0.23210  1.0000 -0.1777979962
C   C8        1.0  0.41870  0.17960  0.35100  1.0000 -0.1777979962
C   C9        1.0  0.08550  0.17970  0.14790  1.0000 -0.1777979962
C   C10       1.0  0.15200  0.16790  0.26150  1.0000 -0.1901440463
C   C11       1.0  0.23960  0.26580  0.19770  1.0000 -0.2002289163
C   C12       1.0  0.25860  0.26520  0.29640  1.0000 -0.2098190988
C   C13       1.0  0.83630  0.18190  0.78240  1.0000 -0.1901440463
C   C14       1.0  0.66280  0.18320  0.71180  1.0000 -0.1777979962
C   C15       1.0  0.87310  0.28080  0.85840  1.0000 -0.2154856565
C   C16       1.0  0.71700  0.26940  0.81760  1.0000 -0.1712518947
C   C17       1.0  0.77930  0.26860  0.67760  1.0000 -0.1901440463
C   C18       1.0  0.62170  0.27840  0.63710  1.0000 -0.2002289163
C   C19       1.0  0.23610  0.37740  0.41600  1.0000 0.1766207649
C   C20       1.0  0.42060  0.45020  0.53850  1.0000 -0.3623604046
C   C21       1.0  0.19920  0.47380  0.34260  1.0000 -0.3707387464
C   C22       1.0  0.26880  0.12350  0.58400  1.0000 0.203314828
C   C23       1.0  0.08580  0.04880  0.45870  1.0000 -0.3545356484
C   C24       1.0  0.31170  0.02670  0.65700  1.0000 -0.3707387464
C   C25       1.0  0.34340  0.33270  0.73210  1.0000 -0.1777979962
C   C26       1.0  0.41870  0.32040  0.85100  1.0000 -0.1777979962
C   C27       1.0  0.08550  0.32030  0.64790  1.0000 -0.1777979962
C   C28       1.0  0.15200  0.33210  0.76150  1.0000 -0.1901440463
C   C29       1.0  0.23960  0.23420  0.69770  1.0000 -0.2002289163
C   C30       1.0  0.25860  0.23480  0.79640  1.0000 -0.2098190988
C   C31       1.0  0.83630  0.31810  0.28240  1.0000 -0.1901440463
C   C32       1.0  0.66280  0.31680  0.21180  1.0000 -0.1777979962
C   C33       1.0  0.87310  0.21920  0.35840  1.0000 -0.2154856565
C   C34       1.0  0.71700  0.23060  0.31760  1.0000 -0.1712518947
C   C35       1.0  0.77930  0.23140  0.17760  1.0000 -0.1901440463
C   C36       1.0  0.62170  0.22160  0.13710  1.0000 -0.2002289163
C   C37       1.0  0.76390  0.62260  0.58400  1.0000 0.1766207649
C   C38       1.0  0.57940  0.54980  0.46150  1.0000 -0.3623604046
C   C39       1.0  0.80080  0.52620  0.65740  1.0000 -0.3707387464
C   C40       1.0  0.73120  0.87650  0.41600  1.0000 0.203314828
C   C41       1.0  0.91420  0.95120  0.54130  1.0000 -0.3545356484
C   C42       1.0  0.68830  0.97330  0.34300  1.0000 -0.3707387464
C   C43       1.0  0.65660  0.66730  0.26790  1.0000 -0.1777979962
C   C44       1.0  0.58130  0.67960  0.14900  1.0000 -0.1777979962
C   C45       1.0  0.91450  0.67970  0.35210  1.0000 -0.1777979962
C   C46       1.0  0.84800  0.66790  0.23850  1.0000 -0.1901440463
C   C47       1.0  0.76040  0.76580  0.30230  1.0000 -0.2002289163
C   C48       1.0  0.74140  0.76520  0.20360  1.0000 -0.2098190988
C   C49       1.0  0.16370  0.68190  0.71760  1.0000 -0.1901440463
C   C50       1.0  0.33720  0.68320  0.78820  1.0000 -0.1777979962
C   C51       1.0  0.12690  0.78080  0.64160  1.0000 -0.2154856565
C   C52       1.0  0.28300  0.76940  0.68240  1.0000 -0.1712518947
C   C53       1.0  0.22070  0.76860  0.82240  1.0000 -0.1901440463
C   C54       1.0  0.37830  0.77840  0.86290  1.0000 -0.2002289163
C   C55       1.0  0.76390  0.87740  0.08400  1.0000 0.1766207649
C   C56       1.0  0.57940  0.95020  0.96150  1.0000 -0.3623604046
C   C57       1.0  0.80080  0.97380  0.15740  1.0000 -0.3707387464
C   C58       1.0  0.73120  0.62350  0.91600  1.0000 0.203314828
C   C59       1.0  0.91420  0.54880  0.04130  1.0000 -0.3545356484
C   C60       1.0  0.68830  0.52670  0.84300  1.0000 -0.3707387464
C   C61       1.0  0.65660  0.83270  0.76790  1.0000 -0.1777979962
C   C62       1.0  0.58130  0.82040  0.64900  1.0000 -0.1777979962
C   C63       1.0  0.91450  0.82030  0.85210  1.0000 -0.1777979962
C   C64       1.0  0.84800  0.83210  0.73850  1.0000 -0.1901440463
C   C65       1.0  0.76040  0.73420  0.80230  1.0000 -0.2002289163
C   C66       1.0  0.74140  0.73480  0.70360  1.0000 -0.2098190988
C   C67       1.0  0.16370  0.81810  0.21760  1.0000 -0.1901440463
C   C68       1.0  0.33720  0.81680  0.28820  1.0000 -0.1777979962
C   C69       1.0  0.12690  0.71920  0.14160  1.0000 -0.2154856565
C   C70       1.0  0.28300  0.73060  0.18240  1.0000 -0.1712518947
C   C71       1.0  0.22070  0.73140  0.32240  1.0000 -0.1901440463
C   C72       1.0  0.37830  0.72160  0.36290  1.0000 -0.2002289163
N   N1        1.0  0.27390  0.06730  0.93140  1.0000 0.0311966522
N   N2        1.0  0.22410  0.43220  0.06690  1.0000 0.0195684416
N   N3        1.0  0.20410  0.20508  0.15450  1.0000 0.3002123667
N   N4        1.0  0.29510  0.20387  0.34230  1.0000 0.3133918478
N   N5        1.0  0.88770  0.24328  0.79090  1.0000 0.3133918478
N   N6        1.0  0.61440  0.24390  0.70560  1.0000 0.2829271985
N   N7        1.0  0.27390  0.43270  0.43140  1.0000 0.0311966522
N   N8        1.0  0.22410  0.06780  0.56690  1.0000 0.0195684416
N   N9        1.0  0.20410  0.29492  0.65450  1.0000 0.3002123667
N   N10       1.0  0.29510  0.29613  0.84230  1.0000 0.3133918478
N   N11       1.0  0.88770  0.25672  0.29090  1.0000 0.3133918478
N   N12       1.0  0.61440  0.25610  0.20560  1.0000 0.2829271985
N   N13       1.0  0.72610  0.56730  0.56860  1.0000 0.0311966522
N   N14       1.0  0.77590  0.93220  0.43310  1.0000 0.0195684416
N   N15       1.0  0.79590  0.70508  0.34550  1.0000 0.3002123667
N   N16       1.0  0.70490  0.70387  0.15770  1.0000 0.3133918478
N   N17       1.0  0.11230  0.74328  0.70910  1.0000 0.3133918478
N   N18       1.0  0.38560  0.74390  0.79440  1.0000 0.2829271985
N   N19       1.0  0.72610  0.93270  0.06860  1.0000 0.0311966522
N   N20       1.0  0.77590  0.56780  0.93310  1.0000 0.0195684416
N   N21       1.0  0.79590  0.79492  0.84550  1.0000 0.3002123667
N   N22       1.0  0.70490  0.79613  0.65770  1.0000 0.3133918478
N   N23       1.0  0.11230  0.75672  0.20910  1.0000 0.3133918478
N   N24       1.0  0.38560  0.75610  0.29440  1.0000 0.2829271985
O   O1        1.0  0.30680  0.16104  0.98490  1.0000 -0.4610011445
O   O2        1.0  0.19040  0.33935  0.01050  1.0000 -0.4756276252
O   O3        1.0  0.15440  0.20408  0.05240  1.0000 -0.5682764219
O   O4        1.0  0.34830  0.20417  0.44560  1.0000 -0.580784695
O   O5        1.0  0.03203  0.24275  0.83333  1.0000 -0.5631252097
O   O6        1.0  0.46510  0.24370  0.66250  1.0000 -0.5922381448
O   O7        1.0  0.30680  0.33896  0.48490  1.0000 -0.4610011445
O   O8        1.0  0.19040  0.16065  0.51050  1.0000 -0.4756276252
O   O9        1.0  0.15440  0.29592  0.55240  1.0000 -0.5682764219
O   O10       1.0  0.34830  0.29583  0.94560  1.0000 -0.580784695
O   O11       1.0  0.03203  0.25725  0.33333  1.0000 -0.5631252097
O   O12       1.0  0.46510  0.25630  0.16250  1.0000 -0.5922381448
O   O13       1.0  0.69320  0.66104  0.51510  1.0000 -0.4610011445
O   O14       1.0  0.80960  0.83935  0.48950  1.0000 -0.4756276252
O   O15       1.0  0.84560  0.70408  0.44760  1.0000 -0.5682764219
O   O16       1.0  0.65170  0.70417  0.05440  1.0000 -0.580784695
O   O17       1.0  0.96797  0.74275  0.66667  1.0000 -0.5631252097
O   O18       1.0  0.53490  0.74370  0.83750  1.0000 -0.5922381448
O   O19       1.0  0.69320  0.83896  0.01510  1.0000 -0.4610011445
O   O20       1.0  0.80960  0.66065  0.98950  1.0000 -0.4756276252
O   O21       1.0  0.84560  0.79592  0.94760  1.0000 -0.5682764219
O   O22       1.0  0.65170  0.79583  0.55440  1.0000 -0.580784695
O   O23       1.0  0.96797  0.75725  0.16667  1.0000 -0.5631252097
O   O24       1.0  0.53490  0.75630  0.33750  1.0000 -0.5922381448
