# DDEC6 charges by PACMAN v1.1 (https://github.com/mtap-research/PACMAN-charge/)
data_2020[Co][sql]2[FSR]5
_chemical_formula_sum              "Co4 H84 C108 N8 O18 F16"
_cell_length_a       12.3295
_cell_length_b       15.1613
_cell_length_c       18.2077
_cell_angle_alpha    85.341
_cell_angle_beta     109.725
_cell_angle_gamma    105.412

_symmetry_space_group_name_H-M    "P 1"
_symmetry_Int_Tables_number       1

loop_
  _symmetry_equiv_pos_as_xyz
  'x, y, z'

loop_
  _atom_site_type_symbol
  _atom_site_label
  _atom_site_symmetry_multiplicity
  _atom_site_fract_x
  _atom_site_fract_y
  _atom_site_fract_z
  _atom_site_occupancy
  _atom_site_charge
Co  Co1       1.0  0.53719  0.15870  0.27556  1.0000 0.8867181083
Co  Co2       1.0  0.71419  0.38500  0.25608  1.0000 0.8988962015
Co  Co3       1.0  0.46281  0.84130  0.72444  1.0000 0.8867181083
Co  Co4       1.0  0.28581  0.61500  0.74392  1.0000 0.8988962015
H   H1        1.0  0.52150  0.27730  0.16010  1.0000 0.3818373373
H   H2        1.0  0.62890  0.23670  0.16720  1.0000 0.3818373373
H   H3        1.0  0.79110  0.30360  0.99840  1.0000 0.1184494928
H   H4        1.0  0.91990  0.35370  0.92690  1.0000 0.1457629119
H   H5        1.0  0.18670  0.45220  0.12360  1.0000 0.1720345483
H   H6        1.0  0.15440  0.18010  0.21960  1.0000 0.1184494928
H   H7        1.0  0.94810  0.14370  0.17160  1.0000 0.1457629119
H   H8        1.0  0.95770  0.10790  0.95970  1.0000 0.1720345483
H   H9        1.0  0.99480  0.30760  0.31730  1.0000 0.1184494928
H   H10       1.0  0.18610  0.28660  0.35530  1.0000 0.1386128537
H   H11       1.0  0.08400  0.06530  0.47690  1.0000 0.1720345483
H   H12       1.0  0.41500  0.46210  0.29550  1.0000 0.1184494928
H   H13       1.0  0.30240  0.52140  0.34720  1.0000 0.1457629119
H   H14       1.0  0.39240  0.37090  0.53950  1.0000 0.1779734781
H   H15       1.0  0.77360  0.53070  0.13760  1.0000 0.0995200767
H   H16       1.0  0.69840  0.63790  0.05470  1.0000 0.1457629119
H   H17       1.0  0.39080  0.54050  0.09570  1.0000 0.1386128537
H   H18       1.0  0.47110  0.43320  0.17550  1.0000 0.1093309205
H   H19       1.0  0.53290  0.70330  0.98380  1.0000 0.127063102
H   H20       1.0  0.40680  0.65980  0.99190  1.0000 0.1184494928
H   H21       1.0  0.45860  0.74040  0.10690  1.0000 0.0904000673
H   H22       1.0  0.59180  0.77430  0.11020  1.0000 0.0995200767
H   H23       1.0  0.40390  0.83250  0.99480  1.0000 0.1184494928
H   H24       1.0  0.53870  0.86880  0.00200  1.0000 0.1184494928
H   H25       1.0  0.67030  0.98650  0.10250  1.0000 0.1457629119
H   H26       1.0  0.68710  0.09310  0.19010  1.0000 0.1093309205
H   H27       1.0  0.35700  0.99350  0.17910  1.0000 0.1093309205
H   H28       1.0  0.33300  0.88030  0.09480  1.0000 0.1386128537
H   H29       1.0  0.78170  0.50750  0.40320  1.0000 0.1093309205
H   H30       1.0  0.93880  0.61090  0.48430  1.0000 0.1386128537
H   H31       1.0  0.12650  0.60080  0.34680  1.0000 0.1386128537
H   H32       1.0  0.96520  0.49800  0.26970  1.0000 0.1093309205
H   H33       1.0  0.12810  0.72290  0.50720  1.0000 0.1093309205
H   H34       1.0  0.21410  0.66220  0.50970  1.0000 0.127063102
H   H35       1.0  0.15980  0.79100  0.38960  1.0000 0.0904000673
H   H36       1.0  0.25640  0.73670  0.40170  1.0000 0.0904000673
H   H37       1.0  0.37370  0.81650  0.51840  1.0000 0.127063102
H   H38       1.0  0.27550  0.86780  0.51080  1.0000 0.1184494928
H   H39       1.0  0.24980  0.99260  0.41350  1.0000 0.1386128537
H   H40       1.0  0.33710  0.10490  0.34550  1.0000 0.1093309205
H   H41       1.0  0.58760  0.98410  0.36790  1.0000 0.1093309205
H   H42       1.0  0.50840  0.86800  0.43820  1.0000 0.1386128537
H   H43       1.0  0.47850  0.72270  0.83990  1.0000 0.3818373373
H   H44       1.0  0.37110  0.76330  0.83280  1.0000 0.3818373373
H   H45       1.0  0.20890  0.69640  0.00160  1.0000 0.1184494928
H   H46       1.0  0.08010  0.64630  0.07310  1.0000 0.1457629119
H   H47       1.0  0.81330  0.54780  0.87640  1.0000 0.1720345483
H   H48       1.0  0.84560  0.81990  0.78040  1.0000 0.1184494928
H   H49       1.0  0.05190  0.85630  0.82840  1.0000 0.1457629119
H   H50       1.0  0.04230  0.89210  0.04030  1.0000 0.1720345483
H   H51       1.0  0.00520  0.69240  0.68270  1.0000 0.1184494928
H   H52       1.0  0.81390  0.71340  0.64470  1.0000 0.1386128537
H   H53       1.0  0.91600  0.93470  0.52310  1.0000 0.1720345483
H   H54       1.0  0.58500  0.53790  0.70450  1.0000 0.1184494928
H   H55       1.0  0.69760  0.47860  0.65280  1.0000 0.1457629119
H   H56       1.0  0.60760  0.62910  0.46050  1.0000 0.1779734781
H   H57       1.0  0.22640  0.46930  0.86240  1.0000 0.0995200767
H   H58       1.0  0.30160  0.36210  0.94530  1.0000 0.1457629119
H   H59       1.0  0.60920  0.45950  0.90430  1.0000 0.1386128537
H   H60       1.0  0.52890  0.56680  0.82450  1.0000 0.1093309205
H   H61       1.0  0.46710  0.29670  0.01620  1.0000 0.127063102
H   H62       1.0  0.59320  0.34020  0.00810  1.0000 0.1184494928
H   H63       1.0  0.54140  0.25960  0.89310  1.0000 0.0904000673
H   H64       1.0  0.40820  0.22570  0.88980  1.0000 0.0995200767
H   H65       1.0  0.59610  0.16750  0.00520  1.0000 0.1184494928
H   H66       1.0  0.46130  0.13120  0.99800  1.0000 0.1184494928
H   H67       1.0  0.32970  0.01350  0.89750  1.0000 0.1457629119
H   H68       1.0  0.31290  0.90690  0.80990  1.0000 0.1093309205
H   H69       1.0  0.64300  0.00650  0.82090  1.0000 0.1093309205
H   H70       1.0  0.66700  0.11970  0.90520  1.0000 0.1386128537
H   H71       1.0  0.21830  0.49250  0.59680  1.0000 0.1093309205
H   H72       1.0  0.06120  0.38910  0.51570  1.0000 0.1386128537
H   H73       1.0  0.87350  0.39920  0.65320  1.0000 0.1386128537
H   H74       1.0  0.03480  0.50200  0.73030  1.0000 0.1093309205
H   H75       1.0  0.87190  0.27710  0.49280  1.0000 0.1093309205
H   H76       1.0  0.78590  0.33780  0.49030  1.0000 0.127063102
H   H77       1.0  0.84020  0.20900  0.61040  1.0000 0.0904000673
H   H78       1.0  0.74360  0.26330  0.59830  1.0000 0.0904000673
H   H79       1.0  0.62630  0.18350  0.48160  1.0000 0.127063102
H   H80       1.0  0.72450  0.13220  0.48920  1.0000 0.1184494928
H   H81       1.0  0.75020  0.00740  0.58650  1.0000 0.1386128537
H   H82       1.0  0.66290  0.89510  0.65450  1.0000 0.1093309205
H   H83       1.0  0.41240  0.01590  0.63210  1.0000 0.1093309205
H   H84       1.0  0.49160  0.13200  0.56180  1.0000 0.1386128537
C   C1        1.0  0.81920  0.32510  0.14557  1.0000 0.587156414
C   C2        1.0  0.90790  0.35080  0.10300  1.0000 -0.1692526584
C   C3        1.0  0.86990  0.33440  0.02350  1.0000 -0.0597804318
C   C4        1.0  0.94680  0.36300  0.98060  1.0000 -0.2420065144
C   C5        1.0  0.06280  0.40500  0.01920  1.0000 0.3095362028
C   C6        1.0  0.10710  0.42350  0.09860  1.0000 -0.3596290211
C   C7        1.0  0.02650  0.39690  0.13820  1.0000 0.3002938768
C   C8        1.0  0.31660  0.19550  0.15088  1.0000 0.587156414
C   C9        1.0  0.18200  0.16980  0.11850  1.0000 -0.1616083857
C   C10       1.0  0.11530  0.16680  0.16680  1.0000 -0.0597804318
C   C11       1.0  0.99180  0.14450  0.13860  1.0000 -0.2420065144
C   C12       1.0  0.93750  0.12410  0.06310  1.0000 0.3002938768
C   C13       1.0  0.99790  0.12400  0.01200  1.0000 -0.349428153
C   C14       1.0  0.12080  0.14890  0.04160  1.0000 0.2828525146
C   C15       1.0  0.79970  0.21600  0.34249  1.0000 0.6028139134
C   C16       1.0  0.92130  0.19740  0.37009  1.0000 -0.1692526584
C   C17       1.0  0.01200  0.25810  0.34853  1.0000 -0.0597804318
C   C18       1.0  0.12750  0.24720  0.37220  1.0000 -0.2591961135
C   C19       1.0  0.15170  0.17600  0.42140  1.0000 0.3095362028
C   C20       1.0  0.06600  0.11370  0.44430  1.0000 -0.3596290211
C   C21       1.0  0.95160  0.12600  0.41680  1.0000 0.2880370831
C   C22       1.0  0.54080  0.33930  0.34670  1.0000 0.6028139134
C   C23       1.0  0.47070  0.37790  0.38414  1.0000 -0.1616083857
C   C24       1.0  0.40990  0.44280  0.34430  1.0000 -0.0752795572
C   C25       1.0  0.34300  0.47900  0.37490  1.0000 -0.2420065144
C   C26       1.0  0.33790  0.45060  0.44740  1.0000 0.3002938768
C   C27       1.0  0.39610  0.38840  0.49010  1.0000 -0.349428153
C   C28       1.0  0.46040  0.35270  0.45656  1.0000 0.2880370831
C   C29       1.0  0.69570  0.53290  0.12964  1.0000 0.0904000673
C   C30       1.0  0.65110  0.59810  0.07990  1.0000 -0.201766179
C   C31       1.0  0.53620  0.60450  0.06742  1.0000 0.1720345483
C   C32       1.0  0.46940  0.54050  0.10373  1.0000 -0.209255575
C   C33       1.0  0.51860  0.47600  0.15215  1.0000 0.0904000673
C   C34       1.0  0.49100  0.68160  0.02087  1.0000 -0.2517137425
C   C35       1.0  0.51010  0.76010  0.07533  1.0000 -0.1327236453
C   C36       1.0  0.48440  0.84680  0.03140  1.0000 -0.2591961135
C   C37       1.0  0.49850  0.92060  0.08684  1.0000 0.1720345483
C   C38       1.0  0.60510  0.98600  0.11750  1.0000 -0.209255575
C   C39       1.0  0.61440  0.05030  0.17020  1.0000 0.0995200767
C   C40       1.0  0.42150  0.99150  0.16430  1.0000 0.0833051145
C   C41       1.0  0.40570  0.92370  0.11240  1.0000 -0.209255575
C   C42       1.0  0.85170  0.52720  0.39095  1.0000 0.0904000673
C   C43       1.0  0.94640  0.58980  0.44010  1.0000 -0.209255575
C   C44       1.0  0.05260  0.62160  0.42440  1.0000 0.1720345483
C   C45       1.0  0.05690  0.58400  0.35950  1.0000 -0.209255575
C   C46       1.0  0.95890  0.52180  0.31320  1.0000 0.0833051145
C   C47       1.0  0.15640  0.69270  0.47508  1.0000 -0.2420065144
C   C48       1.0  0.21870  0.76530  0.42860  1.0000 -0.1387612532
C   C49       1.0  0.31220  0.84170  0.48145  1.0000 -0.2591961135
C   C50       1.0  0.36840  0.91640  0.43502  1.0000 0.1779734781
C   C51       1.0  0.31890  0.98920  0.40517  1.0000 -0.209255575
C   C52       1.0  0.37130  0.05610  0.36348  1.0000 0.0904000673
C   C53       1.0  0.51810  0.98530  0.37686  1.0000 0.0833051145
C   C54       1.0  0.47140  0.91520  0.41979  1.0000 -0.209255575
C   C55       1.0  0.18080  0.67490  0.85443  1.0000 0.587156414
C   C56       1.0  0.09210  0.64920  0.89700  1.0000 -0.1692526584
C   C57       1.0  0.13010  0.66560  0.97650  1.0000 -0.0597804318
C   C58       1.0  0.05320  0.63700  0.01940  1.0000 -0.2420065144
C   C59       1.0  0.93720  0.59500  0.98080  1.0000 0.3095362028
C   C60       1.0  0.89290  0.57650  0.90140  1.0000 -0.3596290211
C   C61       1.0  0.97350  0.60310  0.86180  1.0000 0.3002938768
C   C62       1.0  0.68340  0.80450  0.84912  1.0000 0.587156414
C   C63       1.0  0.81800  0.83020  0.88150  1.0000 -0.1692526584
C   C64       1.0  0.88470  0.83320  0.83320  1.0000 -0.0653212974
C   C65       1.0  0.00820  0.85550  0.86140  1.0000 -0.2420065144
C   C66       1.0  0.06250  0.87590  0.93690  1.0000 0.3002938768
C   C67       1.0  0.00210  0.87600  0.98800  1.0000 -0.3596290211
C   C68       1.0  0.87920  0.85110  0.95840  1.0000 0.2828525146
C   C69       1.0  0.20030  0.78400  0.65751  1.0000 0.6028139134
C   C70       1.0  0.07870  0.80260  0.62991  1.0000 -0.1692526584
C   C71       1.0  0.98800  0.74190  0.65147  1.0000 -0.0597804318
C   C72       1.0  0.87250  0.75280  0.62780  1.0000 -0.2591961135
C   C73       1.0  0.84830  0.82400  0.57860  1.0000 0.3095362028
C   C74       1.0  0.93400  0.88630  0.55570  1.0000 -0.3596290211
C   C75       1.0  0.04840  0.87400  0.58320  1.0000 0.2880370831
C   C76       1.0  0.45920  0.66070  0.65330  1.0000 0.6028139134
C   C77       1.0  0.52930  0.62210  0.61586  1.0000 -0.1616083857
C   C78       1.0  0.59010  0.55720  0.65570  1.0000 -0.0752795572
C   C79       1.0  0.65700  0.52100  0.62510  1.0000 -0.2420065144
C   C80       1.0  0.66210  0.54940  0.55260  1.0000 0.3002938768
C   C81       1.0  0.60390  0.61160  0.50990  1.0000 -0.349428153
C   C82       1.0  0.53960  0.64730  0.54344  1.0000 0.2880370831
C   C83       1.0  0.30430  0.46710  0.87036  1.0000 0.0904000673
C   C84       1.0  0.34890  0.40190  0.92010  1.0000 -0.201766179
C   C85       1.0  0.46380  0.39550  0.93258  1.0000 0.1720345483
C   C86       1.0  0.53060  0.45950  0.89627  1.0000 -0.209255575
C   C87       1.0  0.48140  0.52400  0.84785  1.0000 0.0904000673
C   C88       1.0  0.50900  0.31840  0.97913  1.0000 -0.2517137425
C   C89       1.0  0.48990  0.23990  0.92467  1.0000 -0.1327236453
C   C90       1.0  0.51560  0.15320  0.96860  1.0000 -0.2591961135
C   C91       1.0  0.50150  0.07940  0.91316  1.0000 0.1720345483
C   C92       1.0  0.39490  0.01400  0.88250  1.0000 -0.209255575
C   C93       1.0  0.38560  0.94970  0.82980  1.0000 0.0995200767
C   C94       1.0  0.57850  0.00850  0.83570  1.0000 0.0833051145
C   C95       1.0  0.59430  0.07630  0.88760  1.0000 -0.209255575
C   C96       1.0  0.14830  0.47280  0.60905  1.0000 0.0904000673
C   C97       1.0  0.05360  0.41020  0.55990  1.0000 -0.209255575
C   C98       1.0  0.94740  0.37840  0.57560  1.0000 0.1720345483
C   C99       1.0  0.94310  0.41600  0.64050  1.0000 -0.209255575
C   C100      1.0  0.04110  0.47820  0.68680  1.0000 0.0833051145
C   C101      1.0  0.84360  0.30730  0.52492  1.0000 -0.2420065144
C   C102      1.0  0.78130  0.23470  0.57140  1.0000 -0.1387612532
C   C103      1.0  0.68780  0.15830  0.51855  1.0000 -0.2591961135
C   C104      1.0  0.63160  0.08360  0.56498  1.0000 0.1779734781
C   C105      1.0  0.68110  0.01080  0.59483  1.0000 -0.209255575
C   C106      1.0  0.62870  0.94390  0.63652  1.0000 0.0995200767
C   C107      1.0  0.48190  0.01470  0.62314  1.0000 0.0833051145
C   C108      1.0  0.52860  0.08480  0.58021  1.0000 -0.209255575
N   N1        1.0  0.63170  0.47245  0.16703  1.0000 -0.2708207975
N   N2        1.0  0.52480  0.05465  0.19447  1.0000 -0.2708207975
N   N3        1.0  0.85590  0.49380  0.32710  1.0000 -0.2420065144
N   N4        1.0  0.46910  0.05483  0.34742  1.0000 -0.2517137425
N   N5        1.0  0.36830  0.52755  0.83297  1.0000 -0.2708207975
N   N6        1.0  0.47520  0.94535  0.80553  1.0000 -0.2708207975
N   N7        1.0  0.14410  0.50620  0.67290  1.0000 -0.2420065144
N   N8        1.0  0.53090  0.94517  0.65258  1.0000 -0.2517137425
O   O1        1.0  0.82533  0.38403  0.19271  1.0000 -0.5697898924
O   O2        1.0  0.59160  0.26186  0.19679  1.0000 -0.774624602
O   O3        1.0  0.74480  0.24956  0.13035  1.0000 -0.5384207229
O   O4        1.0  0.37270  0.25108  0.11475  1.0000 -0.534447209
O   O5        1.0  0.36086  0.15766  0.21411  1.0000 -0.5697898924
O   O6        1.0  0.80082  0.29911  0.33464  1.0000 -0.5594272474
O   O7        1.0  0.71001  0.14862  0.32958  1.0000 -0.5594272474
O   O8        1.0  0.53098  0.25487  0.35070  1.0000 -0.5384207229
O   O9        1.0  0.60155  0.39721  0.31307  1.0000 -0.5697898924
O   O10       1.0  0.17467  0.61597  0.80729  1.0000 -0.5697898924
O   O11       1.0  0.40840  0.73814  0.80321  1.0000 -0.7758662263
O   O12       1.0  0.25520  0.75044  0.86965  1.0000 -0.5384207229
O   O13       1.0  0.62730  0.74892  0.88525  1.0000 -0.534447209
O   O14       1.0  0.63914  0.84234  0.78589  1.0000 -0.5697898924
O   O15       1.0  0.19918  0.70089  0.66536  1.0000 -0.5594272474
O   O16       1.0  0.28999  0.85138  0.67042  1.0000 -0.5594272474
O   O17       1.0  0.46902  0.74513  0.64930  1.0000 -0.5384207229
O   O18       1.0  0.39845  0.60279  0.68693  1.0000 -0.5697898924
F   F1        1.0  0.13950  0.43300  0.97780  1.0000 -0.1692526584
F   F2        1.0  0.06870  0.41190  0.21419  1.0000 -0.1533867006
F   F3        1.0  0.81670  0.09890  0.03518  1.0000 -0.1616083857
F   F4        1.0  0.18130  0.14780  0.99280  1.0000 -0.1533867006
F   F5        1.0  0.26381  0.16582  0.44829  1.0000 -0.1616083857
F   F6        1.0  0.86796  0.06417  0.44068  1.0000 -0.1533867006
F   F7        1.0  0.27300  0.48605  0.47881  1.0000 -0.1616083857
F   F8        1.0  0.52020  0.29380  0.49987  1.0000 -0.1387612532
F   F9        1.0  0.86050  0.56700  0.02220  1.0000 -0.1692526584
F   F10       1.0  0.93130  0.58810  0.78581  1.0000 -0.1533867006
F   F11       1.0  0.18330  0.90110  0.96482  1.0000 -0.1616083857
F   F12       1.0  0.81870  0.85220  0.00720  1.0000 -0.1533867006
F   F13       1.0  0.73619  0.83418  0.55171  1.0000 -0.1616083857
F   F14       1.0  0.13204  0.93583  0.55932  1.0000 -0.1533867006
F   F15       1.0  0.72700  0.51395  0.52119  1.0000 -0.1616083857
F   F16       1.0  0.47980  0.70620  0.50013  1.0000 -0.1387612532
