# DDEC6 charges by PACMAN v1.1 (https://github.com/mtap-research/PACMAN-charge/)
data_2020[Zn][fes]2[FSR]1
_chemical_formula_sum              "Zn4 H52 C60 N12 O20"
_cell_length_a       9.3824
_cell_length_b       14.7232
_cell_length_c       15.8353
_cell_angle_alpha    90
_cell_angle_beta     114.333
_cell_angle_gamma    90

_symmetry_space_group_name_H-M    "P 1"
_symmetry_Int_Tables_number       1

loop_
  _symmetry_equiv_pos_as_xyz
  'x, y, z'

loop_
  _atom_site_type_symbol
  _atom_site_label
  _atom_site_symmetry_multiplicity
  _atom_site_fract_x
  _atom_site_fract_y
  _atom_site_fract_z
  _atom_site_occupancy
  _atom_site_charge
Zn  Zn1       1.0  0.29521  0.39173  0.77711  1.0000 0.7831730892
Zn  Zn2       1.0  0.70479  0.89173  0.72289  1.0000 0.7831730892
Zn  Zn3       1.0  0.70479  0.60827  0.22289  1.0000 0.7831730892
Zn  Zn4       1.0  0.29521  0.10827  0.27711  1.0000 0.7831730892
H   H1        1.0  0.15699  0.68286  0.92774  1.0000 0.1320714963
H   H2        1.0  0.99811  0.81026  0.89329  1.0000 0.1128585637
H   H3        1.0  0.81721  0.67202  0.51697  1.0000 0.1320714963
H   H4        1.0  0.95770  0.61606  0.65529  1.0000 0.1402985106
H   H5        1.0  0.45966  0.84246  0.37452  1.0000 0.1402985106
H   H6        1.0  0.48268  0.90385  0.51476  1.0000 0.1128585637
H   H7        1.0  0.61983  0.34823  0.81464  1.0000 0.0911700664
H   H8        1.0  0.91759  0.54667  0.91871  1.0000 0.1320714963
H   H9        1.0  0.75305  0.58083  0.84229  1.0000 0.1402985106
H   H10       1.0  0.76483  0.54311  0.93973  1.0000 0.1402985106
H   H11       1.0  0.99412  0.40334  0.90260  1.0000 0.1402985106
H   H12       1.0  0.87181  0.32988  0.83829  1.0000 0.1320714963
H   H13       1.0  0.91560  0.41635  0.79249  1.0000 0.1402985106
H   H14       1.0  0.84301  0.18286  0.57226  1.0000 0.1320714963
H   H15       1.0  0.00189  0.31026  0.60671  1.0000 0.1128585637
H   H16       1.0  0.18279  0.17202  0.98303  1.0000 0.1320714963
H   H17       1.0  0.04230  0.11606  0.84471  1.0000 0.1402985106
H   H18       1.0  0.54034  0.34246  0.12548  1.0000 0.1402985106
H   H19       1.0  0.51732  0.40385  0.98524  1.0000 0.1128585637
H   H20       1.0  0.38017  0.84823  0.68536  1.0000 0.0911700664
H   H21       1.0  0.08241  0.04667  0.58129  1.0000 0.1320714963
H   H22       1.0  0.24695  0.08083  0.65771  1.0000 0.1402985106
H   H23       1.0  0.23517  0.04311  0.56027  1.0000 0.1402985106
H   H24       1.0  0.00588  0.90334  0.59740  1.0000 0.1402985106
H   H25       1.0  0.12819  0.82988  0.66171  1.0000 0.1320714963
H   H26       1.0  0.08440  0.91635  0.70751  1.0000 0.1402985106
H   H27       1.0  0.84301  0.31714  0.07226  1.0000 0.1320714963
H   H28       1.0  0.00189  0.18974  0.10671  1.0000 0.1128585637
H   H29       1.0  0.18279  0.32798  0.48303  1.0000 0.1320714963
H   H30       1.0  0.04230  0.38394  0.34471  1.0000 0.1402985106
H   H31       1.0  0.54034  0.15754  0.62548  1.0000 0.1402985106
H   H32       1.0  0.51732  0.09615  0.48524  1.0000 0.1128585637
H   H33       1.0  0.38017  0.65177  0.18536  1.0000 0.0911700664
H   H34       1.0  0.08241  0.45333  0.08129  1.0000 0.1320714963
H   H35       1.0  0.24695  0.41917  0.15771  1.0000 0.1402985106
H   H36       1.0  0.23517  0.45689  0.06027  1.0000 0.1402985106
H   H37       1.0  0.00588  0.59666  0.09740  1.0000 0.1402985106
H   H38       1.0  0.12819  0.67012  0.16171  1.0000 0.1320714963
H   H39       1.0  0.08440  0.58365  0.20751  1.0000 0.1402985106
H   H40       1.0  0.15699  0.81714  0.42774  1.0000 0.1320714963
H   H41       1.0  0.99811  0.68974  0.39329  1.0000 0.1128585637
H   H42       1.0  0.81721  0.82798  0.01697  1.0000 0.1320714963
H   H43       1.0  0.95770  0.88394  0.15529  1.0000 0.1402985106
H   H44       1.0  0.45966  0.65754  0.87452  1.0000 0.1402985106
H   H45       1.0  0.48268  0.59615  0.01476  1.0000 0.1128585637
H   H46       1.0  0.61983  0.15177  0.31464  1.0000 0.0911700664
H   H47       1.0  0.91759  0.95333  0.41871  1.0000 0.1320714963
H   H48       1.0  0.75305  0.91917  0.34229  1.0000 0.1402985106
H   H49       1.0  0.76483  0.95689  0.43973  1.0000 0.1402985106
H   H50       1.0  0.99412  0.09666  0.40260  1.0000 0.1402985106
H   H51       1.0  0.87181  0.17012  0.33829  1.0000 0.1320714963
H   H52       1.0  0.91560  0.08365  0.29249  1.0000 0.1402985106
C   C1        1.0  0.17040  0.54860  0.81780  1.0000 0.5280891408
C   C2        1.0  0.07410  0.63510  0.79510  1.0000 0.0454500703
C   C3        1.0  0.08490  0.69430  0.86570  1.0000 -0.1626813474
C   C4        1.0  0.87490  0.73220  0.68950  1.0000 0.1697657903
C   C5        1.0  0.98980  0.76990  0.84470  1.0000 0.0911700664
C   C6        1.0  0.63690  0.75090  0.43120  1.0000 0.0433624442
C   C7        1.0  0.74780  0.71970  0.51520  1.0000 -0.1951029549
C   C8        1.0  0.75600  0.75910  0.59690  1.0000 0.1697657903
C   C9        1.0  0.96730  0.65490  0.70520  1.0000 -0.1933799386
C   C10       1.0  0.53690  0.82010  0.43120  1.0000 -0.1420739541
C   C11       1.0  0.55140  0.85630  0.51500  1.0000 0.1128585637
C   C12       1.0  0.62970  0.71290  0.34070  1.0000 0.5280891408
C   C13       1.0  0.63330  0.41040  0.83200  1.0000 0.2929768761
C   C14       1.0  0.80430  0.53640  0.89160  1.0000 -0.341122056
C   C15       1.0  0.89860  0.39460  0.84610  1.0000 -0.3595229338
C   C16       1.0  0.82960  0.04860  0.68220  1.0000 0.5280891408
C   C17       1.0  0.92590  0.13510  0.70490  1.0000 0.0454500703
C   C18       1.0  0.91510  0.19430  0.63430  1.0000 -0.1626813474
C   C19       1.0  0.12510  0.23220  0.81050  1.0000 0.1697657903
C   C20       1.0  0.01020  0.26990  0.65530  1.0000 0.0911700664
C   C21       1.0  0.36310  0.25090  0.06880  1.0000 0.0433624442
C   C22       1.0  0.25220  0.21970  0.98480  1.0000 -0.1933799386
C   C23       1.0  0.24400  0.25910  0.90310  1.0000 0.1697657903
C   C24       1.0  0.03270  0.15490  0.79480  1.0000 -0.1933799386
C   C25       1.0  0.46310  0.32010  0.06880  1.0000 -0.1420739541
C   C26       1.0  0.44860  0.35630  0.98500  1.0000 0.1128585637
C   C27       1.0  0.37030  0.21290  0.15930  1.0000 0.5280891408
C   C28       1.0  0.36670  0.91040  0.66800  1.0000 0.2929768761
C   C29       1.0  0.19570  0.03640  0.60840  1.0000 -0.341122056
C   C30       1.0  0.10140  0.89460  0.65390  1.0000 -0.3595229338
C   C31       1.0  0.82960  0.45140  0.18220  1.0000 0.5280891408
C   C32       1.0  0.92590  0.36490  0.20490  1.0000 0.0454500703
C   C33       1.0  0.91510  0.30570  0.13430  1.0000 -0.1626813474
C   C34       1.0  0.12510  0.26780  0.31050  1.0000 0.1697657903
C   C35       1.0  0.01020  0.23010  0.15530  1.0000 0.0911700664
C   C36       1.0  0.36310  0.24910  0.56880  1.0000 0.0433624442
C   C37       1.0  0.25220  0.28030  0.48480  1.0000 -0.1933799386
C   C38       1.0  0.24400  0.24090  0.40310  1.0000 0.1697657903
C   C39       1.0  0.03270  0.34510  0.29480  1.0000 -0.1933799386
C   C40       1.0  0.46310  0.17990  0.56880  1.0000 -0.1420739541
C   C41       1.0  0.44860  0.14370  0.48500  1.0000 0.1128585637
C   C42       1.0  0.37030  0.28710  0.65930  1.0000 0.5280891408
C   C43       1.0  0.36670  0.58960  0.16800  1.0000 0.2929768761
C   C44       1.0  0.19570  0.46360  0.10840  1.0000 -0.341122056
C   C45       1.0  0.10140  0.60540  0.15390  1.0000 -0.3595229338
C   C46       1.0  0.17040  0.95140  0.31780  1.0000 0.5280891408
C   C47       1.0  0.07410  0.86490  0.29510  1.0000 0.0454500703
C   C48       1.0  0.08490  0.80570  0.36570  1.0000 -0.1626813474
C   C49       1.0  0.87490  0.76780  0.18950  1.0000 0.1697657903
C   C50       1.0  0.98980  0.73010  0.34470  1.0000 0.0911700664
C   C51       1.0  0.63690  0.74910  0.93120  1.0000 0.0454500703
C   C52       1.0  0.74780  0.78030  0.01520  1.0000 -0.1951029549
C   C53       1.0  0.75600  0.74090  0.09690  1.0000 0.1697657903
C   C54       1.0  0.96730  0.84510  0.20520  1.0000 -0.1933799386
C   C55       1.0  0.53690  0.67990  0.93120  1.0000 -0.1420739541
C   C56       1.0  0.55140  0.64370  0.01500  1.0000 0.1128585637
C   C57       1.0  0.62970  0.78710  0.84070  1.0000 0.5280891408
C   C58       1.0  0.63330  0.08960  0.33200  1.0000 0.2929768761
C   C59       1.0  0.80430  0.96360  0.39160  1.0000 -0.341122056
C   C60       1.0  0.89860  0.10540  0.34610  1.0000 -0.3595229338
N   N1        1.0  0.88651  0.78851  0.75891  1.0000 -0.261174685
N   N2        1.0  0.65826  0.82681  0.59606  1.0000 -0.261174685
N   N3        1.0  0.77110  0.44530  0.85330  1.0000 0.0433624442
N   N4        1.0  0.11349  0.28851  0.74109  1.0000 -0.261174685
N   N5        1.0  0.34174  0.32681  0.90394  1.0000 -0.261174685
N   N6        1.0  0.22890  0.94530  0.64670  1.0000 0.0433624442
N   N7        1.0  0.11349  0.21149  0.24109  1.0000 -0.261174685
N   N8        1.0  0.34174  0.17319  0.40394  1.0000 -0.261174685
N   N9        1.0  0.22890  0.55470  0.14670  1.0000 0.0433624442
N   N10       1.0  0.88651  0.71149  0.25891  1.0000 -0.261174685
N   N11       1.0  0.65826  0.67319  0.09606  1.0000 -0.261174685
N   N12       1.0  0.77110  0.05470  0.35330  1.0000 0.0433624442
O   O1        1.0  0.24166  0.52822  0.89936  1.0000 -0.5308000321
O   O2        1.0  0.16725  0.50348  0.74815  1.0000 -0.5383351991
O   O3        1.0  0.51937  0.45081  0.83247  1.0000 -0.4285812924
O   O4        1.0  0.56541  0.75897  0.26951  1.0000 -0.5516619632
O   O5        1.0  0.69256  0.63576  0.34486  1.0000 -0.5308000321
O   O6        1.0  0.75834  0.02822  0.60064  1.0000 -0.5308000321
O   O7        1.0  0.83275  0.00348  0.75185  1.0000 -0.5383351991
O   O8        1.0  0.48063  0.95081  0.66753  1.0000 -0.4285812924
O   O9        1.0  0.43459  0.25897  0.23049  1.0000 -0.5516619632
O   O10       1.0  0.30744  0.13576  0.15514  1.0000 -0.5308000321
O   O11       1.0  0.75834  0.47178  0.10064  1.0000 -0.5308000321
O   O12       1.0  0.83275  0.49652  0.25185  1.0000 -0.5383351991
O   O13       1.0  0.48063  0.54919  0.16753  1.0000 -0.4285812924
O   O14       1.0  0.43459  0.24103  0.73049  1.0000 -0.5516619632
O   O15       1.0  0.30744  0.36424  0.65514  1.0000 -0.5308000321
O   O16       1.0  0.24166  0.97178  0.39936  1.0000 -0.5308000321
O   O17       1.0  0.16725  0.99652  0.24815  1.0000 -0.5383351991
O   O18       1.0  0.51937  0.04919  0.33247  1.0000 -0.4285812924
O   O19       1.0  0.56541  0.74103  0.76951  1.0000 -0.5516619632
O   O20       1.0  0.69256  0.86424  0.84486  1.0000 -0.5308000321
