# DDEC6 charges by PACMAN v1.1 (https://github.com/mtap-research/PACMAN-charge/)
data_2020[Zn][hwx]3[FSR]1
_chemical_formula_sum              "Zn16 H88 C128 N24 O48"
_cell_length_a       15.156
_cell_length_b       17.222
_cell_length_c       19.343
_cell_angle_alpha    90
_cell_angle_beta     90
_cell_angle_gamma    90

_symmetry_space_group_name_H-M    "P 1"
_symmetry_Int_Tables_number       1

loop_
  _symmetry_equiv_pos_as_xyz
  'x, y, z'

loop_
  _atom_site_type_symbol
  _atom_site_label
  _atom_site_symmetry_multiplicity
  _atom_site_fract_x
  _atom_site_fract_y
  _atom_site_fract_z
  _atom_site_occupancy
  _atom_site_charge
Zn  Zn1       1.0  0.85655  0.01882  0.58234  1.0000 0.8614306606
Zn  Zn2       1.0  0.97294  0.19743  0.58293  1.0000 0.8660555042
Zn  Zn3       1.0  0.14345  0.98118  0.58234  1.0000 0.8614306606
Zn  Zn4       1.0  0.02706  0.80257  0.58293  1.0000 0.8660555042
Zn  Zn5       1.0  0.64345  0.51882  0.91766  1.0000 0.8614306606
Zn  Zn6       1.0  0.52706  0.69743  0.91707  1.0000 0.8660555042
Zn  Zn7       1.0  0.35655  0.48118  0.91766  1.0000 0.8614306606
Zn  Zn8       1.0  0.47294  0.30257  0.91707  1.0000 0.8660555042
Zn  Zn9       1.0  0.14345  0.98118  0.41766  1.0000 0.8614306606
Zn  Zn10      1.0  0.02706  0.80257  0.41707  1.0000 0.8660555042
Zn  Zn11      1.0  0.85655  0.01882  0.41766  1.0000 0.8614306606
Zn  Zn12      1.0  0.97294  0.19743  0.41707  1.0000 0.8660555042
Zn  Zn13      1.0  0.35655  0.48118  0.08234  1.0000 0.8614306606
Zn  Zn14      1.0  0.47294  0.30257  0.08293  1.0000 0.8660555042
Zn  Zn15      1.0  0.64345  0.51882  0.08234  1.0000 0.8614306606
Zn  Zn16      1.0  0.52706  0.69743  0.08293  1.0000 0.8660555042
H   H1        1.0  0.53910  0.26150  0.71050  1.0000 0.1205981023
H   H2        1.0  0.57970  0.22600  0.59920  1.0000 0.127521572
H   H3        1.0  0.73690  0.06080  0.67710  1.0000 0.1099095929
H   H4        1.0  0.69570  0.09620  0.78760  1.0000 0.127521572
H   H5        1.0  0.68370  0.46230  0.71180  1.0000 0.1205981023
H   H6        1.0  0.72090  0.42490  0.60040  1.0000 0.127521572
H   H7        1.0  0.80790  0.27410  0.78650  1.0000 0.127521572
H   H8        1.0  0.84030  0.23440  0.67580  1.0000 0.1099095929
H   H9        1.0  0.93690  0.09140  0.66050  1.0000 0.3416009925
H   H10       1.0  0.95740  0.08320  0.59350  1.0000 0.2421040691
H   H11       1.0  0.46090  0.73850  0.71050  1.0000 0.1205981023
H   H12       1.0  0.42030  0.77400  0.59920  1.0000 0.127521572
H   H13       1.0  0.26310  0.93920  0.67710  1.0000 0.1099095929
H   H14       1.0  0.30430  0.90380  0.78760  1.0000 0.127521572
H   H15       1.0  0.31630  0.53770  0.71180  1.0000 0.1205981023
H   H16       1.0  0.27910  0.57510  0.60040  1.0000 0.127521572
H   H17       1.0  0.19210  0.72590  0.78650  1.0000 0.127521572
H   H18       1.0  0.15970  0.76560  0.67580  1.0000 0.1099095929
H   H19       1.0  0.06310  0.90860  0.66050  1.0000 0.3416009925
H   H20       1.0  0.04260  0.91680  0.59350  1.0000 0.2421040691
H   H21       1.0  0.96090  0.76150  0.78950  1.0000 0.1205981023
H   H22       1.0  0.92030  0.72600  0.90080  1.0000 0.127521572
H   H23       1.0  0.76310  0.56080  0.82290  1.0000 0.1099095929
H   H24       1.0  0.80430  0.59620  0.71240  1.0000 0.127521572
H   H25       1.0  0.81630  0.96230  0.78820  1.0000 0.1205981023
H   H26       1.0  0.77910  0.92490  0.89960  1.0000 0.127521572
H   H27       1.0  0.69210  0.77410  0.71350  1.0000 0.127521572
H   H28       1.0  0.65970  0.73440  0.82420  1.0000 0.1099095929
H   H29       1.0  0.56310  0.59140  0.83950  1.0000 0.3416009925
H   H30       1.0  0.54260  0.58320  0.90650  1.0000 0.2421040691
H   H31       1.0  0.03910  0.23850  0.78950  1.0000 0.1205981023
H   H32       1.0  0.07970  0.27400  0.90080  1.0000 0.127521572
H   H33       1.0  0.23690  0.43920  0.82290  1.0000 0.1099095929
H   H34       1.0  0.19570  0.40380  0.71240  1.0000 0.127521572
H   H35       1.0  0.18370  0.03770  0.78820  1.0000 0.1205981023
H   H36       1.0  0.22090  0.07510  0.89960  1.0000 0.127521572
H   H37       1.0  0.30790  0.22590  0.71350  1.0000 0.127521572
H   H38       1.0  0.34030  0.26560  0.82420  1.0000 0.1099095929
H   H39       1.0  0.43690  0.40860  0.83950  1.0000 0.3416009925
H   H40       1.0  0.45740  0.41680  0.90650  1.0000 0.2421040691
H   H41       1.0  0.46090  0.73850  0.28950  1.0000 0.1205981023
H   H42       1.0  0.42030  0.77400  0.40080  1.0000 0.127521572
H   H43       1.0  0.26310  0.93920  0.32290  1.0000 0.1099095929
H   H44       1.0  0.30430  0.90380  0.21240  1.0000 0.127521572
H   H45       1.0  0.31630  0.53770  0.28820  1.0000 0.1205981023
H   H46       1.0  0.27910  0.57510  0.39960  1.0000 0.127521572
H   H47       1.0  0.19210  0.72590  0.21350  1.0000 0.127521572
H   H48       1.0  0.15970  0.76560  0.32420  1.0000 0.1099095929
H   H49       1.0  0.06310  0.90860  0.33950  1.0000 0.3416009925
H   H50       1.0  0.04260  0.91680  0.40650  1.0000 0.2421040691
H   H51       1.0  0.53910  0.26150  0.28950  1.0000 0.1205981023
H   H52       1.0  0.57970  0.22600  0.40080  1.0000 0.127521572
H   H53       1.0  0.73690  0.06080  0.32290  1.0000 0.1099095929
H   H54       1.0  0.69570  0.09620  0.21240  1.0000 0.127521572
H   H55       1.0  0.68370  0.46230  0.28820  1.0000 0.1205981023
H   H56       1.0  0.72090  0.42490  0.39960  1.0000 0.127521572
H   H57       1.0  0.80790  0.27410  0.21350  1.0000 0.127521572
H   H58       1.0  0.84030  0.23440  0.32420  1.0000 0.1099095929
H   H59       1.0  0.93690  0.09140  0.33950  1.0000 0.3416009925
H   H60       1.0  0.95740  0.08320  0.40650  1.0000 0.2421040691
H   H61       1.0  0.03910  0.23850  0.21050  1.0000 0.127521572
H   H62       1.0  0.07970  0.27400  0.09920  1.0000 0.127521572
H   H63       1.0  0.23690  0.43920  0.17710  1.0000 0.1099095929
H   H64       1.0  0.19570  0.40380  0.28760  1.0000 0.127521572
H   H65       1.0  0.18370  0.03770  0.21180  1.0000 0.1205981023
H   H66       1.0  0.22090  0.07510  0.10040  1.0000 0.127521572
H   H67       1.0  0.30790  0.22590  0.28650  1.0000 0.127521572
H   H68       1.0  0.34030  0.26560  0.17580  1.0000 0.1099095929
H   H69       1.0  0.43690  0.40860  0.16050  1.0000 0.3416009925
H   H70       1.0  0.45740  0.41680  0.09350  1.0000 0.2421040691
H   H71       1.0  0.96090  0.76150  0.21050  1.0000 0.1205981023
H   H72       1.0  0.92030  0.72600  0.09920  1.0000 0.127521572
H   H73       1.0  0.76310  0.56080  0.17710  1.0000 0.1099095929
H   H74       1.0  0.80430  0.59620  0.28760  1.0000 0.127521572
H   H75       1.0  0.81630  0.96230  0.21180  1.0000 0.1205981023
H   H76       1.0  0.77910  0.92490  0.10040  1.0000 0.127521572
H   H77       1.0  0.69210  0.77410  0.28650  1.0000 0.127521572
H   H78       1.0  0.65970  0.73440  0.17580  1.0000 0.1099095929
H   H79       1.0  0.56310  0.59140  0.16050  1.0000 0.3416009925
H   H80       1.0  0.54260  0.58320  0.09350  1.0000 0.2421040691
H   H81       1.0  0.96510  0.96440  0.50000  1.0000 0.3458699367
H   H82       1.0  0.09320  0.19070  0.50000  1.0000 0.4046157084
H   H83       1.0  0.03490  0.03560  0.50000  1.0000 0.3458699367
H   H84       1.0  0.90680  0.80930  0.50000  1.0000 0.4046157084
H   H85       1.0  0.53490  0.46440  0.00000  1.0000 0.3458699367
H   H86       1.0  0.40680  0.69070  0.00000  1.0000 0.4046157084
H   H87       1.0  0.46510  0.53560  0.00000  1.0000 0.3458699367
H   H88       1.0  0.59320  0.30930  0.00000  1.0000 0.4046157084
C   C1        1.0  0.61350  0.18300  0.76060  1.0000 -0.0166836713
C   C2        1.0  0.57900  0.22120  0.70400  1.0000 -0.0873782472
C   C3        1.0  0.60340  0.19990  0.63690  1.0000 -0.1069746309
C   C4        1.0  0.66290  0.13960  0.62660  1.0000 0.0330742164
C   C5        1.0  0.69710  0.10120  0.68340  1.0000 -0.1254461615
C   C6        1.0  0.67240  0.12270  0.74990  1.0000 -0.0873782472
C   C7        1.0  0.58560  0.20650  0.83250  1.0000 0.5681957758
C   C8        1.0  0.68640  0.11990  0.55450  1.0000 0.2900387279
C   C9        1.0  0.74140  0.37190  0.76090  1.0000 -0.0166836713
C   C10       1.0  0.71560  0.41690  0.70470  1.0000 -0.1028459438
C   C11       1.0  0.73770  0.39420  0.63770  1.0000 -0.1069746309
C   C12       1.0  0.78460  0.32570  0.62620  1.0000 0.0330742164
C   C13       1.0  0.78940  0.30390  0.74920  1.0000 -0.0873782472
C   C14       1.0  0.80970  0.28050  0.68280  1.0000 -0.1207036239
C   C15       1.0  0.72090  0.39910  0.83300  1.0000 0.5681957758
C   C16       1.0  0.80770  0.30560  0.55420  1.0000 0.2900387279
C   C17       1.0  0.38650  0.81700  0.76060  1.0000 -0.0166836713
C   C18       1.0  0.42100  0.77880  0.70400  1.0000 -0.0873782472
C   C19       1.0  0.39660  0.80010  0.63690  1.0000 -0.1069746309
C   C20       1.0  0.33710  0.86040  0.62660  1.0000 0.0330742164
C   C21       1.0  0.30290  0.89880  0.68340  1.0000 -0.1254461615
C   C22       1.0  0.32760  0.87730  0.74990  1.0000 -0.0873782472
C   C23       1.0  0.41440  0.79350  0.83250  1.0000 0.5681957758
C   C24       1.0  0.31360  0.88010  0.55450  1.0000 0.2900387279
C   C25       1.0  0.25860  0.62810  0.76090  1.0000 -0.0166836713
C   C26       1.0  0.28440  0.58310  0.70470  1.0000 -0.1028459438
C   C27       1.0  0.26230  0.60580  0.63770  1.0000 -0.1069746309
C   C28       1.0  0.21540  0.67430  0.62620  1.0000 0.0330742164
C   C29       1.0  0.21060  0.69610  0.74920  1.0000 -0.0873782472
C   C30       1.0  0.19030  0.71950  0.68280  1.0000 -0.1207036239
C   C31       1.0  0.27910  0.60090  0.83300  1.0000 0.5681957758
C   C32       1.0  0.19230  0.69440  0.55420  1.0000 0.2900387279
C   C33       1.0  0.88650  0.68300  0.73940  1.0000 -0.0166836713
C   C34       1.0  0.92100  0.72120  0.79600  1.0000 -0.0873782472
C   C35       1.0  0.89660  0.69990  0.86310  1.0000 -0.1069746309
C   C36       1.0  0.83710  0.63960  0.87340  1.0000 0.0330742164
C   C37       1.0  0.80290  0.60120  0.81660  1.0000 -0.1254461615
C   C38       1.0  0.82760  0.62270  0.75010  1.0000 -0.0873782472
C   C39       1.0  0.91440  0.70650  0.66750  1.0000 0.5681957758
C   C40       1.0  0.81360  0.61990  0.94550  1.0000 0.2900387279
C   C41       1.0  0.75860  0.87190  0.73910  1.0000 -0.0166836713
C   C42       1.0  0.78440  0.91690  0.79530  1.0000 -0.1028459438
C   C43       1.0  0.76230  0.89420  0.86230  1.0000 -0.1069746309
C   C44       1.0  0.71540  0.82570  0.87380  1.0000 0.0330742164
C   C45       1.0  0.71060  0.80390  0.75080  1.0000 -0.0873782472
C   C46       1.0  0.69030  0.78050  0.81720  1.0000 -0.1207036239
C   C47       1.0  0.77910  0.89910  0.66700  1.0000 0.5681957758
C   C48       1.0  0.69230  0.80560  0.94580  1.0000 0.2900387279
C   C49       1.0  0.11350  0.31700  0.73940  1.0000 -0.0166836713
C   C50       1.0  0.07900  0.27880  0.79600  1.0000 -0.0873782472
C   C51       1.0  0.10340  0.30010  0.86310  1.0000 -0.1069746309
C   C52       1.0  0.16290  0.36040  0.87340  1.0000 0.0330742164
C   C53       1.0  0.19710  0.39880  0.81660  1.0000 -0.1254461615
C   C54       1.0  0.17240  0.37730  0.75010  1.0000 -0.0873782472
C   C55       1.0  0.08560  0.29350  0.66750  1.0000 0.5681957758
C   C56       1.0  0.18640  0.38010  0.94550  1.0000 0.2900387279
C   C57       1.0  0.24140  0.12810  0.73910  1.0000 -0.0166836713
C   C58       1.0  0.21560  0.08310  0.79530  1.0000 -0.1028459438
C   C59       1.0  0.23770  0.10580  0.86230  1.0000 -0.1069746309
C   C60       1.0  0.28460  0.17430  0.87380  1.0000 0.0330742164
C   C61       1.0  0.28940  0.19610  0.75080  1.0000 -0.0873782472
C   C62       1.0  0.30970  0.21950  0.81720  1.0000 -0.1207036239
C   C63       1.0  0.22090  0.10090  0.66700  1.0000 0.5681957758
C   C64       1.0  0.30770  0.19440  0.94580  1.0000 0.2900387279
C   C65       1.0  0.38650  0.81700  0.23940  1.0000 -0.0166836713
C   C66       1.0  0.42100  0.77880  0.29600  1.0000 -0.0873782472
C   C67       1.0  0.39660  0.80010  0.36310  1.0000 -0.1069746309
C   C68       1.0  0.33710  0.86040  0.37340  1.0000 0.0330742164
C   C69       1.0  0.30290  0.89880  0.31660  1.0000 -0.1254461615
C   C70       1.0  0.32760  0.87730  0.25010  1.0000 -0.0873782472
C   C71       1.0  0.41440  0.79350  0.16750  1.0000 0.5681957758
C   C72       1.0  0.31360  0.88010  0.44550  1.0000 0.2900387279
C   C73       1.0  0.25860  0.62810  0.23910  1.0000 -0.0166836713
C   C74       1.0  0.28440  0.58310  0.29530  1.0000 -0.1028459438
C   C75       1.0  0.26230  0.60580  0.36230  1.0000 -0.1069746309
C   C76       1.0  0.21540  0.67430  0.37380  1.0000 0.0330742164
C   C77       1.0  0.21060  0.69610  0.25080  1.0000 -0.0873782472
C   C78       1.0  0.19030  0.71950  0.31720  1.0000 -0.1207036239
C   C79       1.0  0.27910  0.60090  0.16700  1.0000 0.5681957758
C   C80       1.0  0.19230  0.69440  0.44580  1.0000 0.2900387279
C   C81       1.0  0.61350  0.18300  0.23940  1.0000 -0.0166836713
C   C82       1.0  0.57900  0.22120  0.29600  1.0000 -0.0873782472
C   C83       1.0  0.60340  0.19990  0.36310  1.0000 -0.1069746309
C   C84       1.0  0.66290  0.13960  0.37340  1.0000 0.0330742164
C   C85       1.0  0.69710  0.10120  0.31660  1.0000 -0.1254461615
C   C86       1.0  0.67240  0.12270  0.25010  1.0000 -0.0873782472
C   C87       1.0  0.58560  0.20650  0.16750  1.0000 0.5681957758
C   C88       1.0  0.68640  0.11990  0.44550  1.0000 0.2900387279
C   C89       1.0  0.74140  0.37190  0.23910  1.0000 -0.0166836713
C   C90       1.0  0.71560  0.41690  0.29530  1.0000 -0.1028459438
C   C91       1.0  0.73770  0.39420  0.36230  1.0000 -0.1069746309
C   C92       1.0  0.78460  0.32570  0.37380  1.0000 0.0330742164
C   C93       1.0  0.78940  0.30390  0.25080  1.0000 -0.0873782472
C   C94       1.0  0.80970  0.28050  0.31720  1.0000 -0.1207036239
C   C95       1.0  0.72090  0.39910  0.16700  1.0000 0.5681957758
C   C96       1.0  0.80770  0.30560  0.44580  1.0000 0.2900387279
C   C97       1.0  0.11350  0.31700  0.26060  1.0000 -0.0166836713
C   C98       1.0  0.07900  0.27880  0.20400  1.0000 -0.0873782472
C   C99       1.0  0.10340  0.30010  0.13690  1.0000 -0.1069746309
C   C100      1.0  0.16290  0.36040  0.12660  1.0000 0.0330742164
C   C101      1.0  0.19710  0.39880  0.18340  1.0000 -0.1254461615
C   C102      1.0  0.17240  0.37730  0.24990  1.0000 -0.0873782472
C   C103      1.0  0.08560  0.29350  0.33250  1.0000 0.5681957758
C   C104      1.0  0.18640  0.38010  0.05450  1.0000 0.2900387279
C   C105      1.0  0.24140  0.12810  0.26090  1.0000 -0.0166836713
C   C106      1.0  0.21560  0.08310  0.20470  1.0000 -0.1028459438
C   C107      1.0  0.23770  0.10580  0.13770  1.0000 -0.1069746309
C   C108      1.0  0.28460  0.17430  0.12620  1.0000 0.0330742164
C   C109      1.0  0.28940  0.19610  0.24920  1.0000 -0.0873782472
C   C110      1.0  0.30970  0.21950  0.18280  1.0000 -0.1207036239
C   C111      1.0  0.22090  0.10090  0.33300  1.0000 0.5681957758
C   C112      1.0  0.30770  0.19440  0.05420  1.0000 0.2900387279
C   C113      1.0  0.88650  0.68300  0.26060  1.0000 -0.0166836713
C   C114      1.0  0.92100  0.72120  0.20400  1.0000 -0.0873782472
C   C115      1.0  0.89660  0.69990  0.13690  1.0000 -0.1069746309
C   C116      1.0  0.83710  0.63960  0.12660  1.0000 0.0330742164
C   C117      1.0  0.80290  0.60120  0.18340  1.0000 -0.1254461615
C   C118      1.0  0.82760  0.62270  0.24990  1.0000 -0.0873782472
C   C119      1.0  0.91440  0.70650  0.33250  1.0000 0.5681957758
C   C120      1.0  0.81360  0.61990  0.05450  1.0000 0.2900387279
C   C121      1.0  0.75860  0.87190  0.26090  1.0000 -0.0166836713
C   C122      1.0  0.78440  0.91690  0.20470  1.0000 -0.1028459438
C   C123      1.0  0.76230  0.89420  0.13770  1.0000 -0.1069746309
C   C124      1.0  0.71540  0.82570  0.12620  1.0000 0.0330742164
C   C125      1.0  0.71060  0.80390  0.24920  1.0000 -0.0873782472
C   C126      1.0  0.69030  0.78050  0.18280  1.0000 -0.1207036239
C   C127      1.0  0.77910  0.89910  0.33300  1.0000 0.5681957758
C   C128      1.0  0.69230  0.80560  0.05420  1.0000 0.2900387279
N   N1        1.0  0.75080  0.07110  0.53580  1.0000 -0.2796679542
N   N2        1.0  0.87480  0.26060  0.53554  1.0000 -0.2796679542
N   N3        1.0  0.24920  0.92890  0.53580  1.0000 -0.2796679542
N   N4        1.0  0.12520  0.73940  0.53554  1.0000 -0.2796679542
N   N5        1.0  0.74920  0.57110  0.96420  1.0000 -0.2796679542
N   N6        1.0  0.62520  0.76060  0.96446  1.0000 -0.2796679542
N   N7        1.0  0.25080  0.42890  0.96420  1.0000 -0.2796679542
N   N8        1.0  0.37480  0.23940  0.96446  1.0000 -0.2796679542
N   N9        1.0  0.24920  0.92890  0.46420  1.0000 -0.2796679542
N   N10       1.0  0.12520  0.73940  0.46446  1.0000 -0.2796679542
N   N11       1.0  0.75080  0.07110  0.46420  1.0000 -0.2796679542
N   N12       1.0  0.87480  0.26060  0.46446  1.0000 -0.2796679542
N   N13       1.0  0.25080  0.42890  0.03580  1.0000 -0.2796679542
N   N14       1.0  0.37480  0.23940  0.03554  1.0000 -0.2796679542
N   N15       1.0  0.74920  0.57110  0.03580  1.0000 -0.2796679542
N   N16       1.0  0.62520  0.76060  0.03554  1.0000 -0.2796679542
N   N17       1.0  0.64420  0.15150  0.50000  1.0000 -0.4201712676
N   N18       1.0  0.76470  0.33550  0.50000  1.0000 -0.4201712676
N   N19       1.0  0.35580  0.84850  0.50000  1.0000 -0.4201712676
N   N20       1.0  0.23530  0.66450  0.50000  1.0000 -0.4201712676
N   N21       1.0  0.85580  0.65150  0.00000  1.0000 -0.4201712676
N   N22       1.0  0.73530  0.83550  0.00000  1.0000 -0.4201712676
N   N23       1.0  0.14420  0.34850  0.00000  1.0000 -0.4201712676
N   N24       1.0  0.26470  0.16450  0.00000  1.0000 -0.4201712676
O   O1        1.0  0.52720  0.25790  0.83540  1.0000 -0.5599709593
O   O2        1.0  0.92320  0.10360  0.62091  1.0000 -0.621469035
O   O3        1.0  0.61920  0.17630  0.88260  1.0000 -0.4946849973
O   O4        1.0  0.65960  0.44990  0.83816  1.0000 -0.5824642025
O   O5        1.0  0.76610  0.37460  0.88140  1.0000 -0.5174845823
O   O6        1.0  0.47280  0.74210  0.83540  1.0000 -0.5599709593
O   O7        1.0  0.07680  0.89640  0.62091  1.0000 -0.621469035
O   O8        1.0  0.38080  0.82370  0.88260  1.0000 -0.4946849973
O   O9        1.0  0.34040  0.55010  0.83816  1.0000 -0.5824642025
O   O10       1.0  0.23390  0.62540  0.88140  1.0000 -0.5174845823
O   O11       1.0  0.97280  0.75790  0.66460  1.0000 -0.5599709593
O   O12       1.0  0.57680  0.60360  0.87909  1.0000 -0.621469035
O   O13       1.0  0.88080  0.67630  0.61740  1.0000 -0.4946849973
O   O14       1.0  0.84040  0.94990  0.66184  1.0000 -0.5824642025
O   O15       1.0  0.73390  0.87460  0.61860  1.0000 -0.5174845823
O   O16       1.0  0.02720  0.24210  0.66460  1.0000 -0.5599709593
O   O17       1.0  0.42320  0.39640  0.87909  1.0000 -0.621469035
O   O18       1.0  0.11920  0.32370  0.61740  1.0000 -0.4946849973
O   O19       1.0  0.15960  0.05010  0.66184  1.0000 -0.5824642025
O   O20       1.0  0.26610  0.12540  0.61860  1.0000 -0.5174845823
O   O21       1.0  0.47280  0.74210  0.16460  1.0000 -0.5599709593
O   O22       1.0  0.07680  0.89640  0.37909  1.0000 -0.621469035
O   O23       1.0  0.38080  0.82370  0.11740  1.0000 -0.4946849973
O   O24       1.0  0.34040  0.55010  0.16184  1.0000 -0.5824642025
O   O25       1.0  0.23390  0.62540  0.11860  1.0000 -0.5174845823
O   O26       1.0  0.52720  0.25790  0.16460  1.0000 -0.5599709593
O   O27       1.0  0.92320  0.10360  0.37909  1.0000 -0.621469035
O   O28       1.0  0.61920  0.17630  0.11740  1.0000 -0.4946849973
O   O29       1.0  0.65960  0.44990  0.16184  1.0000 -0.5824642025
O   O30       1.0  0.76610  0.37460  0.11860  1.0000 -0.5174845823
O   O31       1.0  0.02720  0.24210  0.33540  1.0000 -0.5599709593
O   O32       1.0  0.42320  0.39640  0.12091  1.0000 -0.621469035
O   O33       1.0  0.11920  0.32370  0.38260  1.0000 -0.4946849973
O   O34       1.0  0.15960  0.05010  0.33816  1.0000 -0.5824642025
O   O35       1.0  0.26610  0.12540  0.38140  1.0000 -0.5174845823
O   O36       1.0  0.97280  0.75790  0.33540  1.0000 -0.5599709593
O   O37       1.0  0.57680  0.60360  0.12091  1.0000 -0.621469035
O   O38       1.0  0.88080  0.67630  0.38260  1.0000 -0.4946849973
O   O39       1.0  0.84040  0.94990  0.33816  1.0000 -0.5824642025
O   O40       1.0  0.73390  0.87460  0.38140  1.0000 -0.5174845823
O   O41       1.0  0.91290  0.97700  0.50000  1.0000 -0.8457484089
O   O42       1.0  0.04150  0.17680  0.50000  1.0000 -0.8084575527
O   O43       1.0  0.08710  0.02300  0.50000  1.0000 -0.8457484089
O   O44       1.0  0.95850  0.82320  0.50000  1.0000 -0.8084575527
O   O45       1.0  0.58710  0.47700  0.00000  1.0000 -0.8448491537
O   O46       1.0  0.45850  0.67680  0.00000  1.0000 -0.8084575527
O   O47       1.0  0.41290  0.52300  0.00000  1.0000 -0.8457484089
O   O48       1.0  0.54150  0.32320  0.00000  1.0000 -0.8084575527
