# DDEC6 charges by PACMAN v1.1 (https://github.com/mtap-research/PACMAN-charge/)
data_2020[Zn][sra]3[FSR]2
_chemical_formula_sum              "Zn8 H192 C224 N32 O40"
_cell_length_a       14.505
_cell_length_b       19.147
_cell_length_c       19.93
_cell_angle_alpha    90
_cell_angle_beta     90
_cell_angle_gamma    90

_symmetry_space_group_name_H-M    "P 1"
_symmetry_Int_Tables_number       1

loop_
  _symmetry_equiv_pos_as_xyz
  'x, y, z'

loop_
  _atom_site_type_symbol
  _atom_site_label
  _atom_site_symmetry_multiplicity
  _atom_site_fract_x
  _atom_site_fract_y
  _atom_site_fract_z
  _atom_site_occupancy
  _atom_site_charge
Zn  Zn1       1.0  0.34491  0.50501  0.21096  1.0000 0.7570340866
Zn  Zn2       1.0  0.15509  0.99499  0.21096  1.0000 0.7570340866
Zn  Zn3       1.0  0.65509  0.49499  0.78904  1.0000 0.7570340866
Zn  Zn4       1.0  0.84491  0.00501  0.78904  1.0000 0.7570340866
Zn  Zn5       1.0  0.65509  0.00501  0.28904  1.0000 0.7570340866
Zn  Zn6       1.0  0.84491  0.49499  0.28904  1.0000 0.7570340866
Zn  Zn7       1.0  0.34491  0.99499  0.71096  1.0000 0.7570340866
Zn  Zn8       1.0  0.15509  0.50501  0.71096  1.0000 0.7570340866
H   H1        1.0  0.42540  0.39110  0.13060  1.0000 0.1041338452
H   H2        1.0  0.54530  0.31360  0.12940  1.0000 0.1321552509
H   H3        1.0  0.62470  0.39060  0.31040  1.0000 0.1471448326
H   H4        1.0  0.50650  0.46960  0.30250  1.0000 0.1113884607
H   H5        1.0  0.68630  0.28920  0.32300  1.0000 0.1203305929
H   H6        1.0  0.77350  0.32260  0.28570  1.0000 0.1113884607
H   H7        1.0  0.68140  0.28290  0.12280  1.0000 0.1041338452
H   H8        1.0  0.66570  0.21120  0.16260  1.0000 0.1203305929
H   H9        1.0  0.31110  0.58480  0.34110  1.0000 0.1113884607
H   H10       1.0  0.20970  0.58490  0.42890  1.0000 0.1321552509
H   H11       1.0  0.08570  0.41710  0.34480  1.0000 0.1203305929
H   H12       1.0  0.18670  0.42510  0.25790  1.0000 0.1113884607
H   H13       1.0  0.04600  0.40690  0.49230  1.0000 0.1113884607
H   H14       1.0  0.00280  0.41310  0.41860  1.0000 0.1113884607
H   H15       1.0  0.11330  0.58620  0.49690  1.0000 0.1113884607
H   H16       1.0  0.11680  0.51710  0.54200  1.0000 0.1113884607
H   H17       1.0  0.57620  0.69290  0.29320  1.0000 0.1203305929
H   H18       1.0  0.67050  0.78430  0.25920  1.0000 0.1321552509
H   H19       1.0  0.54120  0.78810  0.07940  1.0000 0.1321552509
H   H20       1.0  0.44420  0.69830  0.11500  1.0000 0.1203305929
H   H21       1.0  0.78080  0.81220  0.05540  1.0000 0.1321552509
H   H22       1.0  0.79960  0.86580  0.95080  1.0000 0.1113884607
H   H23       1.0  0.59360  0.99940  0.99510  1.0000 0.1203305929
H   H24       1.0  0.57240  0.94420  0.09810  1.0000 0.1355941826
H   H25       1.0  0.07460  0.10890  0.13060  1.0000 0.1041338452
H   H26       1.0  0.95470  0.18640  0.12940  1.0000 0.1321552509
H   H27       1.0  0.87530  0.10940  0.31040  1.0000 0.1471448326
H   H28       1.0  0.99350  0.03040  0.30250  1.0000 0.1113884607
H   H29       1.0  0.81370  0.21080  0.32300  1.0000 0.1203305929
H   H30       1.0  0.72650  0.17740  0.28570  1.0000 0.1113884607
H   H31       1.0  0.81860  0.21710  0.12280  1.0000 0.1041338452
H   H32       1.0  0.83430  0.28880  0.16260  1.0000 0.1203305929
H   H33       1.0  0.18890  0.91520  0.34110  1.0000 0.1113884607
H   H34       1.0  0.29030  0.91510  0.42890  1.0000 0.1321552509
H   H35       1.0  0.41430  0.08290  0.34480  1.0000 0.1203305929
H   H36       1.0  0.31330  0.07490  0.25790  1.0000 0.1113884607
H   H37       1.0  0.45400  0.09310  0.49230  1.0000 0.1113884607
H   H38       1.0  0.49720  0.08690  0.41860  1.0000 0.1113884607
H   H39       1.0  0.38670  0.91380  0.49690  1.0000 0.1113884607
H   H40       1.0  0.38320  0.98290  0.54200  1.0000 0.1113884607
H   H41       1.0  0.92380  0.80710  0.29320  1.0000 0.1203305929
H   H42       1.0  0.82950  0.71570  0.25920  1.0000 0.1321552509
H   H43       1.0  0.95880  0.71190  0.07940  1.0000 0.1321552509
H   H44       1.0  0.05580  0.80170  0.11500  1.0000 0.1203305929
H   H45       1.0  0.71920  0.68780  0.05540  1.0000 0.1321552509
H   H46       1.0  0.70040  0.63420  0.95080  1.0000 0.1113884607
H   H47       1.0  0.90640  0.50060  0.99510  1.0000 0.1203305929
H   H48       1.0  0.92760  0.55580  0.09810  1.0000 0.1355941826
H   H49       1.0  0.57460  0.60890  0.86940  1.0000 0.1041338452
H   H50       1.0  0.45470  0.68640  0.87060  1.0000 0.1321552509
H   H51       1.0  0.37530  0.60940  0.68960  1.0000 0.1471448326
H   H52       1.0  0.49350  0.53040  0.69750  1.0000 0.1113884607
H   H53       1.0  0.31370  0.71080  0.67700  1.0000 0.1203305929
H   H54       1.0  0.22650  0.67740  0.71430  1.0000 0.1113884607
H   H55       1.0  0.31860  0.71710  0.87720  1.0000 0.1041338452
H   H56       1.0  0.33430  0.78880  0.83740  1.0000 0.1203305929
H   H57       1.0  0.68890  0.41520  0.65890  1.0000 0.1113884607
H   H58       1.0  0.79030  0.41510  0.57110  1.0000 0.1321552509
H   H59       1.0  0.91430  0.58290  0.65520  1.0000 0.1203305929
H   H60       1.0  0.81330  0.57490  0.74210  1.0000 0.1113884607
H   H61       1.0  0.95400  0.59310  0.50770  1.0000 0.1113884607
H   H62       1.0  0.99720  0.58690  0.58140  1.0000 0.1113884607
H   H63       1.0  0.88670  0.41380  0.50310  1.0000 0.1113884607
H   H64       1.0  0.88320  0.48290  0.45800  1.0000 0.1113884607
H   H65       1.0  0.42380  0.30710  0.70680  1.0000 0.1203305929
H   H66       1.0  0.32950  0.21570  0.74080  1.0000 0.1321552509
H   H67       1.0  0.45880  0.21190  0.92060  1.0000 0.1321552509
H   H68       1.0  0.55580  0.30170  0.88500  1.0000 0.1203305929
H   H69       1.0  0.21920  0.18780  0.94460  1.0000 0.1321552509
H   H70       1.0  0.20040  0.13420  0.04920  1.0000 0.1113884607
H   H71       1.0  0.40640  0.00060  0.00490  1.0000 0.1203305929
H   H72       1.0  0.42760  0.05580  0.90190  1.0000 0.1355941826
H   H73       1.0  0.92540  0.89110  0.86940  1.0000 0.1041338452
H   H74       1.0  0.04530  0.81360  0.87060  1.0000 0.1321552509
H   H75       1.0  0.12470  0.89060  0.68960  1.0000 0.1471448326
H   H76       1.0  0.00650  0.96960  0.69750  1.0000 0.1113884607
H   H77       1.0  0.18630  0.78920  0.67700  1.0000 0.1203305929
H   H78       1.0  0.27350  0.82260  0.71430  1.0000 0.1113884607
H   H79       1.0  0.18140  0.78290  0.87720  1.0000 0.1041338452
H   H80       1.0  0.16570  0.71120  0.83740  1.0000 0.1203305929
H   H81       1.0  0.81110  0.08480  0.65890  1.0000 0.1113884607
H   H82       1.0  0.70970  0.08490  0.57110  1.0000 0.1321552509
H   H83       1.0  0.58570  0.91710  0.65520  1.0000 0.1203305929
H   H84       1.0  0.68670  0.92510  0.74210  1.0000 0.1113884607
H   H85       1.0  0.54600  0.90690  0.50770  1.0000 0.1113884607
H   H86       1.0  0.50280  0.91310  0.58140  1.0000 0.1113884607
H   H87       1.0  0.61330  0.08620  0.50310  1.0000 0.1113884607
H   H88       1.0  0.61680  0.01710  0.45800  1.0000 0.1113884607
H   H89       1.0  0.07620  0.19290  0.70680  1.0000 0.1203305929
H   H90       1.0  0.17050  0.28430  0.74080  1.0000 0.1321552509
H   H91       1.0  0.04120  0.28810  0.92060  1.0000 0.1321552509
H   H92       1.0  0.94420  0.19830  0.88500  1.0000 0.1203305929
H   H93       1.0  0.28080  0.31220  0.94460  1.0000 0.1321552509
H   H94       1.0  0.29960  0.36580  0.04920  1.0000 0.1113884607
H   H95       1.0  0.09360  0.49940  0.00490  1.0000 0.1203305929
H   H96       1.0  0.07240  0.44420  0.90190  1.0000 0.1355941826
H   H97       1.0  0.57460  0.89110  0.36940  1.0000 0.1041338452
H   H98       1.0  0.45470  0.81360  0.37060  1.0000 0.1321552509
H   H99       1.0  0.37530  0.89060  0.18960  1.0000 0.1471448326
H   H100      1.0  0.49350  0.96960  0.19750  1.0000 0.1113884607
H   H101      1.0  0.31370  0.78920  0.17700  1.0000 0.1203305929
H   H102      1.0  0.22650  0.82260  0.21430  1.0000 0.1113884607
H   H103      1.0  0.31860  0.78290  0.37720  1.0000 0.1041338452
H   H104      1.0  0.33430  0.71120  0.33740  1.0000 0.1203305929
H   H105      1.0  0.68890  0.08480  0.15890  1.0000 0.1113884607
H   H106      1.0  0.79030  0.08490  0.07110  1.0000 0.1321552509
H   H107      1.0  0.91430  0.91710  0.15520  1.0000 0.1203305929
H   H108      1.0  0.81330  0.92510  0.24210  1.0000 0.1113884607
H   H109      1.0  0.95400  0.90690  0.00770  1.0000 0.1113884607
H   H110      1.0  0.99720  0.91310  0.08140  1.0000 0.1113884607
H   H111      1.0  0.88670  0.08620  0.00310  1.0000 0.1113884607
H   H112      1.0  0.88320  0.01710  0.95800  1.0000 0.1113884607
H   H113      1.0  0.42380  0.19290  0.20680  1.0000 0.1203305929
H   H114      1.0  0.32950  0.28430  0.24080  1.0000 0.1321552509
H   H115      1.0  0.45880  0.28810  0.42060  1.0000 0.1321552509
H   H116      1.0  0.55580  0.19830  0.38500  1.0000 0.1203305929
H   H117      1.0  0.21920  0.31220  0.44460  1.0000 0.1321552509
H   H118      1.0  0.20040  0.36580  0.54920  1.0000 0.1113884607
H   H119      1.0  0.40640  0.49940  0.50490  1.0000 0.1203305929
H   H120      1.0  0.42760  0.44420  0.40190  1.0000 0.1355941826
H   H121      1.0  0.92540  0.60890  0.36940  1.0000 0.1041338452
H   H122      1.0  0.04530  0.68640  0.37060  1.0000 0.1321552509
H   H123      1.0  0.12470  0.60940  0.18960  1.0000 0.1471448326
H   H124      1.0  0.00650  0.53040  0.19750  1.0000 0.1113884607
H   H125      1.0  0.18630  0.71080  0.17700  1.0000 0.1203305929
H   H126      1.0  0.27350  0.67740  0.21430  1.0000 0.1113884607
H   H127      1.0  0.18140  0.71710  0.37720  1.0000 0.1041338452
H   H128      1.0  0.16570  0.78880  0.33740  1.0000 0.1203305929
H   H129      1.0  0.81110  0.41520  0.15890  1.0000 0.1113884607
H   H130      1.0  0.70970  0.41510  0.07110  1.0000 0.1321552509
H   H131      1.0  0.58570  0.58290  0.15520  1.0000 0.1203305929
H   H132      1.0  0.68670  0.57490  0.24210  1.0000 0.1113884607
H   H133      1.0  0.54600  0.59310  0.00770  1.0000 0.1113884607
H   H134      1.0  0.50280  0.58690  0.08140  1.0000 0.1113884607
H   H135      1.0  0.61330  0.41380  0.00310  1.0000 0.1113884607
H   H136      1.0  0.61680  0.48290  0.95800  1.0000 0.1113884607
H   H137      1.0  0.07620  0.30710  0.20680  1.0000 0.1203305929
H   H138      1.0  0.17050  0.21570  0.24080  1.0000 0.1321552509
H   H139      1.0  0.04120  0.21190  0.42060  1.0000 0.1321552509
H   H140      1.0  0.94420  0.30170  0.38500  1.0000 0.1203305929
H   H141      1.0  0.28080  0.18780  0.44460  1.0000 0.1321552509
H   H142      1.0  0.29960  0.13420  0.54920  1.0000 0.1113884607
H   H143      1.0  0.09360  0.00060  0.50490  1.0000 0.1203305929
H   H144      1.0  0.07240  0.05580  0.40190  1.0000 0.1355941826
H   H145      1.0  0.42540  0.10890  0.63060  1.0000 0.1041338452
H   H146      1.0  0.54530  0.18640  0.62940  1.0000 0.1321552509
H   H147      1.0  0.62470  0.10940  0.81040  1.0000 0.1471448326
H   H148      1.0  0.50650  0.03040  0.80250  1.0000 0.1113884607
H   H149      1.0  0.68630  0.21080  0.82300  1.0000 0.1203305929
H   H150      1.0  0.77350  0.17740  0.78570  1.0000 0.1113884607
H   H151      1.0  0.68140  0.21710  0.62280  1.0000 0.1041338452
H   H152      1.0  0.66570  0.28880  0.66260  1.0000 0.1203305929
H   H153      1.0  0.31110  0.91520  0.84110  1.0000 0.1113884607
H   H154      1.0  0.20970  0.91510  0.92890  1.0000 0.1321552509
H   H155      1.0  0.08570  0.08290  0.84480  1.0000 0.1203305929
H   H156      1.0  0.18670  0.07490  0.75790  1.0000 0.1113884607
H   H157      1.0  0.04600  0.09310  0.99230  1.0000 0.1113884607
H   H158      1.0  0.00280  0.08690  0.91860  1.0000 0.1113884607
H   H159      1.0  0.11330  0.91380  0.99690  1.0000 0.1113884607
H   H160      1.0  0.11680  0.98290  0.04200  1.0000 0.1113884607
H   H161      1.0  0.57620  0.80710  0.79320  1.0000 0.1203305929
H   H162      1.0  0.67050  0.71570  0.75920  1.0000 0.1321552509
H   H163      1.0  0.54120  0.71190  0.57940  1.0000 0.1321552509
H   H164      1.0  0.44420  0.80170  0.61500  1.0000 0.1203305929
H   H165      1.0  0.78080  0.68780  0.55540  1.0000 0.1321552509
H   H166      1.0  0.79960  0.63420  0.45080  1.0000 0.1113884607
H   H167      1.0  0.59360  0.50060  0.49510  1.0000 0.1203305929
H   H168      1.0  0.57240  0.55580  0.59810  1.0000 0.1355941826
H   H169      1.0  0.07460  0.39110  0.63060  1.0000 0.1041338452
H   H170      1.0  0.95470  0.31360  0.62940  1.0000 0.1321552509
H   H171      1.0  0.87530  0.39060  0.81040  1.0000 0.1471448326
H   H172      1.0  0.99350  0.46960  0.80250  1.0000 0.1113884607
H   H173      1.0  0.81370  0.28920  0.82300  1.0000 0.1203305929
H   H174      1.0  0.72650  0.32260  0.78570  1.0000 0.1113884607
H   H175      1.0  0.81860  0.28290  0.62280  1.0000 0.1041338452
H   H176      1.0  0.83430  0.21120  0.66260  1.0000 0.1203305929
H   H177      1.0  0.18890  0.58480  0.84110  1.0000 0.1113884607
H   H178      1.0  0.29030  0.58490  0.92890  1.0000 0.1321552509
H   H179      1.0  0.41430  0.41710  0.84480  1.0000 0.1203305929
H   H180      1.0  0.31330  0.42510  0.75790  1.0000 0.1113884607
H   H181      1.0  0.45400  0.40690  0.99230  1.0000 0.1113884607
H   H182      1.0  0.49720  0.41310  0.91860  1.0000 0.1113884607
H   H183      1.0  0.38670  0.58620  0.99690  1.0000 0.1113884607
H   H184      1.0  0.38320  0.51710  0.04200  1.0000 0.1113884607
H   H185      1.0  0.92380  0.69290  0.79320  1.0000 0.1203305929
H   H186      1.0  0.82950  0.78430  0.75920  1.0000 0.1321552509
H   H187      1.0  0.95880  0.78810  0.57940  1.0000 0.1321552509
H   H188      1.0  0.05580  0.69830  0.61500  1.0000 0.1203305929
H   H189      1.0  0.71920  0.81220  0.55540  1.0000 0.1321552509
H   H190      1.0  0.70040  0.86580  0.45080  1.0000 0.1113884607
H   H191      1.0  0.90640  0.99940  0.49510  1.0000 0.1203305929
H   H192      1.0  0.92760  0.94420  0.59810  1.0000 0.1355941826
C   C1        1.0  0.46705  0.39115  0.16736  1.0000 0.0804422111
C   C2        1.0  0.53784  0.34421  0.16656  1.0000 -0.2761164373
C   C3        1.0  0.59975  0.34128  0.22094  1.0000 0.2369030214
C   C4        1.0  0.58516  0.38982  0.27241  1.0000 -0.252984968
C   C5        1.0  0.51353  0.43617  0.26765  1.0000 0.0929702385
C   C6        1.0  0.72637  0.28537  0.28295  1.0000 -0.1217781571
C   C7        1.0  0.69863  0.25646  0.16360  1.0000 -0.1283531218
C   C8        1.0  0.26346  0.55071  0.34156  1.0000 0.0804422111
C   C9        1.0  0.20350  0.55091  0.39448  1.0000 -0.2669651176
C   C10       1.0  0.13267  0.50099  0.39825  1.0000 0.2369030214
C   C11       1.0  0.13063  0.45323  0.34496  1.0000 -0.252984968
C   C12       1.0  0.19197  0.45776  0.29355  1.0000 0.0929702385
C   C13       1.0  0.01267  0.43847  0.46135  1.0000 -0.1283531218
C   C14       1.0  0.07969  0.54287  0.50850  1.0000 -0.1217781571
C   C15       1.0  0.44550  0.62390  0.22897  1.0000 0.5300983423
C   C16       1.0  0.50113  0.68591  0.20717  1.0000 -0.0572966887
C   C17       1.0  0.56876  0.71239  0.24966  1.0000 -0.0993439733
C   C18       1.0  0.62488  0.76635  0.22966  1.0000 -0.2203529481
C   C19       1.0  0.61440  0.79424  0.16627  1.0000 0.2590233618
C   C20       1.0  0.54783  0.76892  0.12308  1.0000 -0.2363644718
C   C21       1.0  0.49094  0.71526  0.14418  1.0000 -0.1068713945
C   C22       1.0  0.67610  0.87444  0.08612  1.0000 0.2369030214
C   C23       1.0  0.74280  0.85051  0.04303  1.0000 -0.2203529481
C   C24       1.0  0.75430  0.88269  0.98119  1.0000 -0.0993439733
C   C25       1.0  0.70008  0.93932  0.96344  1.0000 -0.0359534501
C   C26       1.0  0.63220  0.96138  0.00727  1.0000 -0.089066512
C   C27       1.0  0.61960  0.92898  0.06849  1.0000 -0.2073403961
C   C28       1.0  0.71825  0.97995  0.89987  1.0000 0.5480600828
C   C29       1.0  0.03295  0.10885  0.16736  1.0000 0.0804422111
C   C30       1.0  0.96216  0.15579  0.16656  1.0000 -0.2761164373
C   C31       1.0  0.90025  0.15872  0.22094  1.0000 0.2369030214
C   C32       1.0  0.91484  0.11018  0.27241  1.0000 -0.252984968
C   C33       1.0  0.98647  0.06383  0.26765  1.0000 0.0929702385
C   C34       1.0  0.77363  0.21463  0.28295  1.0000 -0.1217781571
C   C35       1.0  0.80137  0.24354  0.16360  1.0000 -0.1283531218
C   C36       1.0  0.23654  0.94929  0.34156  1.0000 0.0804422111
C   C37       1.0  0.29650  0.94909  0.39448  1.0000 -0.2669651176
C   C38       1.0  0.36733  0.99901  0.39825  1.0000 0.2369030214
C   C39       1.0  0.36937  0.04677  0.34496  1.0000 -0.252984968
C   C40       1.0  0.30803  0.04224  0.29355  1.0000 0.0929702385
C   C41       1.0  0.48733  0.06153  0.46135  1.0000 -0.1283531218
C   C42       1.0  0.42031  0.95713  0.50850  1.0000 -0.1217781571
C   C43       1.0  0.05450  0.87610  0.22897  1.0000 0.5300983423
C   C44       1.0  0.99887  0.81409  0.20717  1.0000 -0.0572966887
C   C45       1.0  0.93124  0.78761  0.24966  1.0000 -0.0993439733
C   C46       1.0  0.87512  0.73365  0.22966  1.0000 -0.2203529481
C   C47       1.0  0.88560  0.70576  0.16627  1.0000 0.2590233618
C   C48       1.0  0.95217  0.73108  0.12308  1.0000 -0.2363644718
C   C49       1.0  0.00906  0.78474  0.14418  1.0000 -0.1068713945
C   C50       1.0  0.82390  0.62556  0.08612  1.0000 0.2369030214
C   C51       1.0  0.75720  0.64949  0.04303  1.0000 -0.2203529481
C   C52       1.0  0.74570  0.61731  0.98119  1.0000 -0.0993439733
C   C53       1.0  0.79992  0.56068  0.96344  1.0000 -0.0359534501
C   C54       1.0  0.86780  0.53862  0.00727  1.0000 -0.089066512
C   C55       1.0  0.88040  0.57102  0.06849  1.0000 -0.2073403961
C   C56       1.0  0.78175  0.52005  0.89987  1.0000 0.5480600828
C   C57       1.0  0.53295  0.60885  0.83264  1.0000 0.0804422111
C   C58       1.0  0.46216  0.65579  0.83344  1.0000 -0.2761164373
C   C59       1.0  0.40025  0.65872  0.77906  1.0000 0.2369030214
C   C60       1.0  0.41484  0.61018  0.72759  1.0000 -0.252984968
C   C61       1.0  0.48647  0.56383  0.73235  1.0000 0.0929702385
C   C62       1.0  0.27363  0.71463  0.71705  1.0000 -0.1217781571
C   C63       1.0  0.30137  0.74354  0.83640  1.0000 -0.1283531218
C   C64       1.0  0.73654  0.44929  0.65844  1.0000 0.0804422111
C   C65       1.0  0.79650  0.44909  0.60552  1.0000 -0.2669651176
C   C66       1.0  0.86733  0.49901  0.60175  1.0000 0.2369030214
C   C67       1.0  0.86937  0.54677  0.65504  1.0000 -0.252984968
C   C68       1.0  0.80803  0.54224  0.70645  1.0000 0.0929702385
C   C69       1.0  0.98733  0.56153  0.53865  1.0000 -0.1283531218
C   C70       1.0  0.92031  0.45713  0.49150  1.0000 -0.1217781571
C   C71       1.0  0.55450  0.37610  0.77103  1.0000 0.5300983423
C   C72       1.0  0.49887  0.31409  0.79283  1.0000 -0.0572966887
C   C73       1.0  0.43124  0.28761  0.75034  1.0000 -0.0993439733
C   C74       1.0  0.37512  0.23365  0.77034  1.0000 -0.2203529481
C   C75       1.0  0.38560  0.20576  0.83373  1.0000 0.2590233618
C   C76       1.0  0.45217  0.23108  0.87692  1.0000 -0.2363644718
C   C77       1.0  0.50906  0.28474  0.85582  1.0000 -0.1068713945
C   C78       1.0  0.32390  0.12556  0.91388  1.0000 0.2369030214
C   C79       1.0  0.25720  0.14949  0.95697  1.0000 -0.2203529481
C   C80       1.0  0.24570  0.11731  0.01881  1.0000 -0.0993439733
C   C81       1.0  0.29992  0.06068  0.03656  1.0000 -0.0359534501
C   C82       1.0  0.36780  0.03862  0.99273  1.0000 -0.089066512
C   C83       1.0  0.38040  0.07102  0.93151  1.0000 -0.2073403961
C   C84       1.0  0.28175  0.02005  0.10013  1.0000 0.5480600828
C   C85       1.0  0.96705  0.89115  0.83264  1.0000 0.0804422111
C   C86       1.0  0.03784  0.84421  0.83344  1.0000 -0.2761164373
C   C87       1.0  0.09975  0.84128  0.77906  1.0000 0.2369030214
C   C88       1.0  0.08516  0.88982  0.72759  1.0000 -0.252984968
C   C89       1.0  0.01353  0.93617  0.73235  1.0000 0.0929702385
C   C90       1.0  0.22637  0.78537  0.71705  1.0000 -0.1217781571
C   C91       1.0  0.19863  0.75646  0.83640  1.0000 -0.1283531218
C   C92       1.0  0.76346  0.05071  0.65844  1.0000 0.0804422111
C   C93       1.0  0.70350  0.05091  0.60552  1.0000 -0.2669651176
C   C94       1.0  0.63267  0.00099  0.60175  1.0000 0.2369030214
C   C95       1.0  0.63063  0.95323  0.65504  1.0000 -0.252984968
C   C96       1.0  0.69197  0.95776  0.70645  1.0000 0.0929702385
C   C97       1.0  0.51267  0.93847  0.53865  1.0000 -0.1283531218
C   C98       1.0  0.57969  0.04287  0.49150  1.0000 -0.1217781571
C   C99       1.0  0.94550  0.12390  0.77103  1.0000 0.5300983423
C   C100      1.0  0.00113  0.18591  0.79283  1.0000 -0.0572966887
C   C101      1.0  0.06876  0.21239  0.75034  1.0000 -0.0993439733
C   C102      1.0  0.12488  0.26635  0.77034  1.0000 -0.2203529481
C   C103      1.0  0.11440  0.29424  0.83373  1.0000 0.2590233618
C   C104      1.0  0.04783  0.26892  0.87692  1.0000 -0.2363644718
C   C105      1.0  0.99094  0.21526  0.85582  1.0000 -0.1068713945
C   C106      1.0  0.17610  0.37444  0.91388  1.0000 0.2369030214
C   C107      1.0  0.24280  0.35051  0.95697  1.0000 -0.2203529481
C   C108      1.0  0.25430  0.38269  0.01881  1.0000 -0.0993439733
C   C109      1.0  0.20008  0.43932  0.03656  1.0000 -0.0359534501
C   C110      1.0  0.13220  0.46138  0.99273  1.0000 -0.089066512
C   C111      1.0  0.11960  0.42898  0.93151  1.0000 -0.2073403961
C   C112      1.0  0.21825  0.47995  0.10013  1.0000 0.5480600828
C   C113      1.0  0.53295  0.89115  0.33264  1.0000 0.0804422111
C   C114      1.0  0.46216  0.84421  0.33344  1.0000 -0.2761164373
C   C115      1.0  0.40025  0.84128  0.27906  1.0000 0.2369030214
C   C116      1.0  0.41484  0.88982  0.22759  1.0000 -0.252984968
C   C117      1.0  0.48647  0.93617  0.23235  1.0000 0.0929702385
C   C118      1.0  0.27363  0.78537  0.21705  1.0000 -0.1217781571
C   C119      1.0  0.30137  0.75646  0.33640  1.0000 -0.1283531218
C   C120      1.0  0.73654  0.05071  0.15844  1.0000 0.0804422111
C   C121      1.0  0.79650  0.05091  0.10552  1.0000 -0.2669651176
C   C122      1.0  0.86733  0.00099  0.10175  1.0000 0.2369030214
C   C123      1.0  0.86937  0.95323  0.15504  1.0000 -0.252984968
C   C124      1.0  0.80803  0.95776  0.20645  1.0000 0.0929702385
C   C125      1.0  0.98733  0.93847  0.03865  1.0000 -0.1283531218
C   C126      1.0  0.92031  0.04287  0.99150  1.0000 -0.1217781571
C   C127      1.0  0.55450  0.12390  0.27103  1.0000 0.5300983423
C   C128      1.0  0.49887  0.18591  0.29283  1.0000 -0.0572966887
C   C129      1.0  0.43124  0.21239  0.25034  1.0000 -0.0993439733
C   C130      1.0  0.37512  0.26635  0.27034  1.0000 -0.2203529481
C   C131      1.0  0.38560  0.29424  0.33373  1.0000 0.2590233618
C   C132      1.0  0.45217  0.26892  0.37692  1.0000 -0.2363644718
C   C133      1.0  0.50906  0.21526  0.35582  1.0000 -0.1068713945
C   C134      1.0  0.32390  0.37444  0.41388  1.0000 0.2369030214
C   C135      1.0  0.25720  0.35051  0.45697  1.0000 -0.2203529481
C   C136      1.0  0.24570  0.38269  0.51881  1.0000 -0.0993439733
C   C137      1.0  0.29992  0.43932  0.53656  1.0000 -0.0359534501
C   C138      1.0  0.36780  0.46138  0.49273  1.0000 -0.089066512
C   C139      1.0  0.38040  0.42898  0.43151  1.0000 -0.2073403961
C   C140      1.0  0.28175  0.47995  0.60013  1.0000 0.5480600828
C   C141      1.0  0.96705  0.60885  0.33264  1.0000 0.0804422111
C   C142      1.0  0.03784  0.65579  0.33344  1.0000 -0.2761164373
C   C143      1.0  0.09975  0.65872  0.27906  1.0000 0.2369030214
C   C144      1.0  0.08516  0.61018  0.22759  1.0000 -0.252984968
C   C145      1.0  0.01353  0.56383  0.23235  1.0000 0.0929702385
C   C146      1.0  0.22637  0.71463  0.21705  1.0000 -0.1217781571
C   C147      1.0  0.19863  0.74354  0.33640  1.0000 -0.1283531218
C   C148      1.0  0.76346  0.44929  0.15844  1.0000 0.0804422111
C   C149      1.0  0.70350  0.44909  0.10552  1.0000 -0.2669651176
C   C150      1.0  0.63267  0.49901  0.10175  1.0000 0.2369030214
C   C151      1.0  0.63063  0.54677  0.15504  1.0000 -0.252984968
C   C152      1.0  0.69197  0.54224  0.20645  1.0000 0.0929702385
C   C153      1.0  0.51267  0.56153  0.03865  1.0000 -0.1283531218
C   C154      1.0  0.57969  0.45713  0.99150  1.0000 -0.1217781571
C   C155      1.0  0.94550  0.37610  0.27103  1.0000 0.5300983423
C   C156      1.0  0.00113  0.31409  0.29283  1.0000 -0.0572966887
C   C157      1.0  0.06876  0.28761  0.25034  1.0000 -0.0993439733
C   C158      1.0  0.12488  0.23365  0.27034  1.0000 -0.2203529481
C   C159      1.0  0.11440  0.20576  0.33373  1.0000 0.2590233618
C   C160      1.0  0.04783  0.23108  0.37692  1.0000 -0.2363644718
C   C161      1.0  0.99094  0.28474  0.35582  1.0000 -0.1068713945
C   C162      1.0  0.17610  0.12556  0.41388  1.0000 0.2369030214
C   C163      1.0  0.24280  0.14949  0.45697  1.0000 -0.2203529481
C   C164      1.0  0.25430  0.11731  0.51881  1.0000 -0.0993439733
C   C165      1.0  0.20008  0.06068  0.53656  1.0000 -0.0359534501
C   C166      1.0  0.13220  0.03862  0.49273  1.0000 -0.089066512
C   C167      1.0  0.11960  0.07102  0.43151  1.0000 -0.2073403961
C   C168      1.0  0.21825  0.02005  0.60013  1.0000 0.5480600828
C   C169      1.0  0.46705  0.10885  0.66736  1.0000 0.0804422111
C   C170      1.0  0.53784  0.15579  0.66656  1.0000 -0.2761164373
C   C171      1.0  0.59975  0.15872  0.72094  1.0000 0.2369030214
C   C172      1.0  0.58516  0.11018  0.77241  1.0000 -0.252984968
C   C173      1.0  0.51353  0.06383  0.76765  1.0000 0.0929702385
C   C174      1.0  0.72637  0.21463  0.78295  1.0000 -0.1217781571
C   C175      1.0  0.69863  0.24354  0.66360  1.0000 -0.1283531218
C   C176      1.0  0.26346  0.94929  0.84156  1.0000 0.0804422111
C   C177      1.0  0.20350  0.94909  0.89448  1.0000 -0.2669651176
C   C178      1.0  0.13267  0.99901  0.89825  1.0000 0.2369030214
C   C179      1.0  0.13063  0.04677  0.84496  1.0000 -0.252984968
C   C180      1.0  0.19197  0.04224  0.79355  1.0000 0.0929702385
C   C181      1.0  0.01267  0.06153  0.96135  1.0000 -0.1283531218
C   C182      1.0  0.07969  0.95713  0.00850  1.0000 -0.1217781571
C   C183      1.0  0.44550  0.87610  0.72897  1.0000 0.5300983423
C   C184      1.0  0.50113  0.81409  0.70717  1.0000 -0.0572966887
C   C185      1.0  0.56876  0.78761  0.74966  1.0000 -0.0993439733
C   C186      1.0  0.62488  0.73365  0.72966  1.0000 -0.2203529481
C   C187      1.0  0.61440  0.70576  0.66627  1.0000 0.2590233618
C   C188      1.0  0.54783  0.73108  0.62308  1.0000 -0.2363644718
C   C189      1.0  0.49094  0.78474  0.64418  1.0000 -0.1068713945
C   C190      1.0  0.67610  0.62556  0.58612  1.0000 0.2369030214
C   C191      1.0  0.74280  0.64949  0.54303  1.0000 -0.2203529481
C   C192      1.0  0.75430  0.61731  0.48119  1.0000 -0.0993439733
C   C193      1.0  0.70008  0.56068  0.46344  1.0000 -0.0359534501
C   C194      1.0  0.63220  0.53862  0.50727  1.0000 -0.089066512
C   C195      1.0  0.61960  0.57102  0.56849  1.0000 -0.2073403961
C   C196      1.0  0.71825  0.52005  0.39987  1.0000 0.5480600828
C   C197      1.0  0.03295  0.39115  0.66736  1.0000 0.0804422111
C   C198      1.0  0.96216  0.34421  0.66656  1.0000 -0.2761164373
C   C199      1.0  0.90025  0.34128  0.72094  1.0000 0.2369030214
C   C200      1.0  0.91484  0.38982  0.77241  1.0000 -0.252984968
C   C201      1.0  0.98647  0.43617  0.76765  1.0000 0.0929702385
C   C202      1.0  0.77363  0.28537  0.78295  1.0000 -0.1217781571
C   C203      1.0  0.80137  0.25646  0.66360  1.0000 -0.1283531218
C   C204      1.0  0.23654  0.55071  0.84156  1.0000 0.0804422111
C   C205      1.0  0.29650  0.55091  0.89448  1.0000 -0.2669651176
C   C206      1.0  0.36733  0.50099  0.89825  1.0000 0.2369030214
C   C207      1.0  0.36937  0.45323  0.84496  1.0000 -0.252984968
C   C208      1.0  0.30803  0.45776  0.79355  1.0000 0.0929702385
C   C209      1.0  0.48733  0.43847  0.96135  1.0000 -0.1283531218
C   C210      1.0  0.42031  0.54287  0.00850  1.0000 -0.1217781571
C   C211      1.0  0.05450  0.62390  0.72897  1.0000 0.5300983423
C   C212      1.0  0.99887  0.68591  0.70717  1.0000 -0.0572966887
C   C213      1.0  0.93124  0.71239  0.74966  1.0000 -0.0993439733
C   C214      1.0  0.87512  0.76635  0.72966  1.0000 -0.2203529481
C   C215      1.0  0.88560  0.79424  0.66627  1.0000 0.2590233618
C   C216      1.0  0.95217  0.76892  0.62308  1.0000 -0.2363644718
C   C217      1.0  0.00906  0.71526  0.64418  1.0000 -0.1068713945
C   C218      1.0  0.82390  0.87444  0.58612  1.0000 0.2369030214
C   C219      1.0  0.75720  0.85051  0.54303  1.0000 -0.2203529481
C   C220      1.0  0.74570  0.88269  0.48119  1.0000 -0.0993439733
C   C221      1.0  0.79992  0.93932  0.46344  1.0000 -0.0359534501
C   C222      1.0  0.86780  0.96138  0.50727  1.0000 -0.089066512
C   C223      1.0  0.88040  0.92898  0.56849  1.0000 -0.2073403961
C   C224      1.0  0.78175  0.97995  0.39987  1.0000 0.5480600828
N   N1        1.0  0.45255  0.43749  0.21697  1.0000 -0.2669651176
N   N2        1.0  0.67103  0.29539  0.22264  1.0000 -0.0791725908
N   N3        1.0  0.25947  0.50552  0.29012  1.0000 -0.2669651176
N   N4        1.0  0.06912  0.50021  0.44863  1.0000 -0.0742208372
N   N5        1.0  0.04745  0.06251  0.21697  1.0000 -0.2669651176
N   N6        1.0  0.82897  0.20461  0.22264  1.0000 -0.0791725908
N   N7        1.0  0.24053  0.99448  0.29012  1.0000 -0.2669651176
N   N8        1.0  0.43088  0.99979  0.44863  1.0000 -0.0742208372
N   N9        1.0  0.54745  0.56251  0.78303  1.0000 -0.2669651176
N   N10       1.0  0.32897  0.70461  0.77736  1.0000 -0.0791725908
N   N11       1.0  0.74053  0.49448  0.70988  1.0000 -0.2669651176
N   N12       1.0  0.93088  0.49979  0.55137  1.0000 -0.0742208372
N   N13       1.0  0.95255  0.93749  0.78303  1.0000 -0.2669651176
N   N14       1.0  0.17103  0.79539  0.77736  1.0000 -0.0791725908
N   N15       1.0  0.75947  0.00552  0.70988  1.0000 -0.2669651176
N   N16       1.0  0.56912  0.00021  0.55137  1.0000 -0.0742208372
N   N17       1.0  0.54745  0.93749  0.28303  1.0000 -0.2669651176
N   N18       1.0  0.32897  0.79539  0.27736  1.0000 -0.0791725908
N   N19       1.0  0.74053  0.00552  0.20988  1.0000 -0.2669651176
N   N20       1.0  0.93088  0.00021  0.05137  1.0000 -0.0742208372
N   N21       1.0  0.95255  0.56251  0.28303  1.0000 -0.2669651176
N   N22       1.0  0.17103  0.70461  0.27736  1.0000 -0.0791725908
N   N23       1.0  0.75947  0.49448  0.20988  1.0000 -0.2669651176
N   N24       1.0  0.56912  0.49979  0.05137  1.0000 -0.0742208372
N   N25       1.0  0.45255  0.06251  0.71697  1.0000 -0.2669651176
N   N26       1.0  0.67103  0.20461  0.72264  1.0000 -0.0791725908
N   N27       1.0  0.25947  0.99448  0.79012  1.0000 -0.2669651176
N   N28       1.0  0.06912  0.99979  0.94863  1.0000 -0.0742208372
N   N29       1.0  0.04745  0.43749  0.71697  1.0000 -0.2669651176
N   N30       1.0  0.82897  0.29539  0.72264  1.0000 -0.0791725908
N   N31       1.0  0.24053  0.50552  0.79012  1.0000 -0.2669651176
N   N32       1.0  0.43088  0.50021  0.94863  1.0000 -0.0742208372
O   O1        1.0  0.39521  0.59552  0.18338  1.0000 -0.5525190002
O   O2        1.0  0.45120  0.60241  0.28721  1.0000 -0.5525190002
O   O3        1.0  0.67308  0.84789  0.15104  1.0000 -0.2203529481
O   O4        1.0  0.78326  0.95623  0.86325  1.0000 -0.5677372581
O   O5        1.0  0.67368  0.03212  0.88864  1.0000 -0.5259598261
O   O6        1.0  0.10479  0.90448  0.18338  1.0000 -0.5525190002
O   O7        1.0  0.04880  0.89759  0.28721  1.0000 -0.5525190002
O   O8        1.0  0.82692  0.65211  0.15104  1.0000 -0.2203529481
O   O9        1.0  0.71674  0.54377  0.86325  1.0000 -0.5677372581
O   O10       1.0  0.82632  0.46788  0.88864  1.0000 -0.5259598261
O   O11       1.0  0.60479  0.40448  0.81662  1.0000 -0.5525190002
O   O12       1.0  0.54880  0.39759  0.71279  1.0000 -0.5525190002
O   O13       1.0  0.32692  0.15211  0.84896  1.0000 -0.2203529481
O   O14       1.0  0.21674  0.04377  0.13675  1.0000 -0.5677372581
O   O15       1.0  0.32632  0.96788  0.11136  1.0000 -0.5259598261
O   O16       1.0  0.89521  0.09552  0.81662  1.0000 -0.5525190002
O   O17       1.0  0.95120  0.10241  0.71279  1.0000 -0.5525190002
O   O18       1.0  0.17308  0.34789  0.84896  1.0000 -0.2203529481
O   O19       1.0  0.28326  0.45623  0.13675  1.0000 -0.5677372581
O   O20       1.0  0.17368  0.53212  0.11136  1.0000 -0.5259598261
O   O21       1.0  0.60479  0.09552  0.31662  1.0000 -0.5525190002
O   O22       1.0  0.54880  0.10241  0.21279  1.0000 -0.5525190002
O   O23       1.0  0.32692  0.34789  0.34896  1.0000 -0.2203529481
O   O24       1.0  0.21674  0.45623  0.63675  1.0000 -0.5677372581
O   O25       1.0  0.32632  0.53212  0.61136  1.0000 -0.5259598261
O   O26       1.0  0.89521  0.40448  0.31662  1.0000 -0.5525190002
O   O27       1.0  0.95120  0.39759  0.21279  1.0000 -0.5525190002
O   O28       1.0  0.17308  0.15211  0.34896  1.0000 -0.2203529481
O   O29       1.0  0.28326  0.04377  0.63675  1.0000 -0.5677372581
O   O30       1.0  0.17368  0.96788  0.61136  1.0000 -0.5259598261
O   O31       1.0  0.39521  0.90448  0.68338  1.0000 -0.5525190002
O   O32       1.0  0.45120  0.89759  0.78721  1.0000 -0.5525190002
O   O33       1.0  0.67308  0.65211  0.65104  1.0000 -0.2203529481
O   O34       1.0  0.78326  0.54377  0.36325  1.0000 -0.5677372581
O   O35       1.0  0.67368  0.46788  0.38864  1.0000 -0.5259598261
O   O36       1.0  0.10479  0.59552  0.68338  1.0000 -0.5525190002
O   O37       1.0  0.04880  0.60241  0.78721  1.0000 -0.5525190002
O   O38       1.0  0.82692  0.84789  0.65104  1.0000 -0.2203529481
O   O39       1.0  0.71674  0.95623  0.36325  1.0000 -0.5677372581
O   O40       1.0  0.82632  0.03212  0.38864  1.0000 -0.5259598261
