# DDEC6 charges by PACMAN v1.1 (https://github.com/mtap-research/PACMAN-charge/)
data_2020[Zn][sra]3[FSR]3
_chemical_formula_sum              "Zn8 H192 C224 N32 O40"
_cell_length_a       14.62
_cell_length_b       18.87
_cell_length_c       19.94
_cell_angle_alpha    90
_cell_angle_beta     90
_cell_angle_gamma    90

_symmetry_space_group_name_H-M    "P 1"
_symmetry_Int_Tables_number       1

loop_
  _symmetry_equiv_pos_as_xyz
  'x, y, z'

loop_
  _atom_site_type_symbol
  _atom_site_label
  _atom_site_symmetry_multiplicity
  _atom_site_fract_x
  _atom_site_fract_y
  _atom_site_fract_z
  _atom_site_occupancy
  _atom_site_charge
Zn  Zn1       1.0  0.15686  0.00490  0.78841  1.0000 0.7453778973
Zn  Zn2       1.0  0.34314  0.49510  0.78841  1.0000 0.7453778973
Zn  Zn3       1.0  0.84314  0.99510  0.21159  1.0000 0.7453778973
Zn  Zn4       1.0  0.65686  0.50490  0.21159  1.0000 0.7453778973
Zn  Zn5       1.0  0.84314  0.50490  0.71159  1.0000 0.7453778973
Zn  Zn6       1.0  0.65686  0.99510  0.71159  1.0000 0.7453778973
Zn  Zn7       1.0  0.15686  0.49510  0.28841  1.0000 0.7453778973
Zn  Zn8       1.0  0.34314  0.00490  0.28841  1.0000 0.7453778973
H   H1        1.0  0.99290  0.96790  0.70500  1.0000 0.1111905637
H   H2        1.0  0.87410  0.89010  0.70060  1.0000 0.1483121654
H   H3        1.0  0.96090  0.81200  0.88100  1.0000 0.1315445841
H   H4        1.0  0.08310  0.88720  0.87250  1.0000 0.1045536911
H   H5        1.0  0.81160  0.79160  0.68980  1.0000 0.1199911178
H   H6        1.0  0.72500  0.82380  0.72870  1.0000 0.1111905637
H   H7        1.0  0.81870  0.78380  0.89030  1.0000 0.1045536911
H   H8        1.0  0.83390  0.71040  0.85130  1.0000 0.1199911178
H   H9        1.0  0.31130  0.92140  0.73970  1.0000 0.1111905637
H   H10       1.0  0.41200  0.91470  0.65320  1.0000 0.1199911178
H   H11       1.0  0.28590  0.08140  0.56700  1.0000 0.1315445841
H   H12       1.0  0.18630  0.08300  0.65520  1.0000 0.1045536911
H   H13       1.0  0.45520  0.90460  0.50630  1.0000 0.1045536911
H   H14       1.0  0.49510  0.91090  0.58080  1.0000 0.1111905637
H   H15       1.0  0.38420  0.08590  0.50230  1.0000 0.1111905637
H   H16       1.0  0.38370  0.01620  0.45650  1.0000 0.1111905637
H   H17       1.0  0.06390  0.19980  0.88650  1.0000 0.1199911178
H   H18       1.0  0.97840  0.29760  0.92080  1.0000 0.13815462
H   H19       1.0  0.83550  0.28930  0.74640  1.0000 0.1315445841
H   H20       1.0  0.92540  0.19190  0.71180  1.0000 0.1199911178
H   H21       1.0  0.94140  0.45590  0.90870  1.0000 0.13815462
H   H22       1.0  0.91000  0.51350  0.00760  1.0000 0.1199911178
H   H23       1.0  0.72060  0.36570  0.05110  1.0000 0.1111905637
H   H24       1.0  0.73730  0.31950  0.94250  1.0000 0.13815462
H   H25       1.0  0.50710  0.53210  0.70500  1.0000 0.1111905637
H   H26       1.0  0.62590  0.60990  0.70060  1.0000 0.1483121654
H   H27       1.0  0.53910  0.68800  0.88100  1.0000 0.1315445841
H   H28       1.0  0.41690  0.61280  0.87250  1.0000 0.1045536911
H   H29       1.0  0.68840  0.70840  0.68980  1.0000 0.1199911178
H   H30       1.0  0.77500  0.67620  0.72870  1.0000 0.1111905637
H   H31       1.0  0.68130  0.71620  0.89030  1.0000 0.1045536911
H   H32       1.0  0.66610  0.78960  0.85130  1.0000 0.1199911178
H   H33       1.0  0.18870  0.57860  0.73970  1.0000 0.1111905637
H   H34       1.0  0.08800  0.58530  0.65320  1.0000 0.1199911178
H   H35       1.0  0.21410  0.41860  0.56700  1.0000 0.1315445841
H   H36       1.0  0.31370  0.41700  0.65520  1.0000 0.1045536911
H   H37       1.0  0.04480  0.59540  0.50630  1.0000 0.1045536911
H   H38       1.0  0.00490  0.58910  0.58080  1.0000 0.1111905637
H   H39       1.0  0.11580  0.41410  0.50230  1.0000 0.1111905637
H   H40       1.0  0.11630  0.48380  0.45650  1.0000 0.1111905637
H   H41       1.0  0.43610  0.30020  0.88650  1.0000 0.1199911178
H   H42       1.0  0.52160  0.20240  0.92080  1.0000 0.13815462
H   H43       1.0  0.66450  0.21070  0.74640  1.0000 0.1315445841
H   H44       1.0  0.57460  0.30810  0.71180  1.0000 0.1199911178
H   H45       1.0  0.55860  0.04410  0.90870  1.0000 0.13815462
H   H46       1.0  0.59000  0.98650  0.00760  1.0000 0.1199911178
H   H47       1.0  0.77940  0.13430  0.05110  1.0000 0.1111905637
H   H48       1.0  0.76270  0.18050  0.94250  1.0000 0.13815462
H   H49       1.0  0.00710  0.03210  0.29500  1.0000 0.1111905637
H   H50       1.0  0.12590  0.10990  0.29940  1.0000 0.1483121654
H   H51       1.0  0.03910  0.18800  0.11900  1.0000 0.1315445841
H   H52       1.0  0.91690  0.11280  0.12750  1.0000 0.1045536911
H   H53       1.0  0.18840  0.20840  0.31020  1.0000 0.1199911178
H   H54       1.0  0.27500  0.17620  0.27130  1.0000 0.1111905637
H   H55       1.0  0.18130  0.21620  0.10970  1.0000 0.1045536911
H   H56       1.0  0.16610  0.28960  0.14870  1.0000 0.1199911178
H   H57       1.0  0.68870  0.07860  0.26030  1.0000 0.1111905637
H   H58       1.0  0.58800  0.08530  0.34680  1.0000 0.1199911178
H   H59       1.0  0.71410  0.91860  0.43300  1.0000 0.1315445841
H   H60       1.0  0.81370  0.91700  0.34480  1.0000 0.1045536911
H   H61       1.0  0.54480  0.09540  0.49370  1.0000 0.1045536911
H   H62       1.0  0.50490  0.08910  0.41920  1.0000 0.1111905637
H   H63       1.0  0.61580  0.91410  0.49770  1.0000 0.1111905637
H   H64       1.0  0.61630  0.98380  0.54350  1.0000 0.1111905637
H   H65       1.0  0.93610  0.80020  0.11350  1.0000 0.1199911178
H   H66       1.0  0.02160  0.70240  0.07920  1.0000 0.13815462
H   H67       1.0  0.16450  0.71070  0.25360  1.0000 0.1315445841
H   H68       1.0  0.07460  0.80810  0.28820  1.0000 0.1199911178
H   H69       1.0  0.05860  0.54410  0.09130  1.0000 0.13815462
H   H70       1.0  0.09000  0.48650  0.99240  1.0000 0.1199911178
H   H71       1.0  0.27940  0.63430  0.94890  1.0000 0.1111905637
H   H72       1.0  0.26270  0.68050  0.05750  1.0000 0.13815462
H   H73       1.0  0.49290  0.46790  0.29500  1.0000 0.1111905637
H   H74       1.0  0.37410  0.39010  0.29940  1.0000 0.1483121654
H   H75       1.0  0.46090  0.31200  0.11900  1.0000 0.1315445841
H   H76       1.0  0.58310  0.38720  0.12750  1.0000 0.1045536911
H   H77       1.0  0.31160  0.29160  0.31020  1.0000 0.1199911178
H   H78       1.0  0.22500  0.32380  0.27130  1.0000 0.1111905637
H   H79       1.0  0.31870  0.28380  0.10970  1.0000 0.1045536911
H   H80       1.0  0.33390  0.21040  0.14870  1.0000 0.1199911178
H   H81       1.0  0.81130  0.42140  0.26030  1.0000 0.1111905637
H   H82       1.0  0.91200  0.41470  0.34680  1.0000 0.1199911178
H   H83       1.0  0.78590  0.58140  0.43300  1.0000 0.1315445841
H   H84       1.0  0.68630  0.58300  0.34480  1.0000 0.1045536911
H   H85       1.0  0.95520  0.40460  0.49370  1.0000 0.1045536911
H   H86       1.0  0.99510  0.41090  0.41920  1.0000 0.1111905637
H   H87       1.0  0.88420  0.58590  0.49770  1.0000 0.1111905637
H   H88       1.0  0.88370  0.51620  0.54350  1.0000 0.1111905637
H   H89       1.0  0.56390  0.69980  0.11350  1.0000 0.1199911178
H   H90       1.0  0.47840  0.79760  0.07920  1.0000 0.13815462
H   H91       1.0  0.33550  0.78930  0.25360  1.0000 0.1315445841
H   H92       1.0  0.42540  0.69190  0.28820  1.0000 0.1199911178
H   H93       1.0  0.44140  0.95590  0.09130  1.0000 0.13815462
H   H94       1.0  0.41000  0.01350  0.99240  1.0000 0.1199911178
H   H95       1.0  0.22060  0.86570  0.94890  1.0000 0.1111905637
H   H96       1.0  0.23730  0.81950  0.05750  1.0000 0.13815462
H   H97       1.0  0.00710  0.46790  0.79500  1.0000 0.1111905637
H   H98       1.0  0.12590  0.39010  0.79940  1.0000 0.1483121654
H   H99       1.0  0.03910  0.31200  0.61900  1.0000 0.1315445841
H   H100      1.0  0.91690  0.38720  0.62750  1.0000 0.1045536911
H   H101      1.0  0.18840  0.29160  0.81020  1.0000 0.1199911178
H   H102      1.0  0.27500  0.32380  0.77130  1.0000 0.1111905637
H   H103      1.0  0.18130  0.28380  0.60970  1.0000 0.1045536911
H   H104      1.0  0.16610  0.21040  0.64870  1.0000 0.1199911178
H   H105      1.0  0.68870  0.42140  0.76030  1.0000 0.1111905637
H   H106      1.0  0.58800  0.41470  0.84680  1.0000 0.1199911178
H   H107      1.0  0.71410  0.58140  0.93300  1.0000 0.1315445841
H   H108      1.0  0.81370  0.58300  0.84480  1.0000 0.1045536911
H   H109      1.0  0.54480  0.40460  0.99370  1.0000 0.1045536911
H   H110      1.0  0.50490  0.41090  0.91920  1.0000 0.1111905637
H   H111      1.0  0.61580  0.58590  0.99770  1.0000 0.1111905637
H   H112      1.0  0.61630  0.51620  0.04350  1.0000 0.1111905637
H   H113      1.0  0.93610  0.69980  0.61350  1.0000 0.1199911178
H   H114      1.0  0.02160  0.79760  0.57920  1.0000 0.13815462
H   H115      1.0  0.16450  0.78930  0.75360  1.0000 0.1315445841
H   H116      1.0  0.07460  0.69190  0.78820  1.0000 0.1199911178
H   H117      1.0  0.05860  0.95590  0.59130  1.0000 0.13815462
H   H118      1.0  0.09000  0.01350  0.49240  1.0000 0.1199911178
H   H119      1.0  0.27940  0.86570  0.44890  1.0000 0.1111905637
H   H120      1.0  0.26270  0.81950  0.55750  1.0000 0.13815462
H   H121      1.0  0.49290  0.03210  0.79500  1.0000 0.1111905637
H   H122      1.0  0.37410  0.10990  0.79940  1.0000 0.1483121654
H   H123      1.0  0.46090  0.18800  0.61900  1.0000 0.1315445841
H   H124      1.0  0.58310  0.11280  0.62750  1.0000 0.1045536911
H   H125      1.0  0.31160  0.20840  0.81020  1.0000 0.1199911178
H   H126      1.0  0.22500  0.17620  0.77130  1.0000 0.1111905637
H   H127      1.0  0.31870  0.21620  0.60970  1.0000 0.1045536911
H   H128      1.0  0.33390  0.28960  0.64870  1.0000 0.1199911178
H   H129      1.0  0.81130  0.07860  0.76030  1.0000 0.1111905637
H   H130      1.0  0.91200  0.08530  0.84680  1.0000 0.1199911178
H   H131      1.0  0.78590  0.91860  0.93300  1.0000 0.1315445841
H   H132      1.0  0.68630  0.91700  0.84480  1.0000 0.1045536911
H   H133      1.0  0.95520  0.09540  0.99370  1.0000 0.1045536911
H   H134      1.0  0.99510  0.08910  0.91920  1.0000 0.1111905637
H   H135      1.0  0.88420  0.91410  0.99770  1.0000 0.1111905637
H   H136      1.0  0.88370  0.98380  0.04350  1.0000 0.1111905637
H   H137      1.0  0.56390  0.80020  0.61350  1.0000 0.1199911178
H   H138      1.0  0.47840  0.70240  0.57920  1.0000 0.13815462
H   H139      1.0  0.33550  0.71070  0.75360  1.0000 0.1315445841
H   H140      1.0  0.42540  0.80810  0.78820  1.0000 0.1199911178
H   H141      1.0  0.44140  0.54410  0.59130  1.0000 0.13815462
H   H142      1.0  0.41000  0.48650  0.49240  1.0000 0.1199911178
H   H143      1.0  0.22060  0.63430  0.44890  1.0000 0.1111905637
H   H144      1.0  0.23730  0.68050  0.55750  1.0000 0.13815462
H   H145      1.0  0.99290  0.53210  0.20500  1.0000 0.1111905637
H   H146      1.0  0.87410  0.60990  0.20060  1.0000 0.1483121654
H   H147      1.0  0.96090  0.68800  0.38100  1.0000 0.1315445841
H   H148      1.0  0.08310  0.61280  0.37250  1.0000 0.1045536911
H   H149      1.0  0.81160  0.70840  0.18980  1.0000 0.1199911178
H   H150      1.0  0.72500  0.67620  0.22870  1.0000 0.1111905637
H   H151      1.0  0.81870  0.71620  0.39030  1.0000 0.1045536911
H   H152      1.0  0.83390  0.78960  0.35130  1.0000 0.1199911178
H   H153      1.0  0.31130  0.57860  0.23970  1.0000 0.1111905637
H   H154      1.0  0.41200  0.58530  0.15320  1.0000 0.1199911178
H   H155      1.0  0.28590  0.41860  0.06700  1.0000 0.1315445841
H   H156      1.0  0.18630  0.41700  0.15520  1.0000 0.1045536911
H   H157      1.0  0.45520  0.59540  0.00630  1.0000 0.1045536911
H   H158      1.0  0.49510  0.58910  0.08080  1.0000 0.1111905637
H   H159      1.0  0.38420  0.41410  0.00230  1.0000 0.1111905637
H   H160      1.0  0.38370  0.48380  0.95650  1.0000 0.1111905637
H   H161      1.0  0.06390  0.30020  0.38650  1.0000 0.1199911178
H   H162      1.0  0.97840  0.20240  0.42080  1.0000 0.13815462
H   H163      1.0  0.83550  0.21070  0.24640  1.0000 0.1315445841
H   H164      1.0  0.92540  0.30810  0.21180  1.0000 0.1199911178
H   H165      1.0  0.94140  0.04410  0.40870  1.0000 0.13815462
H   H166      1.0  0.91000  0.98650  0.50760  1.0000 0.1199911178
H   H167      1.0  0.72060  0.13430  0.55110  1.0000 0.1111905637
H   H168      1.0  0.73730  0.18050  0.44250  1.0000 0.13815462
H   H169      1.0  0.50710  0.96790  0.20500  1.0000 0.1111905637
H   H170      1.0  0.62590  0.89010  0.20060  1.0000 0.1483121654
H   H171      1.0  0.53910  0.81200  0.38100  1.0000 0.1315445841
H   H172      1.0  0.41690  0.88720  0.37250  1.0000 0.1045536911
H   H173      1.0  0.68840  0.79160  0.18980  1.0000 0.1199911178
H   H174      1.0  0.77500  0.82380  0.22870  1.0000 0.1111905637
H   H175      1.0  0.68130  0.78380  0.39030  1.0000 0.1045536911
H   H176      1.0  0.66610  0.71040  0.35130  1.0000 0.1199911178
H   H177      1.0  0.18870  0.92140  0.23970  1.0000 0.1111905637
H   H178      1.0  0.08800  0.91470  0.15320  1.0000 0.1199911178
H   H179      1.0  0.21410  0.08140  0.06700  1.0000 0.1315445841
H   H180      1.0  0.31370  0.08300  0.15520  1.0000 0.1045536911
H   H181      1.0  0.04480  0.90460  0.00630  1.0000 0.1045536911
H   H182      1.0  0.00490  0.91090  0.08080  1.0000 0.1111905637
H   H183      1.0  0.11580  0.08590  0.00230  1.0000 0.1111905637
H   H184      1.0  0.11630  0.01620  0.95650  1.0000 0.1111905637
H   H185      1.0  0.43610  0.19980  0.38650  1.0000 0.1199911178
H   H186      1.0  0.52160  0.29760  0.42080  1.0000 0.13815462
H   H187      1.0  0.66450  0.28930  0.24640  1.0000 0.1315445841
H   H188      1.0  0.57460  0.19190  0.21180  1.0000 0.1199911178
H   H189      1.0  0.55860  0.45590  0.40870  1.0000 0.13815462
H   H190      1.0  0.59000  0.51350  0.50760  1.0000 0.1199911178
H   H191      1.0  0.77940  0.36570  0.55110  1.0000 0.1111905637
H   H192      1.0  0.76270  0.31950  0.44250  1.0000 0.13815462
C   C1        1.0  0.98650  0.93450  0.74030  1.0000 0.090124224
C   C2        1.0  0.91490  0.88930  0.73770  1.0000 -0.24203326
C   C3        1.0  0.90150  0.84090  0.79100  1.0000 0.2291977048
C   C4        1.0  0.96670  0.84240  0.84330  1.0000 -0.2693959335
C   C5        1.0  0.03790  0.88850  0.83840  1.0000 0.0772073707
C   C6        1.0  0.77260  0.78650  0.73010  1.0000 -0.1199903131
C   C7        1.0  0.80140  0.75640  0.84980  1.0000 -0.1199903131
C   C8        1.0  0.30680  0.95520  0.70460  1.0000 0.090124224
C   C9        1.0  0.36750  0.95130  0.65330  1.0000 -0.24203326
C   C10       1.0  0.36600  0.00090  0.59990  1.0000 0.2291977048
C   C11       1.0  0.29410  0.04860  0.60260  1.0000 -0.2630975852
C   C12       1.0  0.23440  0.04920  0.65570  1.0000 0.090124224
C   C13       1.0  0.48660  0.93670  0.53810  1.0000 -0.1199903131
C   C14       1.0  0.41890  0.04260  0.49070  1.0000 -0.1098826946
C   C15       1.0  0.05790  0.12320  0.77470  1.0000 0.524517714
C   C16       1.0  0.00370  0.18790  0.79750  1.0000 -0.042160728
C   C17       1.0  0.01780  0.21830  0.85780  1.0000 -0.0992430325
C   C18       1.0  0.96680  0.27560  0.87880  1.0000 -0.225325943
C   C19       1.0  0.89940  0.29970  0.83760  1.0000 0.2480323305
C   C20       1.0  0.88210  0.27060  0.77450  1.0000 -0.2097055399
C   C21       1.0  0.93520  0.21340  0.75430  1.0000 -0.0992430325
C   C22       1.0  0.83790  0.38480  0.91640  1.0000 0.2291977048
C   C23       1.0  0.89230  0.44040  0.93620  1.0000 -0.1992216865
C   C24       1.0  0.87510  0.47300  0.99550  1.0000 -0.0835971171
C   C25       1.0  0.80770  0.44880  0.03900  1.0000 -0.0549518792
C   C26       1.0  0.76130  0.38770  0.02030  1.0000 -0.0992430325
C   C27       1.0  0.77400  0.35820  0.95680  1.0000 -0.2097055399
C   C28       1.0  0.78130  0.48580  0.10120  1.0000 0.5516461124
C   C29       1.0  0.51350  0.56550  0.74030  1.0000 0.090124224
C   C30       1.0  0.58510  0.61070  0.73770  1.0000 -0.24203326
C   C31       1.0  0.59850  0.65910  0.79100  1.0000 0.2291977048
C   C32       1.0  0.53330  0.65760  0.84330  1.0000 -0.2693959335
C   C33       1.0  0.46210  0.61150  0.83840  1.0000 0.0772073707
C   C34       1.0  0.72740  0.71350  0.73010  1.0000 -0.1199903131
C   C35       1.0  0.69860  0.74360  0.84980  1.0000 -0.1199903131
C   C36       1.0  0.19320  0.54480  0.70460  1.0000 0.090124224
C   C37       1.0  0.13250  0.54870  0.65330  1.0000 -0.24203326
C   C38       1.0  0.13400  0.49910  0.59990  1.0000 0.2291977048
C   C39       1.0  0.20590  0.45140  0.60260  1.0000 -0.2630975852
C   C40       1.0  0.26560  0.45080  0.65570  1.0000 0.090124224
C   C41       1.0  0.01340  0.56330  0.53810  1.0000 -0.1199903131
C   C42       1.0  0.08110  0.45740  0.49070  1.0000 -0.1098826946
C   C43       1.0  0.44210  0.37680  0.77470  1.0000 0.524517714
C   C44       1.0  0.49630  0.31210  0.79750  1.0000 -0.042160728
C   C45       1.0  0.48220  0.28170  0.85780  1.0000 -0.0992430325
C   C46       1.0  0.53320  0.22440  0.87880  1.0000 -0.225325943
C   C47       1.0  0.60060  0.20030  0.83760  1.0000 0.2480323305
C   C48       1.0  0.61790  0.22940  0.77450  1.0000 -0.2097055399
C   C49       1.0  0.56480  0.28660  0.75430  1.0000 -0.0992430325
C   C50       1.0  0.66210  0.11520  0.91640  1.0000 0.2291977048
C   C51       1.0  0.60770  0.05960  0.93620  1.0000 -0.1992216865
C   C52       1.0  0.62490  0.02700  0.99550  1.0000 -0.0835971171
C   C53       1.0  0.69230  0.05120  0.03900  1.0000 -0.0549518792
C   C54       1.0  0.73870  0.11230  0.02030  1.0000 -0.0992430325
C   C55       1.0  0.72600  0.14180  0.95680  1.0000 -0.2097055399
C   C56       1.0  0.71870  0.01420  0.10120  1.0000 0.5516461124
C   C57       1.0  0.01350  0.06550  0.25970  1.0000 0.090124224
C   C58       1.0  0.08510  0.11070  0.26230  1.0000 -0.24203326
C   C59       1.0  0.09850  0.15910  0.20900  1.0000 0.2291977048
C   C60       1.0  0.03330  0.15760  0.15670  1.0000 -0.2693959335
C   C61       1.0  0.96210  0.11150  0.16160  1.0000 0.0772073707
C   C62       1.0  0.22740  0.21350  0.26990  1.0000 -0.1199903131
C   C63       1.0  0.19860  0.24360  0.15020  1.0000 -0.1199903131
C   C64       1.0  0.69320  0.04480  0.29540  1.0000 0.090124224
C   C65       1.0  0.63250  0.04870  0.34670  1.0000 -0.24203326
C   C66       1.0  0.63400  0.99910  0.40010  1.0000 0.2291977048
C   C67       1.0  0.70590  0.95140  0.39740  1.0000 -0.2630975852
C   C68       1.0  0.76560  0.95080  0.34430  1.0000 0.090124224
C   C69       1.0  0.51340  0.06330  0.46190  1.0000 -0.1199903131
C   C70       1.0  0.58110  0.95740  0.50930  1.0000 -0.1098826946
C   C71       1.0  0.94210  0.87680  0.22530  1.0000 0.524517714
C   C72       1.0  0.99630  0.81210  0.20250  1.0000 -0.042160728
C   C73       1.0  0.98220  0.78170  0.14220  1.0000 -0.0992430325
C   C74       1.0  0.03320  0.72440  0.12120  1.0000 -0.225325943
C   C75       1.0  0.10060  0.70030  0.16240  1.0000 0.2480323305
C   C76       1.0  0.11790  0.72940  0.22550  1.0000 -0.2097055399
C   C77       1.0  0.06480  0.78660  0.24570  1.0000 -0.0992430325
C   C78       1.0  0.16210  0.61520  0.08360  1.0000 0.2291977048
C   C79       1.0  0.10770  0.55960  0.06380  1.0000 -0.1992216865
C   C80       1.0  0.12490  0.52700  0.00450  1.0000 -0.0835971171
C   C81       1.0  0.19230  0.55120  0.96100  1.0000 -0.0549518792
C   C82       1.0  0.23870  0.61230  0.97970  1.0000 -0.0992430325
C   C83       1.0  0.22600  0.64180  0.04320  1.0000 -0.2097055399
C   C84       1.0  0.21870  0.51420  0.89880  1.0000 0.5516461124
C   C85       1.0  0.48650  0.43450  0.25970  1.0000 0.090124224
C   C86       1.0  0.41490  0.38930  0.26230  1.0000 -0.24203326
C   C87       1.0  0.40150  0.34090  0.20900  1.0000 0.2291977048
C   C88       1.0  0.46670  0.34240  0.15670  1.0000 -0.2693959335
C   C89       1.0  0.53790  0.38850  0.16160  1.0000 0.0772073707
C   C90       1.0  0.27260  0.28650  0.26990  1.0000 -0.1199903131
C   C91       1.0  0.30140  0.25640  0.15020  1.0000 -0.1199903131
C   C92       1.0  0.80680  0.45520  0.29540  1.0000 0.090124224
C   C93       1.0  0.86750  0.45130  0.34670  1.0000 -0.24203326
C   C94       1.0  0.86600  0.50090  0.40010  1.0000 0.2291977048
C   C95       1.0  0.79410  0.54860  0.39740  1.0000 -0.2630975852
C   C96       1.0  0.73440  0.54920  0.34430  1.0000 0.090124224
C   C97       1.0  0.98660  0.43670  0.46190  1.0000 -0.1199903131
C   C98       1.0  0.91890  0.54260  0.50930  1.0000 -0.1098826946
C   C99       1.0  0.55790  0.62320  0.22530  1.0000 0.524517714
C   C100      1.0  0.50370  0.68790  0.20250  1.0000 -0.042160728
C   C101      1.0  0.51780  0.71830  0.14220  1.0000 -0.0992430325
C   C102      1.0  0.46680  0.77560  0.12120  1.0000 -0.225325943
C   C103      1.0  0.39940  0.79970  0.16240  1.0000 0.2480323305
C   C104      1.0  0.38210  0.77060  0.22550  1.0000 -0.2097055399
C   C105      1.0  0.43520  0.71340  0.24570  1.0000 -0.0992430325
C   C106      1.0  0.33790  0.88480  0.08360  1.0000 0.2291977048
C   C107      1.0  0.39230  0.94040  0.06380  1.0000 -0.1992216865
C   C108      1.0  0.37510  0.97300  0.00450  1.0000 -0.0835971171
C   C109      1.0  0.30770  0.94880  0.96100  1.0000 -0.0549518792
C   C110      1.0  0.26130  0.88770  0.97970  1.0000 -0.0992430325
C   C111      1.0  0.27400  0.85820  0.04320  1.0000 -0.2097055399
C   C112      1.0  0.28130  0.98580  0.89880  1.0000 0.5516461124
C   C113      1.0  0.01350  0.43450  0.75970  1.0000 0.090124224
C   C114      1.0  0.08510  0.38930  0.76230  1.0000 -0.24203326
C   C115      1.0  0.09850  0.34090  0.70900  1.0000 0.2291977048
C   C116      1.0  0.03330  0.34240  0.65670  1.0000 -0.2693959335
C   C117      1.0  0.96210  0.38850  0.66160  1.0000 0.0772073707
C   C118      1.0  0.22740  0.28650  0.76990  1.0000 -0.1199903131
C   C119      1.0  0.19860  0.25640  0.65020  1.0000 -0.1199903131
C   C120      1.0  0.69320  0.45520  0.79540  1.0000 0.090124224
C   C121      1.0  0.63250  0.45130  0.84670  1.0000 -0.24203326
C   C122      1.0  0.63400  0.50090  0.90010  1.0000 0.2291977048
C   C123      1.0  0.70590  0.54860  0.89740  1.0000 -0.2630975852
C   C124      1.0  0.76560  0.54920  0.84430  1.0000 0.090124224
C   C125      1.0  0.51340  0.43670  0.96190  1.0000 -0.1199903131
C   C126      1.0  0.58110  0.54260  0.00930  1.0000 -0.1098826946
C   C127      1.0  0.94210  0.62320  0.72530  1.0000 0.524517714
C   C128      1.0  0.99630  0.68790  0.70250  1.0000 -0.042160728
C   C129      1.0  0.98220  0.71830  0.64220  1.0000 -0.0992430325
C   C130      1.0  0.03320  0.77560  0.62120  1.0000 -0.225325943
C   C131      1.0  0.10060  0.79970  0.66240  1.0000 0.2480323305
C   C132      1.0  0.11790  0.77060  0.72550  1.0000 -0.2097055399
C   C133      1.0  0.06480  0.71340  0.74570  1.0000 -0.0992430325
C   C134      1.0  0.16210  0.88480  0.58360  1.0000 0.2291977048
C   C135      1.0  0.10770  0.94040  0.56380  1.0000 -0.1992216865
C   C136      1.0  0.12490  0.97300  0.50450  1.0000 -0.0835971171
C   C137      1.0  0.19230  0.94880  0.46100  1.0000 -0.0549518792
C   C138      1.0  0.23870  0.88770  0.47970  1.0000 -0.0992430325
C   C139      1.0  0.22600  0.85820  0.54320  1.0000 -0.2097055399
C   C140      1.0  0.21870  0.98580  0.39880  1.0000 0.5516461124
C   C141      1.0  0.48650  0.06550  0.75970  1.0000 0.090124224
C   C142      1.0  0.41490  0.11070  0.76230  1.0000 -0.24203326
C   C143      1.0  0.40150  0.15910  0.70900  1.0000 0.2291977048
C   C144      1.0  0.46670  0.15760  0.65670  1.0000 -0.2693959335
C   C145      1.0  0.53790  0.11150  0.66160  1.0000 0.0772073707
C   C146      1.0  0.27260  0.21350  0.76990  1.0000 -0.1199903131
C   C147      1.0  0.30140  0.24360  0.65020  1.0000 -0.1199903131
C   C148      1.0  0.80680  0.04480  0.79540  1.0000 0.090124224
C   C149      1.0  0.86750  0.04870  0.84670  1.0000 -0.24203326
C   C150      1.0  0.86600  0.99910  0.90010  1.0000 0.2291977048
C   C151      1.0  0.79410  0.95140  0.89740  1.0000 -0.2630975852
C   C152      1.0  0.73440  0.95080  0.84430  1.0000 0.090124224
C   C153      1.0  0.98660  0.06330  0.96190  1.0000 -0.1199903131
C   C154      1.0  0.91890  0.95740  0.00930  1.0000 -0.1098826946
C   C155      1.0  0.55790  0.87680  0.72530  1.0000 0.524517714
C   C156      1.0  0.50370  0.81210  0.70250  1.0000 -0.042160728
C   C157      1.0  0.51780  0.78170  0.64220  1.0000 -0.0992430325
C   C158      1.0  0.46680  0.72440  0.62120  1.0000 -0.225325943
C   C159      1.0  0.39940  0.70030  0.66240  1.0000 0.2480323305
C   C160      1.0  0.38210  0.72940  0.72550  1.0000 -0.2097055399
C   C161      1.0  0.43520  0.78660  0.74570  1.0000 -0.0992430325
C   C162      1.0  0.33790  0.61520  0.58360  1.0000 0.2291977048
C   C163      1.0  0.39230  0.55960  0.56380  1.0000 -0.1992216865
C   C164      1.0  0.37510  0.52700  0.50450  1.0000 -0.0835971171
C   C165      1.0  0.30770  0.55120  0.46100  1.0000 -0.0549518792
C   C166      1.0  0.26130  0.61230  0.47970  1.0000 -0.0992430325
C   C167      1.0  0.27400  0.64180  0.54320  1.0000 -0.2097055399
C   C168      1.0  0.28130  0.51420  0.39880  1.0000 0.5516461124
C   C169      1.0  0.98650  0.56550  0.24030  1.0000 0.090124224
C   C170      1.0  0.91490  0.61070  0.23770  1.0000 -0.24203326
C   C171      1.0  0.90150  0.65910  0.29100  1.0000 0.2291977048
C   C172      1.0  0.96670  0.65760  0.34330  1.0000 -0.2693959335
C   C173      1.0  0.03790  0.61150  0.33840  1.0000 0.0772073707
C   C174      1.0  0.77260  0.71350  0.23010  1.0000 -0.1199903131
C   C175      1.0  0.80140  0.74360  0.34980  1.0000 -0.1199903131
C   C176      1.0  0.30680  0.54480  0.20460  1.0000 0.090124224
C   C177      1.0  0.36750  0.54870  0.15330  1.0000 -0.24203326
C   C178      1.0  0.36600  0.49910  0.09990  1.0000 0.2291977048
C   C179      1.0  0.29410  0.45140  0.10260  1.0000 -0.2630975852
C   C180      1.0  0.23440  0.45080  0.15570  1.0000 0.090124224
C   C181      1.0  0.48660  0.56330  0.03810  1.0000 -0.1199903131
C   C182      1.0  0.41890  0.45740  0.99070  1.0000 -0.1098826946
C   C183      1.0  0.05790  0.37680  0.27470  1.0000 0.524517714
C   C184      1.0  0.00370  0.31210  0.29750  1.0000 -0.042160728
C   C185      1.0  0.01780  0.28170  0.35780  1.0000 -0.0992430325
C   C186      1.0  0.96680  0.22440  0.37880  1.0000 -0.2247178713
C   C187      1.0  0.89940  0.20030  0.33760  1.0000 0.2480323305
C   C188      1.0  0.88210  0.22940  0.27450  1.0000 -0.2097055399
C   C189      1.0  0.93520  0.28660  0.25430  1.0000 -0.0992430325
C   C190      1.0  0.83790  0.11520  0.41640  1.0000 0.2291977048
C   C191      1.0  0.89230  0.05960  0.43620  1.0000 -0.1992216865
C   C192      1.0  0.87510  0.02700  0.49550  1.0000 -0.0835971171
C   C193      1.0  0.80770  0.05120  0.53900  1.0000 -0.0549518792
C   C194      1.0  0.76130  0.11230  0.52030  1.0000 -0.0992430325
C   C195      1.0  0.77400  0.14180  0.45680  1.0000 -0.2097055399
C   C196      1.0  0.78130  0.01420  0.60120  1.0000 0.5516461124
C   C197      1.0  0.51350  0.93450  0.24030  1.0000 0.090124224
C   C198      1.0  0.58510  0.88930  0.23770  1.0000 -0.24203326
C   C199      1.0  0.59850  0.84090  0.29100  1.0000 0.2291977048
C   C200      1.0  0.53330  0.84240  0.34330  1.0000 -0.2693959335
C   C201      1.0  0.46210  0.88850  0.33840  1.0000 0.0772073707
C   C202      1.0  0.72740  0.78650  0.23010  1.0000 -0.1199903131
C   C203      1.0  0.69860  0.75640  0.34980  1.0000 -0.1199903131
C   C204      1.0  0.19320  0.95520  0.20460  1.0000 0.090124224
C   C205      1.0  0.13250  0.95130  0.15330  1.0000 -0.24203326
C   C206      1.0  0.13400  0.00090  0.09990  1.0000 0.2291977048
C   C207      1.0  0.20590  0.04860  0.10260  1.0000 -0.2630975852
C   C208      1.0  0.26560  0.04920  0.15570  1.0000 0.090124224
C   C209      1.0  0.01340  0.93670  0.03810  1.0000 -0.1199903131
C   C210      1.0  0.08110  0.04260  0.99070  1.0000 -0.1098826946
C   C211      1.0  0.44210  0.12320  0.27470  1.0000 0.524517714
C   C212      1.0  0.49630  0.18790  0.29750  1.0000 -0.042160728
C   C213      1.0  0.48220  0.21830  0.35780  1.0000 -0.0992430325
C   C214      1.0  0.53320  0.27560  0.37880  1.0000 -0.225325943
C   C215      1.0  0.60060  0.29970  0.33760  1.0000 0.2480323305
C   C216      1.0  0.61790  0.27060  0.27450  1.0000 -0.2097055399
C   C217      1.0  0.56480  0.21340  0.25430  1.0000 -0.0992430325
C   C218      1.0  0.66210  0.38480  0.41640  1.0000 0.2291977048
C   C219      1.0  0.60770  0.44040  0.43620  1.0000 -0.1992216865
C   C220      1.0  0.62490  0.47300  0.49550  1.0000 -0.0835971171
C   C221      1.0  0.69230  0.44880  0.53900  1.0000 -0.0549518792
C   C222      1.0  0.73870  0.38770  0.52030  1.0000 -0.0992430325
C   C223      1.0  0.72600  0.35820  0.45680  1.0000 -0.2097055399
C   C224      1.0  0.71870  0.48580  0.60120  1.0000 0.5516461124
N   N1        1.0  0.04850  0.93530  0.78890  1.0000 -0.253897489
N   N2        1.0  0.82840  0.79480  0.79080  1.0000 -0.0872597364
N   N3        1.0  0.23970  0.00510  0.70830  1.0000 -0.2693959335
N   N4        1.0  0.42970  0.99920  0.54970  1.0000 -0.0872597364
N   N5        1.0  0.45150  0.56470  0.78890  1.0000 -0.253897489
N   N6        1.0  0.67160  0.70520  0.79080  1.0000 -0.0872597364
N   N7        1.0  0.26030  0.49490  0.70830  1.0000 -0.2693959335
N   N8        1.0  0.07030  0.50080  0.54970  1.0000 -0.0872597364
N   N9        1.0  0.95150  0.06470  0.21110  1.0000 -0.253897489
N   N10       1.0  0.17160  0.20520  0.20920  1.0000 -0.0872597364
N   N11       1.0  0.76030  0.99490  0.29170  1.0000 -0.2693959335
N   N12       1.0  0.57030  0.00080  0.45030  1.0000 -0.0872597364
N   N13       1.0  0.54850  0.43530  0.21110  1.0000 -0.253897489
N   N14       1.0  0.32840  0.29480  0.20920  1.0000 -0.0872597364
N   N15       1.0  0.73970  0.50510  0.29170  1.0000 -0.2693959335
N   N16       1.0  0.92970  0.49920  0.45030  1.0000 -0.0872597364
N   N17       1.0  0.95150  0.43530  0.71110  1.0000 -0.253897489
N   N18       1.0  0.17160  0.29480  0.70920  1.0000 -0.0872597364
N   N19       1.0  0.76030  0.50510  0.79170  1.0000 -0.2693959335
N   N20       1.0  0.57030  0.49920  0.95030  1.0000 -0.0872597364
N   N21       1.0  0.54850  0.06470  0.71110  1.0000 -0.253897489
N   N22       1.0  0.32840  0.20520  0.70920  1.0000 -0.0872597364
N   N23       1.0  0.73970  0.99490  0.79170  1.0000 -0.2693959335
N   N24       1.0  0.92970  0.00080  0.95030  1.0000 -0.0872597364
N   N25       1.0  0.04850  0.56470  0.28890  1.0000 -0.253897489
N   N26       1.0  0.82840  0.70520  0.29080  1.0000 -0.0872597364
N   N27       1.0  0.23970  0.49490  0.20830  1.0000 -0.2693959335
N   N28       1.0  0.42970  0.50080  0.04970  1.0000 -0.0872597364
N   N29       1.0  0.45150  0.93530  0.28890  1.0000 -0.253897489
N   N30       1.0  0.67160  0.79480  0.29080  1.0000 -0.0872597364
N   N31       1.0  0.26030  0.00510  0.20830  1.0000 -0.2693959335
N   N32       1.0  0.07030  0.99920  0.04970  1.0000 -0.0872597364
O   O1        1.0  0.10880  0.09570  0.82080  1.0000 -0.5437843064
O   O2        1.0  0.04810  0.10010  0.71760  1.0000 -0.5487794364
O   O3        1.0  0.84450  0.35920  0.85020  1.0000 -0.253897489
O   O4        1.0  0.72610  0.45720  0.13930  1.0000 -0.5328744957
O   O5        1.0  0.80760  0.55080  0.10990  1.0000 -0.5927685881
O   O6        1.0  0.39120  0.40430  0.82080  1.0000 -0.5437843064
O   O7        1.0  0.45190  0.39990  0.71760  1.0000 -0.5487794364
O   O8        1.0  0.65550  0.14080  0.85020  1.0000 -0.253897489
O   O9        1.0  0.77390  0.04280  0.13930  1.0000 -0.5328744957
O   O10       1.0  0.69240  0.94920  0.10990  1.0000 -0.5927685881
O   O11       1.0  0.89120  0.90430  0.17920  1.0000 -0.5437843064
O   O12       1.0  0.95190  0.89990  0.28240  1.0000 -0.5487794364
O   O13       1.0  0.15550  0.64080  0.14980  1.0000 -0.253897489
O   O14       1.0  0.27390  0.54280  0.86070  1.0000 -0.5328744957
O   O15       1.0  0.19240  0.44920  0.89010  1.0000 -0.5927685881
O   O16       1.0  0.60880  0.59570  0.17920  1.0000 -0.5437843064
O   O17       1.0  0.54810  0.60010  0.28240  1.0000 -0.5487794364
O   O18       1.0  0.34450  0.85920  0.14980  1.0000 -0.253897489
O   O19       1.0  0.22610  0.95720  0.86070  1.0000 -0.5328744957
O   O20       1.0  0.30760  0.05080  0.89010  1.0000 -0.5927685881
O   O21       1.0  0.89120  0.59570  0.67920  1.0000 -0.5437843064
O   O22       1.0  0.95190  0.60010  0.78240  1.0000 -0.5487794364
O   O23       1.0  0.15550  0.85920  0.64980  1.0000 -0.253897489
O   O24       1.0  0.27390  0.95720  0.36070  1.0000 -0.5328744957
O   O25       1.0  0.19240  0.05080  0.39010  1.0000 -0.5927685881
O   O26       1.0  0.60880  0.90430  0.67920  1.0000 -0.5437843064
O   O27       1.0  0.54810  0.89990  0.78240  1.0000 -0.5487794364
O   O28       1.0  0.34450  0.64080  0.64980  1.0000 -0.253897489
O   O29       1.0  0.22610  0.54280  0.36070  1.0000 -0.5328744957
O   O30       1.0  0.30760  0.44920  0.39010  1.0000 -0.5927685881
O   O31       1.0  0.10880  0.40430  0.32080  1.0000 -0.5437843064
O   O32       1.0  0.04810  0.39990  0.21760  1.0000 -0.5487794364
O   O33       1.0  0.84450  0.14080  0.35020  1.0000 -0.253897489
O   O34       1.0  0.72610  0.04280  0.63930  1.0000 -0.5328744957
O   O35       1.0  0.80760  0.94920  0.60990  1.0000 -0.5927685881
O   O36       1.0  0.39120  0.09570  0.32080  1.0000 -0.5437843064
O   O37       1.0  0.45190  0.10010  0.21760  1.0000 -0.5487794364
O   O38       1.0  0.65550  0.35920  0.35020  1.0000 -0.253897489
O   O39       1.0  0.77390  0.45720  0.63930  1.0000 -0.5328744957
O   O40       1.0  0.69240  0.55080  0.60990  1.0000 -0.5927685881
