# DDEC6 charges by PACMAN v1.1 (https://github.com/mtap-research/PACMAN-charge/)
data_2020[Zn][hcb]2[FSR]3
_chemical_formula_sum              "Zn12 H228 C272 N40 O60"
_cell_length_a       14.886
_cell_length_b       24.353
_cell_length_c       22.481
_cell_angle_alpha    90
_cell_angle_beta     97.45
_cell_angle_gamma    90

_symmetry_space_group_name_H-M    "P 1"
_symmetry_Int_Tables_number       1

loop_
  _symmetry_equiv_pos_as_xyz
  'x, y, z'

loop_
  _atom_site_type_symbol
  _atom_site_label
  _atom_site_symmetry_multiplicity
  _atom_site_fract_x
  _atom_site_fract_y
  _atom_site_fract_z
  _atom_site_occupancy
  _atom_site_charge
Zn  Zn1       1.0  0.18714  0.73876  0.18090  1.0000 0.836164831
Zn  Zn2       1.0  0.65607  0.20453  0.16093  1.0000 0.8247318406
Zn  Zn3       1.0  0.97012  0.21296  0.43764  1.0000 0.82683958
Zn  Zn4       1.0  0.31286  0.23876  0.81910  1.0000 0.836164831
Zn  Zn5       1.0  0.84393  0.70453  0.83907  1.0000 0.8247318406
Zn  Zn6       1.0  0.52988  0.71296  0.56236  1.0000 0.82683958
Zn  Zn7       1.0  0.81286  0.26124  0.81910  1.0000 0.836164831
Zn  Zn8       1.0  0.34393  0.79547  0.83907  1.0000 0.8247318406
Zn  Zn9       1.0  0.02988  0.78704  0.56236  1.0000 0.82683958
Zn  Zn10      1.0  0.68714  0.76124  0.18090  1.0000 0.836164831
Zn  Zn11      1.0  0.15607  0.29547  0.16093  1.0000 0.8247318406
Zn  Zn12      1.0  0.47012  0.28704  0.43764  1.0000 0.82683958
H   H1        1.0  0.75540  0.24830  0.24150  1.0000 0.3803043578
H   H2        1.0  0.70920  0.20580  0.26790  1.0000 0.3922974456
H   H3        1.0  0.52900  0.39430  0.19930  1.0000 0.1134797766
H   H4        1.0  0.28970  0.56860  0.11080  1.0000 0.1220098391
H   H5        1.0  0.26240  0.70830  0.01940  1.0000 0.162045094
H   H6        1.0  0.26710  0.76950  0.99850  1.0000 0.1498134498
H   H7        1.0  0.29540  0.75420  0.06610  1.0000 0.162045094
H   H8        1.0  0.40130  0.51150  0.08400  1.0000 0.1220098391
H   H9        1.0  0.02570  0.24740  0.61050  1.0000 0.169702161
H   H10       1.0  0.04080  0.30630  0.58550  1.0000 0.1498134498
H   H11       1.0  0.97230  0.26590  0.54910  1.0000 0.169702161
H   H12       1.0  0.58310  0.63350  0.11610  1.0000 0.1294102422
H   H13       1.0  0.47240  0.68950  0.14680  1.0000 0.1294102422
H   H14       1.0  0.75200  0.53250  0.08870  1.0000 0.1220098391
H   H15       1.0  0.84480  0.57770  0.02920  1.0000 0.1220098391
H   H16       1.0  0.62770  0.63340  0.92270  1.0000 0.1220098391
H   H17       1.0  0.53360  0.59160  0.98380  1.0000 0.1220098391
H   H18       1.0  0.52170  0.48560  0.17330  1.0000 0.1220098391
H   H19       1.0  0.67300  0.36210  0.06430  1.0000 0.1294102422
H   H20       1.0  0.66010  0.45260  0.03460  1.0000 0.1220098391
H   H21       1.0  0.86750  0.08770  0.56620  1.0000 0.1220098391
H   H22       1.0  0.76780  0.04230  0.61800  1.0000 0.1294102422
H   H23       1.0  0.55790  0.10790  0.51090  1.0000 0.1294102422
H   H24       1.0  0.65840  0.15230  0.45620  1.0000 0.1294102422
H   H25       1.0  0.50400  0.98610  0.67290  1.0000 0.1220098391
H   H26       1.0  0.47950  0.89420  0.66940  1.0000 0.1134797766
H   H27       1.0  0.64160  0.87800  0.54160  1.0000 0.1220098391
H   H28       1.0  0.65830  0.97120  0.53920  1.0000 0.1220098391
H   H29       1.0  0.41450  0.06310  0.59100  1.0000 0.1294102422
H   H30       1.0  0.33220  0.12330  0.64450  1.0000 0.1220098391
H   H31       1.0  0.64080  0.11500  0.68750  1.0000 0.1134797766
H   H32       1.0  0.30850  0.82980  0.16060  1.0000 0.1294102422
H   H33       1.0  0.33400  0.92200  0.17830  1.0000 0.1294102422
H   H34       1.0  0.12430  0.92140  0.27570  1.0000 0.1396032319
H   H35       1.0  0.11060  0.82810  0.25870  1.0000 0.1220098391
H   H36       1.0  0.45880  0.03900  0.16950  1.0000 0.1396032319
H   H37       1.0  0.57880  0.09080  0.14550  1.0000 0.1220098391
H   H38       1.0  0.49010  0.22010  0.21980  1.0000 0.1294102422
H   H39       1.0  0.36470  0.17410  0.24150  1.0000 0.1294102422
H   H40       1.0  0.95530  0.10440  0.37100  1.0000 0.1220098391
H   H41       1.0  0.04640  0.04760  0.32110  1.0000 0.1396032319
H   H42       1.0  0.23320  0.16720  0.33430  1.0000 0.1294102422
H   H43       1.0  0.14070  0.21850  0.38800  1.0000 0.1220098391
H   H44       1.0  0.08800  0.76760  0.90920  1.0000 0.1294102422
H   H45       1.0  0.17600  0.73590  0.93550  1.0000 0.1294102422
H   H46       1.0  0.08320  0.70480  0.92390  1.0000 0.1396032319
H   H47       1.0  0.99510  0.76530  0.04860  1.0000 0.1396032319
H   H48       1.0  0.97920  0.79660  0.98710  1.0000 0.1294102422
H   H49       1.0  0.96180  0.73320  0.98940  1.0000 0.1498134498
H   H50       1.0  0.24910  0.23750  0.49650  1.0000 0.1498134498
H   H51       1.0  0.31720  0.24350  0.55540  1.0000 0.1396032319
H   H52       1.0  0.26400  0.18850  0.54200  1.0000 0.1396032319
H   H53       1.0  0.16120  0.28480  0.64530  1.0000 0.1220098391
H   H54       1.0  0.25020  0.24970  0.65470  1.0000 0.1498134498
H   H55       1.0  0.24990  0.30710  0.62310  1.0000 0.1220098391
H   H56       1.0  0.54990  0.18910  0.70660  1.0000 0.1294102422
H   H57       1.0  0.54440  0.14330  0.75460  1.0000 0.1220098391
H   H58       1.0  0.74460  0.74830  0.75850  1.0000 0.3803043578
H   H59       1.0  0.79080  0.70580  0.73210  1.0000 0.3922974456
H   H60       1.0  0.97100  0.89430  0.80070  1.0000 0.1134797766
H   H61       1.0  0.21030  0.06860  0.88920  1.0000 0.1220098391
H   H62       1.0  0.23760  0.20830  0.98060  1.0000 0.162045094
H   H63       1.0  0.23290  0.26950  0.00150  1.0000 0.1498134498
H   H64       1.0  0.20460  0.25420  0.93390  1.0000 0.162045094
H   H65       1.0  0.09870  0.01150  0.91600  1.0000 0.1220098391
H   H66       1.0  0.47430  0.74740  0.38950  1.0000 0.169702161
H   H67       1.0  0.45920  0.80630  0.41450  1.0000 0.1498134498
H   H68       1.0  0.52770  0.76590  0.45090  1.0000 0.169702161
H   H69       1.0  0.91690  0.13350  0.88390  1.0000 0.1294102422
H   H70       1.0  0.02760  0.18950  0.85320  1.0000 0.1294102422
H   H71       1.0  0.74800  0.03250  0.91130  1.0000 0.1220098391
H   H72       1.0  0.65520  0.07770  0.97080  1.0000 0.1220098391
H   H73       1.0  0.87230  0.13340  0.07730  1.0000 0.1220098391
H   H74       1.0  0.96640  0.09160  0.01620  1.0000 0.1220098391
H   H75       1.0  0.97830  0.98560  0.82670  1.0000 0.1220098391
H   H76       1.0  0.82700  0.86210  0.93570  1.0000 0.1294102422
H   H77       1.0  0.83990  0.95260  0.96540  1.0000 0.1220098391
H   H78       1.0  0.63250  0.58770  0.43380  1.0000 0.1220098391
H   H79       1.0  0.73220  0.54230  0.38200  1.0000 0.1294102422
H   H80       1.0  0.94210  0.60790  0.48910  1.0000 0.1294102422
H   H81       1.0  0.84160  0.65230  0.54380  1.0000 0.1294102422
H   H82       1.0  0.99600  0.48610  0.32710  1.0000 0.1220098391
H   H83       1.0  0.02050  0.39420  0.33060  1.0000 0.1134797766
H   H84       1.0  0.85840  0.37800  0.45840  1.0000 0.1220098391
H   H85       1.0  0.84170  0.47120  0.46080  1.0000 0.1220098391
H   H86       1.0  0.08550  0.56310  0.40900  1.0000 0.1294102422
H   H87       1.0  0.16780  0.62330  0.35550  1.0000 0.1220098391
H   H88       1.0  0.85920  0.61500  0.31250  1.0000 0.1134797766
H   H89       1.0  0.19150  0.32980  0.83940  1.0000 0.1294102422
H   H90       1.0  0.16600  0.42200  0.82170  1.0000 0.1294102422
H   H91       1.0  0.37570  0.42140  0.72430  1.0000 0.1396032319
H   H92       1.0  0.38940  0.32810  0.74130  1.0000 0.1220098391
H   H93       1.0  0.04120  0.53900  0.83050  1.0000 0.1396032319
H   H94       1.0  0.92120  0.59080  0.85450  1.0000 0.1220098391
H   H95       1.0  0.00990  0.72010  0.78020  1.0000 0.1294102422
H   H96       1.0  0.13530  0.67410  0.75850  1.0000 0.1294102422
H   H97       1.0  0.54470  0.60440  0.62900  1.0000 0.1220098391
H   H98       1.0  0.45360  0.54760  0.67890  1.0000 0.1396032319
H   H99       1.0  0.26680  0.66720  0.66570  1.0000 0.1294102422
H   H100      1.0  0.35930  0.71850  0.61200  1.0000 0.1220098391
H   H101      1.0  0.41200  0.26760  0.09080  1.0000 0.1294102422
H   H102      1.0  0.32400  0.23590  0.06450  1.0000 0.1294102422
H   H103      1.0  0.41680  0.20480  0.07610  1.0000 0.1396032319
H   H104      1.0  0.50490  0.26530  0.95140  1.0000 0.1396032319
H   H105      1.0  0.52080  0.29660  0.01290  1.0000 0.1294102422
H   H106      1.0  0.53820  0.23320  0.01060  1.0000 0.1498134498
H   H107      1.0  0.25090  0.73750  0.50350  1.0000 0.1498134498
H   H108      1.0  0.18280  0.74350  0.44460  1.0000 0.1396032319
H   H109      1.0  0.23600  0.68850  0.45800  1.0000 0.1396032319
H   H110      1.0  0.33880  0.78480  0.35470  1.0000 0.1220098391
H   H111      1.0  0.24980  0.74970  0.34530  1.0000 0.1498134498
H   H112      1.0  0.25010  0.80710  0.37690  1.0000 0.1220098391
H   H113      1.0  0.95010  0.68910  0.29340  1.0000 0.1294102422
H   H114      1.0  0.95560  0.64330  0.24540  1.0000 0.1220098391
H   H115      1.0  0.24460  0.75170  0.75850  1.0000 0.3803043578
H   H116      1.0  0.29080  0.79420  0.73210  1.0000 0.3922974456
H   H117      1.0  0.47100  0.60570  0.80070  1.0000 0.1134797766
H   H118      1.0  0.71030  0.43140  0.88920  1.0000 0.1220098391
H   H119      1.0  0.73760  0.29170  0.98060  1.0000 0.162045094
H   H120      1.0  0.73290  0.23050  0.00150  1.0000 0.1498134498
H   H121      1.0  0.70460  0.24580  0.93390  1.0000 0.162045094
H   H122      1.0  0.59870  0.48850  0.91600  1.0000 0.1220098391
H   H123      1.0  0.97430  0.75260  0.38950  1.0000 0.169702161
H   H124      1.0  0.95920  0.69370  0.41450  1.0000 0.1498134498
H   H125      1.0  0.02770  0.73410  0.45090  1.0000 0.169702161
H   H126      1.0  0.41690  0.36650  0.88390  1.0000 0.1294102422
H   H127      1.0  0.52760  0.31050  0.85320  1.0000 0.1294102422
H   H128      1.0  0.24800  0.46750  0.91130  1.0000 0.1220098391
H   H129      1.0  0.15520  0.42230  0.97080  1.0000 0.1220098391
H   H130      1.0  0.37230  0.36660  0.07730  1.0000 0.1220098391
H   H131      1.0  0.46640  0.40840  0.01620  1.0000 0.1220098391
H   H132      1.0  0.47830  0.51440  0.82670  1.0000 0.1294102422
H   H133      1.0  0.32700  0.63790  0.93570  1.0000 0.1294102422
H   H134      1.0  0.33990  0.54740  0.96540  1.0000 0.1220098391
H   H135      1.0  0.13250  0.91230  0.43380  1.0000 0.1220098391
H   H136      1.0  0.23220  0.95770  0.38200  1.0000 0.1294102422
H   H137      1.0  0.44210  0.89210  0.48910  1.0000 0.1294102422
H   H138      1.0  0.34160  0.84770  0.54380  1.0000 0.1294102422
H   H139      1.0  0.49600  0.01390  0.32710  1.0000 0.1220098391
H   H140      1.0  0.52050  0.10580  0.33060  1.0000 0.1134797766
H   H141      1.0  0.35840  0.12200  0.45840  1.0000 0.1220098391
H   H142      1.0  0.34170  0.02880  0.46080  1.0000 0.1220098391
H   H143      1.0  0.58550  0.93690  0.40900  1.0000 0.1294102422
H   H144      1.0  0.66780  0.87670  0.35550  1.0000 0.1220098391
H   H145      1.0  0.35920  0.88500  0.31250  1.0000 0.1134797766
H   H146      1.0  0.69150  0.17020  0.83940  1.0000 0.1294102422
H   H147      1.0  0.66600  0.07800  0.82170  1.0000 0.1294102422
H   H148      1.0  0.87570  0.07860  0.72430  1.0000 0.1396032319
H   H149      1.0  0.88940  0.17190  0.74130  1.0000 0.1220098391
H   H150      1.0  0.54120  0.96100  0.83050  1.0000 0.1396032319
H   H151      1.0  0.42120  0.90920  0.85450  1.0000 0.1220098391
H   H152      1.0  0.50990  0.77990  0.78020  1.0000 0.1294102422
H   H153      1.0  0.63530  0.82590  0.75850  1.0000 0.1294102422
H   H154      1.0  0.04470  0.89560  0.62900  1.0000 0.1220098391
H   H155      1.0  0.95360  0.95240  0.67890  1.0000 0.1396032319
H   H156      1.0  0.76680  0.83280  0.66570  1.0000 0.1294102422
H   H157      1.0  0.85930  0.78150  0.61200  1.0000 0.1220098391
H   H158      1.0  0.91200  0.23240  0.09080  1.0000 0.1396032319
H   H159      1.0  0.82400  0.26410  0.06450  1.0000 0.1294102422
H   H160      1.0  0.91680  0.29520  0.07610  1.0000 0.1396032319
H   H161      1.0  0.00490  0.23470  0.95140  1.0000 0.1396032319
H   H162      1.0  0.02080  0.20340  0.01290  1.0000 0.1294102422
H   H163      1.0  0.03820  0.26680  0.01060  1.0000 0.1498134498
H   H164      1.0  0.75090  0.76250  0.50350  1.0000 0.1498134498
H   H165      1.0  0.68280  0.75650  0.44460  1.0000 0.1396032319
H   H166      1.0  0.73600  0.81150  0.45800  1.0000 0.1396032319
H   H167      1.0  0.83880  0.71520  0.35470  1.0000 0.1220098391
H   H168      1.0  0.74980  0.75030  0.34530  1.0000 0.1498134498
H   H169      1.0  0.75010  0.69290  0.37690  1.0000 0.1220098391
H   H170      1.0  0.45010  0.81090  0.29340  1.0000 0.1294102422
H   H171      1.0  0.45560  0.85670  0.24540  1.0000 0.1220098391
H   H172      1.0  0.25540  0.25170  0.24150  1.0000 0.3803043578
H   H173      1.0  0.20920  0.29420  0.26790  1.0000 0.3922974456
H   H174      1.0  0.02900  0.10570  0.19930  1.0000 0.1134797766
H   H175      1.0  0.78970  0.93140  0.11080  1.0000 0.1294102422
H   H176      1.0  0.76240  0.79170  0.01940  1.0000 0.162045094
H   H177      1.0  0.76710  0.73050  0.99850  1.0000 0.1498134498
H   H178      1.0  0.79540  0.74580  0.06610  1.0000 0.162045094
H   H179      1.0  0.90130  0.98850  0.08400  1.0000 0.1220098391
H   H180      1.0  0.52570  0.25260  0.61050  1.0000 0.169702161
H   H181      1.0  0.54080  0.19370  0.58550  1.0000 0.1498134498
H   H182      1.0  0.47230  0.23410  0.54910  1.0000 0.169702161
H   H183      1.0  0.08310  0.86650  0.11610  1.0000 0.1294102422
H   H184      1.0  0.97240  0.81050  0.14680  1.0000 0.1294102422
H   H185      1.0  0.25200  0.96750  0.08870  1.0000 0.1220098391
H   H186      1.0  0.34480  0.92230  0.02920  1.0000 0.1220098391
H   H187      1.0  0.12770  0.86660  0.92270  1.0000 0.1220098391
H   H188      1.0  0.03360  0.90840  0.98380  1.0000 0.1220098391
H   H189      1.0  0.02170  0.01440  0.17330  1.0000 0.1220098391
H   H190      1.0  0.17300  0.13790  0.06430  1.0000 0.1294102422
H   H191      1.0  0.16010  0.04740  0.03460  1.0000 0.1220098391
H   H192      1.0  0.36750  0.41230  0.56620  1.0000 0.1220098391
H   H193      1.0  0.26780  0.45770  0.61800  1.0000 0.1294102422
H   H194      1.0  0.05790  0.39210  0.51090  1.0000 0.1294102422
H   H195      1.0  0.15840  0.34770  0.45620  1.0000 0.1294102422
H   H196      1.0  0.00400  0.51390  0.67290  1.0000 0.1220098391
H   H197      1.0  0.97950  0.60580  0.66940  1.0000 0.1134797766
H   H198      1.0  0.14160  0.62200  0.54160  1.0000 0.1220098391
H   H199      1.0  0.15830  0.52880  0.53920  1.0000 0.1220098391
H   H200      1.0  0.91450  0.43690  0.59100  1.0000 0.1294102422
H   H201      1.0  0.83220  0.37670  0.64450  1.0000 0.1220098391
H   H202      1.0  0.14080  0.38500  0.68750  1.0000 0.1134797766
H   H203      1.0  0.80850  0.67020  0.16060  1.0000 0.1294102422
H   H204      1.0  0.83400  0.57800  0.17830  1.0000 0.1294102422
H   H205      1.0  0.62430  0.57860  0.27570  1.0000 0.1396032319
H   H206      1.0  0.61060  0.67190  0.25870  1.0000 0.1220098391
H   H207      1.0  0.95880  0.46100  0.16950  1.0000 0.1396032319
H   H208      1.0  0.07880  0.40920  0.14550  1.0000 0.1220098391
H   H209      1.0  0.99010  0.27990  0.21980  1.0000 0.1294102422
H   H210      1.0  0.86470  0.32590  0.24150  1.0000 0.1294102422
H   H211      1.0  0.45530  0.39560  0.37100  1.0000 0.1220098391
H   H212      1.0  0.54640  0.45240  0.32110  1.0000 0.1396032319
H   H213      1.0  0.73320  0.33280  0.33430  1.0000 0.1294102422
H   H214      1.0  0.64070  0.28150  0.38800  1.0000 0.1220098391
H   H215      1.0  0.58800  0.73240  0.90920  1.0000 0.1294102422
H   H216      1.0  0.67600  0.76410  0.93550  1.0000 0.1294102422
H   H217      1.0  0.58320  0.79520  0.92390  1.0000 0.1396032319
H   H218      1.0  0.49510  0.73470  0.04860  1.0000 0.1396032319
H   H219      1.0  0.47920  0.70340  0.98710  1.0000 0.1294102422
H   H220      1.0  0.46180  0.76680  0.98940  1.0000 0.1498134498
H   H221      1.0  0.74910  0.26250  0.49650  1.0000 0.1498134498
H   H222      1.0  0.81720  0.25650  0.55540  1.0000 0.1396032319
H   H223      1.0  0.76400  0.31150  0.54200  1.0000 0.1396032319
H   H224      1.0  0.66120  0.21520  0.64530  1.0000 0.1220098391
H   H225      1.0  0.75020  0.25030  0.65470  1.0000 0.1498134498
H   H226      1.0  0.74990  0.19290  0.62310  1.0000 0.1220098391
H   H227      1.0  0.04990  0.31090  0.70660  1.0000 0.1294102422
H   H228      1.0  0.04440  0.35670  0.75460  1.0000 0.1220098391
C   C1        1.0  0.15700  0.75480  0.04290  1.0000 0.5189917375
C   C2        1.0  0.29720  0.67134  0.14978  1.0000 0.5485744614
C   C3        1.0  0.55580  0.40606  0.16642  1.0000 -0.0795943102
C   C4        1.0  0.34890  0.58141  0.11256  1.0000 -0.0882942408
C   C5        1.0  0.25460  0.74590  0.03060  1.0000 -0.5772708261
C   C6        1.0  0.41540  0.54741  0.09592  1.0000 -0.2004883859
C   C7        1.0  0.02890  0.26860  0.57480  1.0000 -0.5976005654
C   C8        1.0  0.50360  0.56681  0.09702  1.0000 0.169702161
C   C9        1.0  0.52440  0.62030  0.11570  1.0000 -0.1812289038
C   C10       1.0  0.45800  0.65395  0.13360  1.0000 -0.0795943102
C   C11       1.0  0.36970  0.63464  0.13198  1.0000 -0.0236759252
C   C12       1.0  0.63330  0.55750  0.04250  1.0000 0.1832668696
C   C13       1.0  0.72670  0.55319  0.05600  1.0000 -0.1885912561
C   C14       1.0  0.78220  0.58012  0.02000  1.0000 -0.0882942408
C   C15       1.0  0.74570  0.61026  0.97090  1.0000 -0.0266078032
C   C16       1.0  0.65240  0.61393  0.95640  1.0000 -0.0795943102
C   C17       1.0  0.59610  0.58829  0.99260  1.0000 -0.1812289038
C   C18       1.0  0.58640  0.47874  0.09929  1.0000 0.2012536291
C   C19       1.0  0.54980  0.46070  0.15037  1.0000 -0.2004883859
C   C20       1.0  0.60090  0.36800  0.13460  1.0000 -0.0413257103
C   C21       1.0  0.64100  0.38657  0.08530  1.0000 -0.0795943102
C   C22       1.0  0.63360  0.44092  0.06763  1.0000 -0.2004883859
C   C23       1.0  0.60470  0.30926  0.15320  1.0000 0.539426134
C   C24       1.0  0.80640  0.64040  0.93280  1.0000 0.539426134
C   C25       1.0  0.84050  0.15220  0.47380  1.0000 0.5189917375
C   C26       1.0  0.77310  0.12460  0.50540  1.0000 -0.0413257103
C   C27       1.0  0.80550  0.09150  0.55490  1.0000 -0.0795943102
C   C28       1.0  0.74650  0.06520  0.58610  1.0000 -0.1812289038
C   C29       1.0  0.65420  0.07240  0.57030  1.0000 0.169702161
C   C30       1.0  0.62010  0.10430  0.52160  1.0000 -0.1686893259
C   C31       1.0  0.68010  0.13060  0.48900  1.0000 -0.0695839312
C   C32       1.0  0.58210  0.99040  0.60560  1.0000 0.2131776874
C   C33       1.0  0.52990  0.96500  0.64520  1.0000 -0.2004883859
C   C34       1.0  0.51660  0.90980  0.64370  1.0000 -0.0795943102
C   C35       1.0  0.55710  0.87570  0.60470  1.0000 -0.0413257103
C   C36       1.0  0.61200  0.89990  0.56680  1.0000 -0.0965701278
C   C37       1.0  0.62310  0.95570  0.56610  1.0000 -0.2079986344
C   C38       1.0  0.54180  0.81550  0.60340  1.0000 0.539426134
C   C39       1.0  0.53780  0.08310  0.63580  1.0000 0.1498134498
C   C40       1.0  0.44390  0.08500  0.62140  1.0000 -0.1812289038
C   C41       1.0  0.39470  0.12100  0.65440  1.0000 -0.1051434662
C   C42       1.0  0.43520  0.15200  0.69970  1.0000 -0.0089626705
C   C43       1.0  0.52880  0.15200  0.71240  1.0000 -0.1812289038
C   C44       1.0  0.57800  0.11590  0.67890  1.0000 -0.1686893259
C   C45       1.0  0.37930  0.18760  0.73620  1.0000 0.539426134
C   C46       1.0  0.27240  0.84839  0.18470  1.0000 0.0881533733
C   C47       1.0  0.28750  0.90405  0.19440  1.0000 -0.1885912561
C   C48       1.0  0.23100  0.93236  0.22887  1.0000 0.0600938066
C   C49       1.0  0.16320  0.90348  0.25290  1.0000 -0.1812289038
C   C50       1.0  0.15500  0.84748  0.24200  1.0000 0.0845633343
C   C51       1.0  0.24540  0.99200  0.24172  1.0000 0.35731542
C   C52       1.0  0.32290  0.06979  0.23040  1.0000 0.369060031
C   C53       1.0  0.20810  0.06981  0.28641  1.0000 0.369060031
C   C54       1.0  0.39860  0.10070  0.20940  1.0000 0.0600938066
C   C55       1.0  0.46340  0.07590  0.17990  1.0000 -0.1686893259
C   C56       1.0  0.53580  0.10750  0.16600  1.0000 0.0881533733
C   C57       1.0  0.48330  0.18330  0.20890  1.0000 0.0746400047
C   C58       1.0  0.40830  0.15580  0.22300  1.0000 -0.1616864383
C   C59       1.0  0.01220  0.11660  0.36420  1.0000 0.0845633343
C   C60       1.0  0.06600  0.08250  0.33340  1.0000 -0.1686893259
C   C61       1.0  0.14880  0.10199  0.32180  1.0000 0.0600938066
C   C62       1.0  0.17750  0.15340  0.34180  1.0000 -0.1686893259
C   C63       1.0  0.12110  0.18420  0.37360  1.0000 0.1134797766
C   C64       1.0  0.11180  0.73900  0.93620  1.0000 -0.3487422179
C   C65       1.0  0.99930  0.76280  0.00640  1.0000 -0.337317885
C   C66       1.0  0.10320  0.24700  0.54290  1.0000 0.5189917375
C   C67       1.0  0.26080  0.22770  0.53820  1.0000 -0.3282374601
C   C68       1.0  0.21480  0.27480  0.62830  1.0000 -0.3598128717
C   C69       1.0  0.34300  0.25480  0.95710  1.0000 0.5189917375
C   C70       1.0  0.20280  0.17134  0.85022  1.0000 0.5485744614
C   C71       1.0  0.94420  0.90606  0.83358  1.0000 -0.0795943102
C   C72       1.0  0.15110  0.08141  0.88744  1.0000 -0.0882942408
C   C73       1.0  0.24540  0.24590  0.96940  1.0000 -0.5772708261
C   C74       1.0  0.08460  0.04741  0.90408  1.0000 -0.2004883859
C   C75       1.0  0.47110  0.76860  0.42520  1.0000 -0.5976005654
C   C76       1.0  0.99640  0.06681  0.90298  1.0000 0.169702161
C   C77       1.0  0.97560  0.12030  0.88430  1.0000 -0.1812289038
C   C78       1.0  0.04200  0.15395  0.86640  1.0000 -0.0795943102
C   C79       1.0  0.13030  0.13464  0.86802  1.0000 -0.0236759252
C   C80       1.0  0.86670  0.05750  0.95750  1.0000 0.1832668696
C   C81       1.0  0.77330  0.05319  0.94400  1.0000 -0.1885912561
C   C82       1.0  0.71780  0.08012  0.98000  1.0000 -0.0882942408
C   C83       1.0  0.75430  0.11026  0.02910  1.0000 -0.0266078032
C   C84       1.0  0.84760  0.11393  0.04360  1.0000 -0.0795943102
C   C85       1.0  0.90390  0.08829  0.00740  1.0000 -0.1812289038
C   C86       1.0  0.91360  0.97874  0.90071  1.0000 0.2012536291
C   C87       1.0  0.95020  0.96070  0.84963  1.0000 -0.2004883859
C   C88       1.0  0.89910  0.86800  0.86540  1.0000 -0.0413257103
C   C89       1.0  0.85900  0.88657  0.91470  1.0000 -0.0795943102
C   C90       1.0  0.86640  0.94092  0.93237  1.0000 -0.2004883859
C   C91       1.0  0.89530  0.80926  0.84680  1.0000 0.539426134
C   C92       1.0  0.69360  0.14040  0.06720  1.0000 0.539426134
C   C93       1.0  0.65950  0.65220  0.52620  1.0000 0.5189917375
C   C94       1.0  0.72690  0.62460  0.49460  1.0000 -0.0413257103
C   C95       1.0  0.69450  0.59150  0.44510  1.0000 -0.0795943102
C   C96       1.0  0.75350  0.56520  0.41390  1.0000 -0.1812289038
C   C97       1.0  0.84580  0.57240  0.42970  1.0000 0.169702161
C   C98       1.0  0.87990  0.60430  0.47840  1.0000 -0.1686893259
C   C99       1.0  0.81990  0.63060  0.51100  1.0000 -0.0695839312
C   C100      1.0  0.91790  0.49040  0.39440  1.0000 0.2131776874
C   C101      1.0  0.97010  0.46500  0.35480  1.0000 -0.2004883859
C   C102      1.0  0.98340  0.40980  0.35630  1.0000 -0.0795943102
C   C103      1.0  0.94290  0.37570  0.39530  1.0000 -0.0413257103
C   C104      1.0  0.88800  0.39990  0.43320  1.0000 -0.0965701278
C   C105      1.0  0.87690  0.45570  0.43390  1.0000 -0.2079986344
C   C106      1.0  0.95820  0.31550  0.39660  1.0000 0.539426134
C   C107      1.0  0.96220  0.58310  0.36420  1.0000 0.1498134498
C   C108      1.0  0.05610  0.58500  0.37860  1.0000 -0.1812289038
C   C109      1.0  0.10530  0.62100  0.34560  1.0000 -0.1051434662
C   C110      1.0  0.06480  0.65200  0.30030  1.0000 -0.0089626705
C   C111      1.0  0.97120  0.65200  0.28760  1.0000 -0.1812289038
C   C112      1.0  0.92200  0.61590  0.32110  1.0000 -0.1686893259
C   C113      1.0  0.12070  0.68760  0.26380  1.0000 0.539426134
C   C114      1.0  0.22760  0.34839  0.81530  1.0000 0.0881533733
C   C115      1.0  0.21250  0.40405  0.80560  1.0000 -0.1885912561
C   C116      1.0  0.26900  0.43236  0.77113  1.0000 0.0600938066
C   C117      1.0  0.33680  0.40348  0.74710  1.0000 -0.1812289038
C   C118      1.0  0.34500  0.34748  0.75800  1.0000 0.0845633343
C   C119      1.0  0.25460  0.49200  0.75828  1.0000 0.35731542
C   C120      1.0  0.17710  0.56979  0.76960  1.0000 0.369060031
C   C121      1.0  0.29190  0.56981  0.71359  1.0000 0.369060031
C   C122      1.0  0.10140  0.60070  0.79060  1.0000 0.0600938066
C   C123      1.0  0.03660  0.57590  0.82010  1.0000 -0.1686893259
C   C124      1.0  0.96420  0.60750  0.83400  1.0000 0.0881533733
C   C125      1.0  0.01670  0.68330  0.79110  1.0000 0.0746400047
C   C126      1.0  0.09170  0.65580  0.77700  1.0000 -0.1616864383
C   C127      1.0  0.48780  0.61660  0.63580  1.0000 0.0845633343
C   C128      1.0  0.43400  0.58250  0.66667  1.0000 -0.1686893259
C   C129      1.0  0.35120  0.60199  0.67820  1.0000 0.0600938066
C   C130      1.0  0.32250  0.65340  0.65820  1.0000 -0.1686893259
C   C131      1.0  0.37890  0.68420  0.62640  1.0000 0.1220098391
C   C132      1.0  0.38820  0.23900  0.06380  1.0000 -0.3487422179
C   C133      1.0  0.50070  0.26280  0.99360  1.0000 -0.337317885
C   C134      1.0  0.39680  0.74700  0.45710  1.0000 0.5189917375
C   C135      1.0  0.23920  0.72770  0.46180  1.0000 -0.3282374601
C   C136      1.0  0.28520  0.77480  0.37170  1.0000 -0.3598128717
C   C137      1.0  0.84300  0.24520  0.95710  1.0000 0.5189917375
C   C138      1.0  0.70280  0.32866  0.85022  1.0000 0.5485744614
C   C139      1.0  0.44420  0.59394  0.83358  1.0000 -0.0795943102
C   C140      1.0  0.65110  0.41859  0.88744  1.0000 -0.0882942408
C   C141      1.0  0.74540  0.25410  0.96940  1.0000 -0.5772708261
C   C142      1.0  0.58460  0.45259  0.90408  1.0000 -0.2004883859
C   C143      1.0  0.97110  0.73140  0.42520  1.0000 -0.5976005654
C   C144      1.0  0.49640  0.43319  0.90298  1.0000 0.169702161
C   C145      1.0  0.47560  0.37970  0.88430  1.0000 -0.1812289038
C   C146      1.0  0.54200  0.34605  0.86640  1.0000 -0.0795943102
C   C147      1.0  0.63030  0.36536  0.86802  1.0000 -0.0236759252
C   C148      1.0  0.36670  0.44250  0.95750  1.0000 0.1832668696
C   C149      1.0  0.27330  0.44681  0.94400  1.0000 -0.1885912561
C   C150      1.0  0.21780  0.41988  0.98000  1.0000 -0.0882942408
C   C151      1.0  0.25430  0.38974  0.02910  1.0000 -0.0266078032
C   C152      1.0  0.34760  0.38607  0.04360  1.0000 -0.0795943102
C   C153      1.0  0.40390  0.41171  0.00740  1.0000 -0.1812289038
C   C154      1.0  0.41360  0.52126  0.90071  1.0000 0.2012536291
C   C155      1.0  0.45020  0.53930  0.84963  1.0000 -0.2004883859
C   C156      1.0  0.39910  0.63200  0.86540  1.0000 -0.0413257103
C   C157      1.0  0.35900  0.61343  0.91470  1.0000 -0.0795943102
C   C158      1.0  0.36640  0.55908  0.93237  1.0000 -0.2004883859
C   C159      1.0  0.39530  0.69074  0.84680  1.0000 0.539426134
C   C160      1.0  0.19360  0.35960  0.06720  1.0000 0.5485744614
C   C161      1.0  0.15950  0.84780  0.52620  1.0000 0.5189917375
C   C162      1.0  0.22690  0.87540  0.49460  1.0000 -0.0413257103
C   C163      1.0  0.19450  0.90850  0.44510  1.0000 -0.0795943102
C   C164      1.0  0.25350  0.93480  0.41390  1.0000 -0.1812289038
C   C165      1.0  0.34580  0.92760  0.42970  1.0000 0.169702161
C   C166      1.0  0.37990  0.89570  0.47840  1.0000 -0.1686893259
C   C167      1.0  0.31990  0.86940  0.51100  1.0000 -0.0695839312
C   C168      1.0  0.41790  0.00960  0.39440  1.0000 0.2131776874
C   C169      1.0  0.47010  0.03500  0.35480  1.0000 -0.2004883859
C   C170      1.0  0.48340  0.09020  0.35630  1.0000 -0.0795943102
C   C171      1.0  0.44290  0.12430  0.39530  1.0000 -0.0413257103
C   C172      1.0  0.38800  0.10010  0.43320  1.0000 -0.0965701278
C   C173      1.0  0.37690  0.04430  0.43390  1.0000 -0.2079986344
C   C174      1.0  0.45820  0.18450  0.39660  1.0000 0.539426134
C   C175      1.0  0.46220  0.91690  0.36420  1.0000 0.1498134498
C   C176      1.0  0.55610  0.91500  0.37860  1.0000 -0.1812289038
C   C177      1.0  0.60530  0.87900  0.34560  1.0000 -0.1051434662
C   C178      1.0  0.56480  0.84800  0.30030  1.0000 -0.0089626705
C   C179      1.0  0.47120  0.84800  0.28760  1.0000 -0.1812289038
C   C180      1.0  0.42200  0.88410  0.32110  1.0000 -0.1686893259
C   C181      1.0  0.62070  0.81240  0.26380  1.0000 0.539426134
C   C182      1.0  0.72760  0.15161  0.81530  1.0000 0.0881533733
C   C183      1.0  0.71250  0.09595  0.80560  1.0000 -0.1885912561
C   C184      1.0  0.76900  0.06764  0.77113  1.0000 0.0600938066
C   C185      1.0  0.83680  0.09652  0.74710  1.0000 -0.1812289038
C   C186      1.0  0.84500  0.15252  0.75800  1.0000 0.0845633343
C   C187      1.0  0.75460  0.00800  0.75828  1.0000 0.35731542
C   C188      1.0  0.67710  0.93021  0.76960  1.0000 0.369060031
C   C189      1.0  0.79190  0.93019  0.71359  1.0000 0.369060031
C   C190      1.0  0.60140  0.89930  0.79060  1.0000 0.0600938066
C   C191      1.0  0.53660  0.92410  0.82010  1.0000 -0.1686893259
C   C192      1.0  0.46420  0.89250  0.83400  1.0000 0.0881533733
C   C193      1.0  0.51670  0.81670  0.79110  1.0000 0.0746400047
C   C194      1.0  0.59170  0.84420  0.77700  1.0000 -0.1616864383
C   C195      1.0  0.98780  0.88340  0.63580  1.0000 0.0845633343
C   C196      1.0  0.93400  0.91750  0.66667  1.0000 -0.1686893259
C   C197      1.0  0.85120  0.89801  0.67820  1.0000 0.0600938066
C   C198      1.0  0.82250  0.84660  0.65820  1.0000 -0.1686893259
C   C199      1.0  0.87890  0.81580  0.62640  1.0000 0.1134797766
C   C200      1.0  0.88820  0.26100  0.06380  1.0000 -0.3487422179
C   C201      1.0  0.00070  0.23720  0.99360  1.0000 -0.337317885
C   C202      1.0  0.89680  0.75300  0.45710  1.0000 0.5189917375
C   C203      1.0  0.73920  0.77230  0.46180  1.0000 -0.3282374601
C   C204      1.0  0.78520  0.72520  0.37170  1.0000 -0.3598128717
C   C205      1.0  0.65700  0.74520  0.04290  1.0000 0.5189917375
C   C206      1.0  0.79720  0.82866  0.14978  1.0000 0.5485744614
C   C207      1.0  0.05580  0.09394  0.16642  1.0000 -0.0795943102
C   C208      1.0  0.84890  0.91859  0.11256  1.0000 -0.0882942408
C   C209      1.0  0.75460  0.75410  0.03060  1.0000 -0.5772708261
C   C210      1.0  0.91540  0.95259  0.09592  1.0000 -0.2004883859
C   C211      1.0  0.52890  0.23140  0.57480  1.0000 -0.5976005654
C   C212      1.0  0.00360  0.93319  0.09702  1.0000 0.169702161
C   C213      1.0  0.02440  0.87970  0.11570  1.0000 -0.1812289038
C   C214      1.0  0.95800  0.84605  0.13360  1.0000 -0.0795943102
C   C215      1.0  0.86970  0.86536  0.13198  1.0000 -0.0236759252
C   C216      1.0  0.13330  0.94250  0.04250  1.0000 0.1832668696
C   C217      1.0  0.22670  0.94681  0.05600  1.0000 -0.1885912561
C   C218      1.0  0.28220  0.91988  0.02000  1.0000 -0.0882942408
C   C219      1.0  0.24570  0.88974  0.97090  1.0000 -0.0266078032
C   C220      1.0  0.15240  0.88607  0.95640  1.0000 -0.0795943102
C   C221      1.0  0.09610  0.91171  0.99260  1.0000 -0.1885912561
C   C222      1.0  0.08640  0.02126  0.09929  1.0000 0.2012536291
C   C223      1.0  0.04980  0.03930  0.15037  1.0000 -0.2004883859
C   C224      1.0  0.10090  0.13200  0.13460  1.0000 -0.0413257103
C   C225      1.0  0.14100  0.11343  0.08530  1.0000 -0.0795943102
C   C226      1.0  0.13360  0.05908  0.06763  1.0000 -0.2004883859
C   C227      1.0  0.10470  0.19074  0.15320  1.0000 0.539426134
C   C228      1.0  0.30640  0.85960  0.93280  1.0000 0.539426134
C   C229      1.0  0.34050  0.34780  0.47380  1.0000 0.5189917375
C   C230      1.0  0.27310  0.37540  0.50540  1.0000 -0.0413257103
C   C231      1.0  0.30550  0.40850  0.55490  1.0000 -0.0795943102
C   C232      1.0  0.24650  0.43480  0.58610  1.0000 -0.1812289038
C   C233      1.0  0.15420  0.42760  0.57030  1.0000 0.169702161
C   C234      1.0  0.12010  0.39570  0.52160  1.0000 -0.1686893259
C   C235      1.0  0.18010  0.36940  0.48900  1.0000 -0.0695839312
C   C236      1.0  0.08210  0.50960  0.60560  1.0000 0.2131776874
C   C237      1.0  0.02990  0.53500  0.64520  1.0000 -0.2004883859
C   C238      1.0  0.01660  0.59020  0.64370  1.0000 -0.0795943102
C   C239      1.0  0.05710  0.62430  0.60470  1.0000 -0.0413257103
C   C240      1.0  0.11200  0.60010  0.56680  1.0000 -0.0965701278
C   C241      1.0  0.12310  0.54430  0.56610  1.0000 -0.2079986344
C   C242      1.0  0.04180  0.68450  0.60340  1.0000 0.539426134
C   C243      1.0  0.03780  0.41690  0.63580  1.0000 0.1498134498
C   C244      1.0  0.94390  0.41500  0.62140  1.0000 -0.1812289038
C   C245      1.0  0.89470  0.37900  0.65440  1.0000 -0.1051434662
C   C246      1.0  0.93520  0.34800  0.69970  1.0000 -0.0089626705
C   C247      1.0  0.02880  0.34800  0.71240  1.0000 -0.1812289038
C   C248      1.0  0.07800  0.38410  0.67890  1.0000 -0.1686893259
C   C249      1.0  0.87930  0.31240  0.73620  1.0000 0.539426134
C   C250      1.0  0.77240  0.65161  0.18470  1.0000 0.0881533733
C   C251      1.0  0.78750  0.59595  0.19440  1.0000 -0.1885912561
C   C252      1.0  0.73100  0.56764  0.22887  1.0000 0.0600938066
C   C253      1.0  0.66320  0.59652  0.25290  1.0000 -0.1812289038
C   C254      1.0  0.65500  0.65252  0.24200  1.0000 0.0845633343
C   C255      1.0  0.74540  0.50800  0.24172  1.0000 0.35731542
C   C256      1.0  0.82290  0.43021  0.23040  1.0000 0.369060031
C   C257      1.0  0.70810  0.43019  0.28641  1.0000 0.369060031
C   C258      1.0  0.89860  0.39930  0.20940  1.0000 0.0600938066
C   C259      1.0  0.96340  0.42410  0.17990  1.0000 -0.1686893259
C   C260      1.0  0.03580  0.39250  0.16600  1.0000 0.0881533733
C   C261      1.0  0.98330  0.31670  0.20890  1.0000 0.0746400047
C   C262      1.0  0.90830  0.34420  0.22300  1.0000 -0.1616864383
C   C263      1.0  0.51220  0.38340  0.36420  1.0000 0.0845633343
C   C264      1.0  0.56600  0.41750  0.33340  1.0000 -0.1686893259
C   C265      1.0  0.64880  0.39801  0.32180  1.0000 0.0600938066
C   C266      1.0  0.67750  0.34660  0.34180  1.0000 -0.1686893259
C   C267      1.0  0.62110  0.31580  0.37360  1.0000 0.1134797766
C   C268      1.0  0.61180  0.76100  0.93620  1.0000 -0.3487422179
C   C269      1.0  0.49930  0.73720  0.00640  1.0000 -0.337317885
C   C270      1.0  0.60320  0.25300  0.54290  1.0000 0.5189917375
C   C271      1.0  0.76080  0.27230  0.53820  1.0000 -0.3282374601
C   C272      1.0  0.71480  0.22520  0.62830  1.0000 -0.3598128717
N   N1        1.0  0.20850  0.81992  0.20840  1.0000 -0.2391978364
N   N2        1.0  0.31130  0.01668  0.21615  1.0000 -0.4214342098
N   N3        1.0  0.27290  0.09812  0.26470  1.0000 -0.40525739
N   N4        1.0  0.19200  0.01623  0.27743  1.0000 -0.4214342098
N   N5        1.0  0.54660  0.16017  0.18050  1.0000 -0.249791776
N   N6        1.0  0.04040  0.16660  0.38420  1.0000 -0.2216463286
N   N7        1.0  0.57440  0.53304  0.07995  1.0000 -0.1616864383
N   N8        1.0  0.59260  0.04680  0.60510  1.0000 -0.1686893259
N   N9        1.0  0.18870  0.24820  0.56920  1.0000 -0.0022830832
N   N10       1.0  0.09380  0.75239  0.99740  1.0000 -0.0022830832
N   N11       1.0  0.29150  0.31992  0.79160  1.0000 -0.2391978364
N   N12       1.0  0.18870  0.51668  0.78385  1.0000 -0.4214342098
N   N13       1.0  0.22710  0.59812  0.73530  1.0000 -0.40525739
N   N14       1.0  0.30800  0.51623  0.72257  1.0000 -0.4214342098
N   N15       1.0  0.95340  0.66017  0.81950  1.0000 -0.249791776
N   N16       1.0  0.45960  0.66667  0.61580  1.0000 -0.2216463286
N   N17       1.0  0.92560  0.03304  0.92005  1.0000 -0.1616864383
N   N18       1.0  0.90740  0.54680  0.39490  1.0000 -0.1686893259
N   N19       1.0  0.31130  0.74820  0.43080  1.0000 -0.0022830832
N   N20       1.0  0.40620  0.25239  0.00260  1.0000 -0.0022830832
N   N21       1.0  0.79150  0.18008  0.79160  1.0000 -0.2391978364
N   N22       1.0  0.68870  0.98332  0.78385  1.0000 -0.4214342098
N   N23       1.0  0.72710  0.90188  0.73530  1.0000 -0.40525739
N   N24       1.0  0.80800  0.98377  0.72257  1.0000 -0.4214342098
N   N25       1.0  0.45340  0.83983  0.81950  1.0000 -0.249791776
N   N26       1.0  0.95960  0.83340  0.61580  1.0000 -0.2216463286
N   N27       1.0  0.42560  0.46696  0.92005  1.0000 -0.1616864383
N   N28       1.0  0.40740  0.95320  0.39490  1.0000 -0.1686893259
N   N29       1.0  0.81130  0.75180  0.43080  1.0000 -0.0022830832
N   N30       1.0  0.90620  0.24761  0.00260  1.0000 -0.0022830832
N   N31       1.0  0.70850  0.68008  0.20840  1.0000 -0.2391978364
N   N32       1.0  0.81130  0.48332  0.21615  1.0000 -0.4214342098
N   N33       1.0  0.77290  0.40188  0.26470  1.0000 -0.40525739
N   N34       1.0  0.69200  0.48377  0.27743  1.0000 -0.4214342098
N   N35       1.0  0.04660  0.33983  0.18050  1.0000 -0.249791776
N   N36       1.0  0.54040  0.33340  0.38420  1.0000 -0.2216463286
N   N37       1.0  0.07440  0.96696  0.07995  1.0000 -0.1616864383
N   N38       1.0  0.09260  0.45320  0.60510  1.0000 -0.1686893259
N   N39       1.0  0.68870  0.25180  0.56920  1.0000 -0.0022830832
N   N40       1.0  0.59380  0.74761  0.99740  1.0000 -0.0022830832
O   O1        1.0  0.31990  0.71836  0.17301  1.0000 -0.5772708261
O   O2        1.0  0.21640  0.65667  0.14140  1.0000 -0.5094016106
O   O3        1.0  0.56460  0.29349  0.19469  1.0000 -0.5607936989
O   O4        1.0  0.64960  0.27672  0.12330  1.0000 -0.5511433344
O   O5        1.0  0.88790  0.64528  0.95070  1.0000 -0.5511433344
O   O6        1.0  0.76690  0.65983  0.88290  1.0000 -0.5607936989
O   O7        1.0  0.48780  0.79530  0.63480  1.0000 -0.5511433344
O   O8        1.0  0.58110  0.78630  0.56690  1.0000 -0.5511433344
O   O9        1.0  0.91800  0.16350  0.50000  1.0000 -0.5094016106
O   O10       1.0  0.82190  0.16560  0.42200  1.0000 -0.5094016106
O   O11       1.0  0.41840  0.21620  0.77840  1.0000 -0.5277151253
O   O12       1.0  0.29580  0.18660  0.72580  1.0000 -0.5277151253
O   O13       1.0  0.13770  0.76483  0.09549  1.0000 -0.5689280133
O   O14       1.0  0.08650  0.22681  0.49124  1.0000 -0.5367332559
O   O15       1.0  0.73710  0.21411  0.23710  1.0000 -0.6479458522
O   O16       1.0  0.18010  0.21836  0.82699  1.0000 -0.5689280133
O   O17       1.0  0.28360  0.15667  0.85860  1.0000 -0.5094016106
O   O18       1.0  0.93540  0.79349  0.80531  1.0000 -0.5607936989
O   O19       1.0  0.85040  0.77672  0.87670  1.0000 -0.5511433344
O   O20       1.0  0.61210  0.14528  0.04930  1.0000 -0.5511433344
O   O21       1.0  0.73310  0.15983  0.11710  1.0000 -0.5607936989
O   O22       1.0  0.01220  0.29530  0.36520  1.0000 -0.5511433344
O   O23       1.0  0.91890  0.28630  0.43310  1.0000 -0.5511433344
O   O24       1.0  0.58200  0.66350  0.50000  1.0000 -0.5094016106
O   O25       1.0  0.67810  0.66560  0.57800  1.0000 -0.5094016106
O   O26       1.0  0.08160  0.71620  0.22160  1.0000 -0.5277151253
O   O27       1.0  0.20420  0.68660  0.27420  1.0000 -0.5277151253
O   O28       1.0  0.36230  0.26483  0.90451  1.0000 -0.5689280133
O   O29       1.0  0.41350  0.72681  0.50876  1.0000 -0.5367332559
O   O30       1.0  0.76290  0.71411  0.76290  1.0000 -0.6479458522
O   O31       1.0  0.68010  0.28164  0.82699  1.0000 -0.5772708261
O   O32       1.0  0.78360  0.34333  0.85860  1.0000 -0.5094016106
O   O33       1.0  0.43540  0.70651  0.80531  1.0000 -0.5607936989
O   O34       1.0  0.35040  0.72328  0.87670  1.0000 -0.5511433344
O   O35       1.0  0.11210  0.35472  0.04930  1.0000 -0.5511433344
O   O36       1.0  0.23310  0.34017  0.11710  1.0000 -0.5607936989
O   O37       1.0  0.51220  0.20470  0.36520  1.0000 -0.5511433344
O   O38       1.0  0.41890  0.21370  0.43310  1.0000 -0.5511433344
O   O39       1.0  0.08200  0.83650  0.50000  1.0000 -0.5094016106
O   O40       1.0  0.17810  0.83440  0.57800  1.0000 -0.5094016106
O   O41       1.0  0.58160  0.78380  0.22160  1.0000 -0.5277151253
O   O42       1.0  0.70420  0.81340  0.27420  1.0000 -0.5277151253
O   O43       1.0  0.86230  0.23517  0.90451  1.0000 -0.5689280133
O   O44       1.0  0.91350  0.77319  0.50876  1.0000 -0.5367332559
O   O45       1.0  0.26290  0.78589  0.76290  1.0000 -0.6479458522
O   O46       1.0  0.81990  0.78164  0.17301  1.0000 -0.5772708261
O   O47       1.0  0.71640  0.84333  0.14140  1.0000 -0.5094016106
O   O48       1.0  0.06460  0.20651  0.19469  1.0000 -0.5607936989
O   O49       1.0  0.14960  0.22328  0.12330  1.0000 -0.5511433344
O   O50       1.0  0.38790  0.85472  0.95070  1.0000 -0.5511433344
O   O51       1.0  0.26690  0.84017  0.88290  1.0000 -0.5607936989
O   O52       1.0  0.98780  0.70470  0.63480  1.0000 -0.5511433344
O   O53       1.0  0.08110  0.71370  0.56690  1.0000 -0.5511433344
O   O54       1.0  0.41800  0.33650  0.50000  1.0000 -0.5094016106
O   O55       1.0  0.32190  0.33440  0.42200  1.0000 -0.5094016106
O   O56       1.0  0.91840  0.28380  0.77840  1.0000 -0.5277151253
O   O57       1.0  0.79580  0.31340  0.72580  1.0000 -0.5277151253
O   O58       1.0  0.63770  0.73517  0.09549  1.0000 -0.5689280133
O   O59       1.0  0.58650  0.27319  0.49124  1.0000 -0.5367332559
O   O60       1.0  0.23710  0.28589  0.23710  1.0000 -0.6479458522
