# DDEC6 charges by PACMAN v1.1 (https://github.com/mtap-research/PACMAN-charge/)
data_2020[Gd][esg]3[FSR]1
_chemical_formula_sum              "Gd4 H92 C116 O32"
_cell_length_a       17.4381
_cell_length_b       17.4381
_cell_length_c       19.3505
_cell_angle_alpha    83.206
_cell_angle_beta     96.794
_cell_angle_gamma    131.808

_symmetry_space_group_name_H-M    "P 1"
_symmetry_Int_Tables_number       1

loop_
  _symmetry_equiv_pos_as_xyz
  'x, y, z'

loop_
  _atom_site_type_symbol
  _atom_site_label
  _atom_site_symmetry_multiplicity
  _atom_site_fract_x
  _atom_site_fract_y
  _atom_site_fract_z
  _atom_site_occupancy
  _atom_site_charge
Gd  Gd1       1.0  0.61082  0.49714  0.49006  1.0000 1.9183356423
Gd  Gd2       1.0  0.49714  0.61082  0.00994  1.0000 1.9183356423
Gd  Gd3       1.0  0.38918  0.50286  0.50994  1.0000 1.9183356423
Gd  Gd4       1.0  0.50286  0.38918  0.99006  1.0000 1.9183356423
H   H1        1.0  0.82430  0.64170  0.50100  1.0000 0.3630357344
H   H2        1.0  0.55509  0.41723  0.39640  1.0000 0.3016329665
H   H3        1.0  0.45482  0.21824  0.63620  1.0000 0.127344339
H   H4        1.0  0.36788  0.06762  0.70314  1.0000 0.1178154383
H   H5        1.0  0.17346  0.09730  0.74999  1.0000 0.1025391776
H   H6        1.0  0.25645  0.24435  0.67735  1.0000 0.1178154383
H   H7        1.0  0.31343  0.95931  0.79277  1.0000 0.1111742955
H   H8        1.0  0.06345  0.73403  0.89958  1.0000 0.1111742955
H   H9        1.0  0.06925  0.93813  0.77522  1.0000 0.1111742955
H   H10       1.0  0.32021  0.83157  0.79100  1.0000 0.1111742955
H   H11       1.0  0.39917  0.76787  0.83398  1.0000 0.127344339
H   H12       1.0  0.26363  0.68109  0.01431  1.0000 0.127344339
H   H13       1.0  0.18758  0.74754  0.97263  1.0000 0.1111742955
H   H14       1.0  0.89363  0.63831  0.88980  1.0000 0.1178154383
H   H15       1.0  0.73539  0.56741  0.92622  1.0000 0.1178154383
H   H16       1.0  0.80711  0.83859  0.88144  1.0000 0.127344339
H   H17       1.0  0.96558  0.90992  0.84791  1.0000 0.1111742955
H   H18       1.0  0.90488  0.66574  0.40217  1.0000 0.1111742955
H   H19       1.0  0.79742  0.59714  0.36112  1.0000 0.127344339
H   H20       1.0  0.84937  0.70831  0.37988  1.0000 0.1111742955
H   H21       1.0  0.56333  0.52831  0.31407  1.0000 0.1111742955
H   H22       1.0  0.61124  0.49960  0.27118  1.0000 0.1178154383
H   H23       1.0  0.49798  0.41404  0.29470  1.0000 0.1111742955
H   H24       1.0  0.64170  0.82430  0.99900  1.0000 0.3630357344
H   H25       1.0  0.41723  0.55509  0.10360  1.0000 0.3016329665
H   H26       1.0  0.21824  0.45482  0.86380  1.0000 0.127344339
H   H27       1.0  0.06762  0.36788  0.79686  1.0000 0.1178154383
H   H28       1.0  0.09730  0.17346  0.75001  1.0000 0.1025391776
H   H29       1.0  0.24435  0.25645  0.82265  1.0000 0.1178154383
H   H30       1.0  0.95931  0.31343  0.70723  1.0000 0.1111742955
H   H31       1.0  0.73403  0.06345  0.60042  1.0000 0.1111742955
H   H32       1.0  0.93813  0.06925  0.72478  1.0000 0.1111742955
H   H33       1.0  0.83157  0.32021  0.70900  1.0000 0.1111742955
H   H34       1.0  0.76787  0.39917  0.66602  1.0000 0.127344339
H   H35       1.0  0.68109  0.26363  0.48569  1.0000 0.127344339
H   H36       1.0  0.74754  0.18758  0.52737  1.0000 0.1111742955
H   H37       1.0  0.63831  0.89363  0.61020  1.0000 0.1178154383
H   H38       1.0  0.56741  0.73539  0.57378  1.0000 0.1178154383
H   H39       1.0  0.83859  0.80711  0.61856  1.0000 0.127344339
H   H40       1.0  0.90992  0.96558  0.65209  1.0000 0.1111742955
H   H41       1.0  0.66574  0.90488  0.09783  1.0000 0.1111742955
H   H42       1.0  0.59714  0.79742  0.13888  1.0000 0.127344339
H   H43       1.0  0.70831  0.84937  0.12012  1.0000 0.1111742955
H   H44       1.0  0.52831  0.56333  0.18593  1.0000 0.1111742955
H   H45       1.0  0.49960  0.61124  0.22882  1.0000 0.1178154383
H   H46       1.0  0.41404  0.49798  0.20530  1.0000 0.1111742955
H   H47       1.0  0.17570  0.35830  0.49900  1.0000 0.3630357344
H   H48       1.0  0.44491  0.58277  0.60360  1.0000 0.3016329665
H   H49       1.0  0.54518  0.78176  0.36380  1.0000 0.127344339
H   H50       1.0  0.63212  0.93238  0.29686  1.0000 0.1178154383
H   H51       1.0  0.82654  0.90270  0.25001  1.0000 0.1025391776
H   H52       1.0  0.74355  0.75565  0.32265  1.0000 0.1178154383
H   H53       1.0  0.68657  0.04069  0.20723  1.0000 0.1111742955
H   H54       1.0  0.93655  0.26597  0.10042  1.0000 0.1111742955
H   H55       1.0  0.93075  0.06187  0.22478  1.0000 0.1111742955
H   H56       1.0  0.67979  0.16843  0.20900  1.0000 0.1111742955
H   H57       1.0  0.60083  0.23213  0.16602  1.0000 0.127344339
H   H58       1.0  0.73637  0.31891  0.98569  1.0000 0.127344339
H   H59       1.0  0.81242  0.25246  0.02737  1.0000 0.1111742955
H   H60       1.0  0.10637  0.36169  0.11020  1.0000 0.1178154383
H   H61       1.0  0.26461  0.43259  0.07378  1.0000 0.1178154383
H   H62       1.0  0.19289  0.16141  0.11856  1.0000 0.127344339
H   H63       1.0  0.03442  0.09008  0.15209  1.0000 0.1111742955
H   H64       1.0  0.09512  0.33426  0.59783  1.0000 0.1111742955
H   H65       1.0  0.20258  0.40286  0.63888  1.0000 0.127344339
H   H66       1.0  0.15063  0.29169  0.62012  1.0000 0.1111742955
H   H67       1.0  0.43667  0.47169  0.68593  1.0000 0.1111742955
H   H68       1.0  0.38876  0.50040  0.72882  1.0000 0.1178154383
H   H69       1.0  0.50202  0.58596  0.70530  1.0000 0.1111742955
H   H70       1.0  0.35830  0.17570  0.00100  1.0000 0.3630357344
H   H71       1.0  0.58277  0.44491  0.89640  1.0000 0.3016329665
H   H72       1.0  0.78176  0.54518  0.13620  1.0000 0.127344339
H   H73       1.0  0.93238  0.63212  0.20314  1.0000 0.1178154383
H   H74       1.0  0.90270  0.82654  0.24999  1.0000 0.1025391776
H   H75       1.0  0.75565  0.74355  0.17735  1.0000 0.1178154383
H   H76       1.0  0.04069  0.68657  0.29277  1.0000 0.1111742955
H   H77       1.0  0.26597  0.93655  0.39958  1.0000 0.1111742955
H   H78       1.0  0.06187  0.93075  0.27522  1.0000 0.1111742955
H   H79       1.0  0.16843  0.67979  0.29100  1.0000 0.1111742955
H   H80       1.0  0.23213  0.60083  0.33398  1.0000 0.127344339
H   H81       1.0  0.31891  0.73637  0.51431  1.0000 0.127344339
H   H82       1.0  0.25246  0.81242  0.47263  1.0000 0.1111742955
H   H83       1.0  0.36169  0.10637  0.38980  1.0000 0.1178154383
H   H84       1.0  0.43259  0.26461  0.42622  1.0000 0.1178154383
H   H85       1.0  0.16141  0.19289  0.38144  1.0000 0.127344339
H   H86       1.0  0.09008  0.03442  0.34791  1.0000 0.1111742955
H   H87       1.0  0.33426  0.09512  0.90217  1.0000 0.1111742955
H   H88       1.0  0.40286  0.20258  0.86112  1.0000 0.127344339
H   H89       1.0  0.29169  0.15063  0.87988  1.0000 0.1111742955
H   H90       1.0  0.47169  0.43667  0.81407  1.0000 0.1111742955
H   H91       1.0  0.50040  0.38876  0.77118  1.0000 0.1178154383
H   H92       1.0  0.58596  0.50202  0.79470  1.0000 0.1111742955
C   C1        1.0  0.41420  0.33940  0.59880  1.0000 0.6266674954
C   C2        1.0  0.36092  0.24368  0.64570  1.0000 -0.0310700813
C   C3        1.0  0.39542  0.19218  0.65670  1.0000 -0.09965183
C   C4        1.0  0.34367  0.10213  0.69770  1.0000 -0.1519571835
C   C5        1.0  0.25723  0.06177  0.73100  1.0000 0.0708197581
C   C6        1.0  0.22781  0.11879  0.72500  1.0000 -0.1742919129
C   C7        1.0  0.27872  0.20808  0.68180  1.0000 -0.1069727357
C   C8        1.0  0.20112  0.96528  0.77670  1.0000 0.0804613347
C   C9        1.0  0.24710  0.92630  0.80450  1.0000 -0.2005952824
C   C10       1.0  0.19572  0.83868  0.84950  1.0000 0.0804613347
C   C11       1.0  0.09735  0.79125  0.86840  1.0000 -0.2005952824
C   C12       1.0  0.04910  0.82850  0.84130  1.0000 0.0804613347
C   C13       1.0  0.10166  0.91414  0.79480  1.0000 -0.2068803761
C   C14       1.0  0.24518  0.79682  0.87730  1.0000 0.0708197581
C   C15       1.0  0.30888  0.80192  0.83610  1.0000 -0.1591644179
C   C16       1.0  0.35607  0.76313  0.86180  1.0000 -0.0924494158
C   C17       1.0  0.33923  0.71777  0.92800  1.0000 -0.0310700813
C   C18       1.0  0.27560  0.71180  0.96950  1.0000 -0.0924494158
C   C19       1.0  0.22961  0.75139  0.94420  1.0000 -0.1519571835
C   C20       1.0  0.39288  0.67952  0.95590  1.0000 0.5686119754
C   C21       1.0  0.94620  0.78160  0.86310  1.0000 0.0708197581
C   C22       1.0  0.87617  0.67863  0.88780  1.0000 -0.1383368265
C   C23       1.0  0.78073  0.63567  0.90920  1.0000 -0.09965183
C   C24       1.0  0.75302  0.69438  0.90530  1.0000 -0.0310700813
C   C25       1.0  0.82408  0.79792  0.88270  1.0000 -0.09965183
C   C26       1.0  0.91899  0.84061  0.86240  1.0000 -0.1519571835
C   C27       1.0  0.65408  0.65352  0.93060  1.0000 0.6182553131
C   C28       1.0  0.83930  0.64790  0.39550  1.0000 -0.1519571835
C   C29       1.0  0.56590  0.47630  0.30750  1.0000 -0.1802370812
C   C30       1.0  0.33940  0.41420  0.90120  1.0000 0.6266674954
C   C31       1.0  0.24368  0.36092  0.85430  1.0000 -0.0310700813
C   C32       1.0  0.19218  0.39542  0.84330  1.0000 -0.09965183
C   C33       1.0  0.10213  0.34367  0.80230  1.0000 -0.1519571835
C   C34       1.0  0.06177  0.25723  0.76900  1.0000 0.0708197581
C   C35       1.0  0.11879  0.22781  0.77500  1.0000 -0.1742919129
C   C36       1.0  0.20808  0.27872  0.81820  1.0000 -0.1069727357
C   C37       1.0  0.96528  0.20112  0.72330  1.0000 0.0804613347
C   C38       1.0  0.92630  0.24710  0.69550  1.0000 -0.2005952824
C   C39       1.0  0.83868  0.19572  0.65050  1.0000 0.0804613347
C   C40       1.0  0.79125  0.09735  0.63160  1.0000 -0.2005952824
C   C41       1.0  0.82850  0.04910  0.65870  1.0000 0.0804613347
C   C42       1.0  0.91414  0.10166  0.70520  1.0000 -0.2068803761
C   C43       1.0  0.79682  0.24518  0.62270  1.0000 0.0708197581
C   C44       1.0  0.80192  0.30888  0.66390  1.0000 -0.1591644179
C   C45       1.0  0.76313  0.35607  0.63820  1.0000 -0.0924494158
C   C46       1.0  0.71777  0.33923  0.57200  1.0000 -0.0310700813
C   C47       1.0  0.71180  0.27560  0.53050  1.0000 -0.0924494158
C   C48       1.0  0.75139  0.22961  0.55580  1.0000 -0.1519571835
C   C49       1.0  0.67952  0.39288  0.54410  1.0000 0.5686119754
C   C50       1.0  0.78160  0.94620  0.63690  1.0000 0.0708197581
C   C51       1.0  0.67863  0.87617  0.61220  1.0000 -0.1383368265
C   C52       1.0  0.63567  0.78073  0.59080  1.0000 -0.09965183
C   C53       1.0  0.69438  0.75302  0.59470  1.0000 -0.0310700813
C   C54       1.0  0.79792  0.82408  0.61730  1.0000 -0.09965183
C   C55       1.0  0.84061  0.91899  0.63760  1.0000 -0.1519571835
C   C56       1.0  0.65352  0.65408  0.56940  1.0000 0.6182553131
C   C57       1.0  0.64790  0.83930  0.10450  1.0000 -0.1519571835
C   C58       1.0  0.47630  0.56590  0.19250  1.0000 -0.1802370812
C   C59       1.0  0.58580  0.66060  0.40120  1.0000 0.6266674954
C   C60       1.0  0.63908  0.75632  0.35430  1.0000 -0.0310700813
C   C61       1.0  0.60458  0.80782  0.34330  1.0000 -0.09965183
C   C62       1.0  0.65633  0.89787  0.30230  1.0000 -0.1519571835
C   C63       1.0  0.74277  0.93823  0.26900  1.0000 0.0708197581
C   C64       1.0  0.77219  0.88121  0.27500  1.0000 -0.1742919129
C   C65       1.0  0.72128  0.79192  0.31820  1.0000 -0.1069727357
C   C66       1.0  0.79888  0.03472  0.22330  1.0000 0.0804613347
C   C67       1.0  0.75290  0.07370  0.19550  1.0000 -0.2005952824
C   C68       1.0  0.80428  0.16132  0.15050  1.0000 0.0804613347
C   C69       1.0  0.90265  0.20875  0.13160  1.0000 -0.2005952824
C   C70       1.0  0.95090  0.17150  0.15870  1.0000 0.0804613347
C   C71       1.0  0.89834  0.08586  0.20520  1.0000 -0.2068803761
C   C72       1.0  0.75482  0.20318  0.12270  1.0000 0.0708197581
C   C73       1.0  0.69112  0.19808  0.16390  1.0000 -0.1591644179
C   C74       1.0  0.64393  0.23687  0.13820  1.0000 -0.0924494158
C   C75       1.0  0.66077  0.28223  0.07200  1.0000 -0.0310700813
C   C76       1.0  0.72440  0.28820  0.03050  1.0000 -0.0924494158
C   C77       1.0  0.77039  0.24861  0.05580  1.0000 -0.1519571835
C   C78       1.0  0.60712  0.32048  0.04410  1.0000 0.5686119754
C   C79       1.0  0.05380  0.21840  0.13690  1.0000 0.0708197581
C   C80       1.0  0.12383  0.32137  0.11220  1.0000 -0.1383368265
C   C81       1.0  0.21927  0.36433  0.09080  1.0000 -0.09965183
C   C82       1.0  0.24698  0.30562  0.09470  1.0000 -0.0310700813
C   C83       1.0  0.17592  0.20208  0.11730  1.0000 -0.09965183
C   C84       1.0  0.08101  0.15939  0.13760  1.0000 -0.1519571835
C   C85       1.0  0.34592  0.34648  0.06940  1.0000 0.6182553131
C   C86       1.0  0.16070  0.35210  0.60450  1.0000 -0.1519571835
C   C87       1.0  0.43410  0.52370  0.69250  1.0000 -0.1802370812
C   C88       1.0  0.66060  0.58580  0.09880  1.0000 0.6266674954
C   C89       1.0  0.75632  0.63908  0.14570  1.0000 -0.0310700813
C   C90       1.0  0.80782  0.60458  0.15670  1.0000 -0.09965183
C   C91       1.0  0.89787  0.65633  0.19770  1.0000 -0.1519571835
C   C92       1.0  0.93823  0.74277  0.23100  1.0000 0.0708197581
C   C93       1.0  0.88121  0.77219  0.22500  1.0000 -0.1742919129
C   C94       1.0  0.79192  0.72128  0.18180  1.0000 -0.1069727357
C   C95       1.0  0.03472  0.79888  0.27670  1.0000 0.0804613347
C   C96       1.0  0.07370  0.75290  0.30450  1.0000 -0.2005952824
C   C97       1.0  0.16132  0.80428  0.34950  1.0000 0.0804613347
C   C98       1.0  0.20875  0.90265  0.36840  1.0000 -0.2005952824
C   C99       1.0  0.17150  0.95090  0.34130  1.0000 0.0804613347
C   C100      1.0  0.08586  0.89834  0.29480  1.0000 -0.2068803761
C   C101      1.0  0.20318  0.75482  0.37730  1.0000 0.0708197581
C   C102      1.0  0.19808  0.69112  0.33610  1.0000 -0.1591644179
C   C103      1.0  0.23687  0.64393  0.36180  1.0000 -0.0924494158
C   C104      1.0  0.28223  0.66077  0.42800  1.0000 -0.0310700813
C   C105      1.0  0.28820  0.72440  0.46950  1.0000 -0.0924494158
C   C106      1.0  0.24861  0.77039  0.44420  1.0000 -0.1519571835
C   C107      1.0  0.32048  0.60712  0.45590  1.0000 0.5686119754
C   C108      1.0  0.21840  0.05380  0.36310  1.0000 0.0708197581
C   C109      1.0  0.32137  0.12383  0.38780  1.0000 -0.1383368265
C   C110      1.0  0.36433  0.21927  0.40920  1.0000 -0.09965183
C   C111      1.0  0.30562  0.24698  0.40530  1.0000 -0.0310700813
C   C112      1.0  0.20208  0.17592  0.38270  1.0000 -0.09965183
C   C113      1.0  0.15939  0.08101  0.36240  1.0000 -0.1519571835
C   C114      1.0  0.34648  0.34592  0.43060  1.0000 0.6182553131
C   C115      1.0  0.35210  0.16070  0.89550  1.0000 -0.1519571835
C   C116      1.0  0.52370  0.43410  0.80750  1.0000 -0.1802370812
O   O1        1.0  0.49979  0.37921  0.57802  1.0000 -0.6199634116
O   O2        1.0  0.36927  0.37333  0.58380  1.0000 -0.6415519755
O   O3        1.0  0.46700  0.70600  0.92412  1.0000 -0.601893295
O   O4        1.0  0.36505  0.62315  0.01181  1.0000 -0.6456264298
O   O5        1.0  0.58526  0.55814  0.94808  1.0000 -0.7301943343
O   O6        1.0  0.63970  0.71410  0.93660  1.0000 -0.601893295
O   O7        1.0  0.79064  0.60836  0.45780  1.0000 -0.4486867342
O   O8        1.0  0.60258  0.45702  0.37032  1.0000 -0.4486867342
O   O9        1.0  0.37921  0.49979  0.92198  1.0000 -0.6199634116
O   O10       1.0  0.37333  0.36927  0.91620  1.0000 -0.6415519755
O   O11       1.0  0.70600  0.46700  0.57588  1.0000 -0.601893295
O   O12       1.0  0.62315  0.36505  0.48819  1.0000 -0.6456264298
O   O13       1.0  0.55814  0.58526  0.55192  1.0000 -0.7301943343
O   O14       1.0  0.71410  0.63970  0.56340  1.0000 -0.601893295
O   O15       1.0  0.60836  0.79064  0.04220  1.0000 -0.4486867342
O   O16       1.0  0.45702  0.60258  0.12968  1.0000 -0.4486867342
O   O17       1.0  0.50021  0.62079  0.42198  1.0000 -0.6199634116
O   O18       1.0  0.63073  0.62667  0.41620  1.0000 -0.6415519755
O   O19       1.0  0.53300  0.29400  0.07588  1.0000 -0.601893295
O   O20       1.0  0.63495  0.37685  0.98819  1.0000 -0.6456264298
O   O21       1.0  0.41474  0.44186  0.05192  1.0000 -0.7301943343
O   O22       1.0  0.36030  0.28590  0.06340  1.0000 -0.601893295
O   O23       1.0  0.20936  0.39164  0.54220  1.0000 -0.4486867342
O   O24       1.0  0.39742  0.54298  0.62968  1.0000 -0.4486867342
O   O25       1.0  0.62079  0.50021  0.07802  1.0000 -0.6199634116
O   O26       1.0  0.62667  0.63073  0.08380  1.0000 -0.6415519755
O   O27       1.0  0.29400  0.53300  0.42412  1.0000 -0.601893295
O   O28       1.0  0.37685  0.63495  0.51181  1.0000 -0.6456264298
O   O29       1.0  0.44186  0.41474  0.44808  1.0000 -0.7301943343
O   O30       1.0  0.28590  0.36030  0.43660  1.0000 -0.601893295
O   O31       1.0  0.39164  0.20936  0.95780  1.0000 -0.4486867342
O   O32       1.0  0.54298  0.39742  0.87032  1.0000 -0.4486867342
