# DDEC6 charges by PACMAN v1.1 (https://github.com/mtap-research/PACMAN-charge/)
data_2020[Cu][she]3[FSR]1
_chemical_formula_sum              "C832 N512 H576 Cu96"
_cell_length_a       37.0781
_cell_length_b       37.0781
_cell_length_c       37.0781
_cell_angle_alpha    90
_cell_angle_beta     90
_cell_angle_gamma    90

_symmetry_space_group_name_H-M    "P 1"
_symmetry_Int_Tables_number       1

loop_
  _symmetry_equiv_pos_as_xyz
  'x, y, z'

loop_
  _atom_site_type_symbol
  _atom_site_label
  _atom_site_symmetry_multiplicity
  _atom_site_fract_x
  _atom_site_fract_y
  _atom_site_fract_z
  _atom_site_occupancy
  _atom_site_charge
C   C1        1.0  0.33700  0.61620  0.33700  1.0000 0.1169649909
C   C2        1.0  0.32190  0.63120  0.36880  1.0000 -0.2328846238
C   C3        1.0  0.32200  0.58310  0.32200  1.0000 -0.050031422
N   N1        1.0  0.28380  0.53890  0.31610  1.0000 -0.132613975
N   N2        1.0  0.30900  0.53440  0.29130  1.0000 -0.132613975
N   N3        1.0  0.33170  0.56200  0.29400  1.0000 -0.0667765424
C   C4        1.0  0.29120  0.56720  0.33640  1.0000 -0.050031422
H   H1        1.0  0.30150  0.62140  0.38340  1.0000 0.1084946232
H   H2        1.0  0.27600  0.57700  0.35900  1.0000 0.0828368136
C   C5        1.0  0.43800  0.70600  0.33170  1.0000 -0.1199127901
H   H3        1.0  0.35000  0.57000  0.27500  1.0000 0.1024950919
C   C6        1.0  0.33700  0.11620  0.83700  1.0000 0.1169649909
C   C7        1.0  0.32190  0.13120  0.86880  1.0000 -0.2328846238
C   C8        1.0  0.32200  0.08310  0.82200  1.0000 -0.050031422
N   N4        1.0  0.28380  0.03890  0.81610  1.0000 -0.132613975
N   N5        1.0  0.30900  0.03440  0.79130  1.0000 -0.132613975
N   N6        1.0  0.33170  0.06200  0.79400  1.0000 -0.0667765424
C   C9        1.0  0.29120  0.06720  0.83640  1.0000 -0.050031422
H   H4        1.0  0.30150  0.12140  0.88340  1.0000 0.1084946232
H   H5        1.0  0.27600  0.07700  0.85900  1.0000 0.0828368136
C   C10       1.0  0.43800  0.20600  0.83170  1.0000 -0.1199127901
H   H6        1.0  0.35000  0.07000  0.77500  1.0000 0.1024950919
C   C11       1.0  0.83700  0.61620  0.83700  1.0000 0.1169649909
C   C12       1.0  0.82190  0.63120  0.86880  1.0000 -0.2328846238
C   C13       1.0  0.82200  0.58310  0.82200  1.0000 -0.050031422
N   N7        1.0  0.78380  0.53890  0.81610  1.0000 -0.132613975
N   N8        1.0  0.80900  0.53440  0.79130  1.0000 -0.132613975
N   N9        1.0  0.83170  0.56200  0.79400  1.0000 -0.0667765424
C   C14       1.0  0.79120  0.56720  0.83640  1.0000 -0.050031422
H   H7        1.0  0.80150  0.62140  0.88340  1.0000 0.1084946232
H   H8        1.0  0.77600  0.57700  0.85900  1.0000 0.0828368136
C   C15       1.0  0.93800  0.70600  0.83170  1.0000 -0.1199127901
H   H9        1.0  0.85000  0.57000  0.77500  1.0000 0.1024950919
C   C16       1.0  0.83700  0.11620  0.33700  1.0000 0.1169649909
C   C17       1.0  0.82190  0.13120  0.36880  1.0000 -0.2328846238
C   C18       1.0  0.82200  0.08310  0.32200  1.0000 -0.050031422
N   N10       1.0  0.78380  0.03890  0.31610  1.0000 -0.132613975
N   N11       1.0  0.80900  0.03440  0.29130  1.0000 -0.132613975
N   N12       1.0  0.83170  0.06200  0.29400  1.0000 -0.0667765424
C   C19       1.0  0.79120  0.06720  0.33640  1.0000 -0.050031422
H   H10       1.0  0.80150  0.12140  0.38340  1.0000 0.1084946232
H   H11       1.0  0.77600  0.07700  0.35900  1.0000 0.0828368136
C   C20       1.0  0.93800  0.20600  0.33170  1.0000 -0.1199127901
H   H12       1.0  0.85000  0.07000  0.27500  1.0000 0.1024950919
C   C21       1.0  0.66300  0.38380  0.33700  1.0000 0.1169649909
C   C22       1.0  0.67810  0.36880  0.36880  1.0000 -0.2328846238
C   C23       1.0  0.67800  0.41690  0.32200  1.0000 -0.050031422
N   N13       1.0  0.71620  0.46110  0.31610  1.0000 -0.132613975
N   N14       1.0  0.69100  0.46560  0.29130  1.0000 -0.132613975
N   N15       1.0  0.66830  0.43800  0.29400  1.0000 -0.0667765424
C   C24       1.0  0.70880  0.43280  0.33640  1.0000 -0.050031422
H   H13       1.0  0.69850  0.37860  0.38340  1.0000 0.1084946232
H   H14       1.0  0.72400  0.42300  0.35900  1.0000 0.0828368136
C   C25       1.0  0.56200  0.29400  0.33170  1.0000 -0.1199127901
H   H15       1.0  0.65000  0.43000  0.27500  1.0000 0.1024950919
C   C26       1.0  0.66300  0.88380  0.83700  1.0000 0.1169649909
C   C27       1.0  0.67810  0.86880  0.86880  1.0000 -0.2328846238
C   C28       1.0  0.67800  0.91690  0.82200  1.0000 -0.050031422
N   N16       1.0  0.71620  0.96110  0.81610  1.0000 -0.132613975
N   N17       1.0  0.69100  0.96560  0.79130  1.0000 -0.132613975
N   N18       1.0  0.66830  0.93800  0.79400  1.0000 -0.0667765424
C   C29       1.0  0.70880  0.93280  0.83640  1.0000 -0.050031422
H   H16       1.0  0.69850  0.87860  0.88340  1.0000 0.1084946232
H   H17       1.0  0.72400  0.92300  0.85900  1.0000 0.0828368136
C   C30       1.0  0.56200  0.79400  0.83170  1.0000 -0.1199127901
H   H18       1.0  0.65000  0.93000  0.77500  1.0000 0.1024950919
C   C31       1.0  0.16300  0.38380  0.83700  1.0000 0.1169649909
C   C32       1.0  0.17810  0.36880  0.86880  1.0000 -0.2328846238
C   C33       1.0  0.17800  0.41690  0.82200  1.0000 -0.050031422
N   N19       1.0  0.21620  0.46110  0.81610  1.0000 -0.132613975
N   N20       1.0  0.19100  0.46560  0.79130  1.0000 -0.132613975
N   N21       1.0  0.16830  0.43800  0.79400  1.0000 -0.0667765424
C   C34       1.0  0.20880  0.43280  0.83640  1.0000 -0.050031422
H   H19       1.0  0.19850  0.37860  0.88340  1.0000 0.1084946232
H   H20       1.0  0.22400  0.42300  0.85900  1.0000 0.0828368136
C   C35       1.0  0.06200  0.29400  0.83170  1.0000 -0.1199127901
H   H21       1.0  0.15000  0.43000  0.77500  1.0000 0.1024950919
C   C36       1.0  0.16300  0.88380  0.33700  1.0000 0.1169649909
C   C37       1.0  0.17810  0.86880  0.36880  1.0000 -0.2328846238
C   C38       1.0  0.17800  0.91690  0.32200  1.0000 -0.050031422
N   N22       1.0  0.21620  0.96110  0.31610  1.0000 -0.132613975
N   N23       1.0  0.19100  0.96560  0.29130  1.0000 -0.132613975
N   N24       1.0  0.16830  0.93800  0.29400  1.0000 -0.0667765424
C   C39       1.0  0.20880  0.93280  0.33640  1.0000 -0.050031422
H   H22       1.0  0.19850  0.87860  0.38340  1.0000 0.1084946232
H   H23       1.0  0.22400  0.92300  0.35900  1.0000 0.0828368136
C   C40       1.0  0.06200  0.79400  0.33170  1.0000 -0.1199127901
H   H24       1.0  0.15000  0.93000  0.27500  1.0000 0.1024950919
C   C41       1.0  0.66300  0.61620  0.66300  1.0000 0.1169649909
C   C42       1.0  0.67810  0.63120  0.63120  1.0000 -0.2328846238
C   C43       1.0  0.67800  0.58310  0.67800  1.0000 -0.050031422
N   N25       1.0  0.71620  0.53890  0.68390  1.0000 -0.132613975
N   N26       1.0  0.69100  0.53440  0.70870  1.0000 -0.132613975
N   N27       1.0  0.66830  0.56200  0.70600  1.0000 -0.0667765424
C   C44       1.0  0.70880  0.56720  0.66360  1.0000 -0.050031422
H   H25       1.0  0.69850  0.62140  0.61660  1.0000 0.1084946232
H   H26       1.0  0.72400  0.57700  0.64100  1.0000 0.0828368136
C   C45       1.0  0.56200  0.70600  0.66830  1.0000 -0.1199127901
H   H27       1.0  0.65000  0.57000  0.72500  1.0000 0.1024950919
C   C46       1.0  0.66300  0.11620  0.16300  1.0000 0.1169649909
C   C47       1.0  0.67810  0.13120  0.13120  1.0000 -0.2328846238
C   C48       1.0  0.67800  0.08310  0.17800  1.0000 -0.050031422
N   N28       1.0  0.71620  0.03890  0.18390  1.0000 -0.132613975
N   N29       1.0  0.69100  0.03440  0.20870  1.0000 -0.132613975
N   N30       1.0  0.66830  0.06200  0.20600  1.0000 -0.0667765424
C   C49       1.0  0.70880  0.06720  0.16360  1.0000 -0.050031422
H   H28       1.0  0.69850  0.12140  0.11660  1.0000 0.1084946232
H   H29       1.0  0.72400  0.07700  0.14100  1.0000 0.0828368136
C   C50       1.0  0.56200  0.20600  0.16830  1.0000 -0.1199127901
H   H30       1.0  0.65000  0.07000  0.22500  1.0000 0.1024950919
C   C51       1.0  0.16300  0.61620  0.16300  1.0000 0.1169649909
C   C52       1.0  0.17810  0.63120  0.13120  1.0000 -0.2328846238
C   C53       1.0  0.17800  0.58310  0.17800  1.0000 -0.050031422
N   N31       1.0  0.21620  0.53890  0.18390  1.0000 -0.132613975
N   N32       1.0  0.19100  0.53440  0.20870  1.0000 -0.132613975
N   N33       1.0  0.16830  0.56200  0.20600  1.0000 -0.0667765424
C   C54       1.0  0.20880  0.56720  0.16360  1.0000 -0.050031422
H   H31       1.0  0.19850  0.62140  0.11660  1.0000 0.1084946232
H   H32       1.0  0.22400  0.57700  0.14100  1.0000 0.0828368136
C   C55       1.0  0.06200  0.70600  0.16830  1.0000 -0.1199127901
H   H33       1.0  0.15000  0.57000  0.22500  1.0000 0.1024950919
C   C56       1.0  0.16300  0.11620  0.66300  1.0000 0.1169649909
C   C57       1.0  0.17810  0.13120  0.63120  1.0000 -0.2328846238
C   C58       1.0  0.17800  0.08310  0.67800  1.0000 -0.050031422
N   N34       1.0  0.21620  0.03890  0.68390  1.0000 -0.132613975
N   N35       1.0  0.19100  0.03440  0.70870  1.0000 -0.132613975
N   N36       1.0  0.16830  0.06200  0.70600  1.0000 -0.0667765424
C   C59       1.0  0.20880  0.06720  0.66360  1.0000 -0.050031422
H   H34       1.0  0.19850  0.12140  0.61660  1.0000 0.1084946232
H   H35       1.0  0.22400  0.07700  0.64100  1.0000 0.0828368136
C   C60       1.0  0.06200  0.20600  0.66830  1.0000 -0.1199127901
H   H36       1.0  0.15000  0.07000  0.72500  1.0000 0.1024950919
C   C61       1.0  0.33700  0.38380  0.66300  1.0000 0.1169649909
C   C62       1.0  0.32190  0.36880  0.63120  1.0000 -0.2328846238
C   C63       1.0  0.32200  0.41690  0.67800  1.0000 -0.050031422
N   N37       1.0  0.28380  0.46110  0.68390  1.0000 -0.132613975
N   N38       1.0  0.30900  0.46560  0.70870  1.0000 -0.132613975
N   N39       1.0  0.33170  0.43800  0.70600  1.0000 -0.0667765424
C   C64       1.0  0.29120  0.43280  0.66360  1.0000 -0.050031422
H   H37       1.0  0.30150  0.37860  0.61660  1.0000 0.1084946232
H   H38       1.0  0.27600  0.42300  0.64100  1.0000 0.0828368136
C   C65       1.0  0.43800  0.29400  0.66830  1.0000 -0.1199127901
H   H39       1.0  0.35000  0.43000  0.72500  1.0000 0.1024950919
C   C66       1.0  0.33700  0.88380  0.16300  1.0000 0.1169649909
C   C67       1.0  0.32190  0.86880  0.13120  1.0000 -0.2328846238
C   C68       1.0  0.32200  0.91690  0.17800  1.0000 -0.050031422
N   N40       1.0  0.28380  0.96110  0.18390  1.0000 -0.132613975
N   N41       1.0  0.30900  0.96560  0.20870  1.0000 -0.132613975
N   N42       1.0  0.33170  0.93800  0.20600  1.0000 -0.0667765424
C   C69       1.0  0.29120  0.93280  0.16360  1.0000 -0.050031422
H   H40       1.0  0.30150  0.87860  0.11660  1.0000 0.1084946232
H   H41       1.0  0.27600  0.92300  0.14100  1.0000 0.0828368136
C   C70       1.0  0.43800  0.79400  0.16830  1.0000 -0.1199127901
H   H42       1.0  0.35000  0.93000  0.22500  1.0000 0.1024950919
C   C71       1.0  0.83700  0.38380  0.16300  1.0000 0.1169649909
C   C72       1.0  0.82190  0.36880  0.13120  1.0000 -0.2328846238
C   C73       1.0  0.82200  0.41690  0.17800  1.0000 -0.050031422
N   N43       1.0  0.78380  0.46110  0.18390  1.0000 -0.132613975
N   N44       1.0  0.80900  0.46560  0.20870  1.0000 -0.132613975
N   N45       1.0  0.83170  0.43800  0.20600  1.0000 -0.0667765424
C   C74       1.0  0.79120  0.43280  0.16360  1.0000 -0.050031422
H   H43       1.0  0.80150  0.37860  0.11660  1.0000 0.1084946232
H   H44       1.0  0.77600  0.42300  0.14100  1.0000 0.0828368136
C   C75       1.0  0.93800  0.29400  0.16830  1.0000 -0.1199127901
H   H45       1.0  0.85000  0.43000  0.22500  1.0000 0.1024950919
C   C76       1.0  0.83700  0.88380  0.66300  1.0000 0.1169649909
C   C77       1.0  0.82190  0.86880  0.63120  1.0000 -0.2328846238
C   C78       1.0  0.82200  0.91690  0.67800  1.0000 -0.050031422
N   N46       1.0  0.78380  0.96110  0.68390  1.0000 -0.132613975
N   N47       1.0  0.80900  0.96560  0.70870  1.0000 -0.132613975
N   N48       1.0  0.83170  0.93800  0.70600  1.0000 -0.0667765424
C   C79       1.0  0.79120  0.93280  0.66360  1.0000 -0.050031422
H   H46       1.0  0.80150  0.87860  0.61660  1.0000 0.1084946232
H   H47       1.0  0.77600  0.92300  0.64100  1.0000 0.0828368136
C   C80       1.0  0.93800  0.79400  0.66830  1.0000 -0.1199127901
H   H48       1.0  0.85000  0.93000  0.72500  1.0000 0.1024950919
C   C81       1.0  0.33700  0.33700  0.61620  1.0000 0.1169649909
C   C82       1.0  0.36880  0.32190  0.63120  1.0000 -0.2417002038
C   C83       1.0  0.32200  0.32200  0.58310  1.0000 -0.050031422
N   N49       1.0  0.31610  0.28380  0.53890  1.0000 -0.1199127901
N   N50       1.0  0.29130  0.30900  0.53440  1.0000 -0.132613975
N   N51       1.0  0.29400  0.33170  0.56200  1.0000 -0.0667765424
C   C84       1.0  0.33640  0.29120  0.56720  1.0000 -0.0418234006
H   H49       1.0  0.38340  0.30150  0.62140  1.0000 0.1024950919
H   H50       1.0  0.35900  0.27600  0.57700  1.0000 0.0865266243
H   H51       1.0  0.27500  0.35000  0.57000  1.0000 0.1024950919
C   C85       1.0  0.33700  0.83700  0.11620  1.0000 0.1169649909
C   C86       1.0  0.36880  0.82190  0.13120  1.0000 -0.2417002038
C   C87       1.0  0.32200  0.82200  0.08310  1.0000 -0.050031422
N   N52       1.0  0.31610  0.78380  0.03890  1.0000 -0.1199127901
N   N53       1.0  0.29130  0.80900  0.03440  1.0000 -0.132613975
N   N54       1.0  0.29400  0.83170  0.06200  1.0000 -0.0667765424
C   C88       1.0  0.33640  0.79120  0.06720  1.0000 -0.0418234006
H   H52       1.0  0.38340  0.80150  0.12140  1.0000 0.1024950919
H   H53       1.0  0.35900  0.77600  0.07700  1.0000 0.0865266243
H   H54       1.0  0.27500  0.85000  0.07000  1.0000 0.1024950919
C   C89       1.0  0.83700  0.33700  0.11620  1.0000 0.1169649909
C   C90       1.0  0.86880  0.32190  0.13120  1.0000 -0.2417002038
C   C91       1.0  0.82200  0.32200  0.08310  1.0000 -0.050031422
N   N55       1.0  0.81610  0.28380  0.03890  1.0000 -0.1199127901
N   N56       1.0  0.79130  0.30900  0.03440  1.0000 -0.132613975
N   N57       1.0  0.79400  0.33170  0.06200  1.0000 -0.0667765424
C   C92       1.0  0.83640  0.29120  0.06720  1.0000 -0.0418234006
H   H55       1.0  0.88340  0.30150  0.12140  1.0000 0.1024950919
H   H56       1.0  0.85900  0.27600  0.07700  1.0000 0.0865266243
H   H57       1.0  0.77500  0.35000  0.07000  1.0000 0.1024950919
C   C93       1.0  0.83700  0.83700  0.61620  1.0000 0.1169649909
C   C94       1.0  0.86880  0.82190  0.63120  1.0000 -0.2417002038
C   C95       1.0  0.82200  0.82200  0.58310  1.0000 -0.050031422
N   N58       1.0  0.81610  0.78380  0.53890  1.0000 -0.1199127901
N   N59       1.0  0.79130  0.80900  0.53440  1.0000 -0.132613975
N   N60       1.0  0.79400  0.83170  0.56200  1.0000 -0.0667765424
C   C96       1.0  0.83640  0.79120  0.56720  1.0000 -0.0418234006
H   H58       1.0  0.88340  0.80150  0.62140  1.0000 0.1024950919
H   H59       1.0  0.85900  0.77600  0.57700  1.0000 0.0865266243
H   H60       1.0  0.77500  0.85000  0.57000  1.0000 0.1024950919
C   C97       1.0  0.33700  0.66300  0.38380  1.0000 0.1169649909
C   C98       1.0  0.36880  0.67810  0.36880  1.0000 -0.2417002038
C   C99       1.0  0.32200  0.67800  0.41690  1.0000 -0.050031422
N   N61       1.0  0.31610  0.71620  0.46110  1.0000 -0.1199127901
N   N62       1.0  0.29130  0.69100  0.46560  1.0000 -0.132613975
N   N63       1.0  0.29400  0.66830  0.43800  1.0000 -0.0667765424
C   C100      1.0  0.33640  0.70880  0.43280  1.0000 -0.0418234006
H   H61       1.0  0.38340  0.69850  0.37860  1.0000 0.1024950919
H   H62       1.0  0.35900  0.72400  0.42300  1.0000 0.0865266243
H   H63       1.0  0.27500  0.65000  0.43000  1.0000 0.1024950919
C   C101      1.0  0.33700  0.16300  0.88380  1.0000 0.1169649909
C   C102      1.0  0.36880  0.17810  0.86880  1.0000 -0.2417002038
C   C103      1.0  0.32200  0.17800  0.91690  1.0000 -0.050031422
N   N64       1.0  0.31610  0.21620  0.96110  1.0000 -0.1199127901
N   N65       1.0  0.29130  0.19100  0.96560  1.0000 -0.132613975
N   N66       1.0  0.29400  0.16830  0.93800  1.0000 -0.0667765424
C   C104      1.0  0.33640  0.20880  0.93280  1.0000 -0.0418234006
H   H64       1.0  0.38340  0.19850  0.87860  1.0000 0.1024950919
H   H65       1.0  0.35900  0.22400  0.92300  1.0000 0.0865266243
H   H66       1.0  0.27500  0.15000  0.93000  1.0000 0.1024950919
C   C105      1.0  0.83700  0.66300  0.88380  1.0000 0.1169649909
C   C106      1.0  0.86880  0.67810  0.86880  1.0000 -0.2417002038
C   C107      1.0  0.82200  0.67800  0.91690  1.0000 -0.050031422
N   N67       1.0  0.81610  0.71620  0.96110  1.0000 -0.1199127901
N   N68       1.0  0.79130  0.69100  0.96560  1.0000 -0.132613975
N   N69       1.0  0.79400  0.66830  0.93800  1.0000 -0.0667765424
C   C108      1.0  0.83640  0.70880  0.93280  1.0000 -0.0418234006
H   H67       1.0  0.88340  0.69850  0.87860  1.0000 0.1024950919
H   H68       1.0  0.85900  0.72400  0.92300  1.0000 0.0865266243
H   H69       1.0  0.77500  0.65000  0.93000  1.0000 0.1024950919
C   C109      1.0  0.83700  0.16300  0.38380  1.0000 0.1169649909
C   C110      1.0  0.86880  0.17810  0.36880  1.0000 -0.2417002038
C   C111      1.0  0.82200  0.17800  0.41690  1.0000 -0.050031422
N   N70       1.0  0.81610  0.21620  0.46110  1.0000 -0.1199127901
N   N71       1.0  0.79130  0.19100  0.46560  1.0000 -0.132613975
N   N72       1.0  0.79400  0.16830  0.43800  1.0000 -0.0667765424
C   C112      1.0  0.83640  0.20880  0.43280  1.0000 -0.0418234006
H   H70       1.0  0.88340  0.19850  0.37860  1.0000 0.1024950919
H   H71       1.0  0.85900  0.22400  0.42300  1.0000 0.0865266243
H   H72       1.0  0.77500  0.15000  0.43000  1.0000 0.1024950919
C   C113      1.0  0.66300  0.66300  0.61620  1.0000 0.1169649909
C   C114      1.0  0.63120  0.67810  0.63120  1.0000 -0.2417002038
C   C115      1.0  0.67800  0.67800  0.58310  1.0000 -0.050031422
N   N73       1.0  0.68390  0.71620  0.53890  1.0000 -0.1199127901
N   N74       1.0  0.70870  0.69100  0.53440  1.0000 -0.132613975
N   N75       1.0  0.70600  0.66830  0.56200  1.0000 -0.0667765424
C   C116      1.0  0.66360  0.70880  0.56720  1.0000 -0.0418234006
H   H73       1.0  0.61660  0.69850  0.62140  1.0000 0.1024950919
H   H74       1.0  0.64100  0.72400  0.57700  1.0000 0.0865266243
H   H75       1.0  0.72500  0.65000  0.57000  1.0000 0.1024950919
C   C117      1.0  0.66300  0.16300  0.11620  1.0000 0.1169649909
C   C118      1.0  0.63120  0.17810  0.13120  1.0000 -0.2417002038
C   C119      1.0  0.67800  0.17800  0.08310  1.0000 -0.050031422
N   N76       1.0  0.68390  0.21620  0.03890  1.0000 -0.1199127901
N   N77       1.0  0.70870  0.19100  0.03440  1.0000 -0.132613975
N   N78       1.0  0.70600  0.16830  0.06200  1.0000 -0.0667765424
C   C120      1.0  0.66360  0.20880  0.06720  1.0000 -0.0418234006
H   H76       1.0  0.61660  0.19850  0.12140  1.0000 0.1024950919
H   H77       1.0  0.64100  0.22400  0.07700  1.0000 0.0865266243
H   H78       1.0  0.72500  0.15000  0.07000  1.0000 0.1024950919
C   C121      1.0  0.16300  0.66300  0.11620  1.0000 0.1169649909
C   C122      1.0  0.13120  0.67810  0.13120  1.0000 -0.2417002038
C   C123      1.0  0.17800  0.67800  0.08310  1.0000 -0.050031422
N   N79       1.0  0.18390  0.71620  0.03890  1.0000 -0.1199127901
N   N80       1.0  0.20870  0.69100  0.03440  1.0000 -0.132613975
N   N81       1.0  0.20600  0.66830  0.06200  1.0000 -0.0667765424
C   C124      1.0  0.16360  0.70880  0.06720  1.0000 -0.0418234006
H   H79       1.0  0.11660  0.69850  0.12140  1.0000 0.1024950919
H   H80       1.0  0.14100  0.72400  0.07700  1.0000 0.0865266243
H   H81       1.0  0.22500  0.65000  0.07000  1.0000 0.1024950919
C   C125      1.0  0.16300  0.16300  0.61620  1.0000 0.1169649909
C   C126      1.0  0.13120  0.17810  0.63120  1.0000 -0.2417002038
C   C127      1.0  0.17800  0.17800  0.58310  1.0000 -0.050031422
N   N82       1.0  0.18390  0.21620  0.53890  1.0000 -0.1199127901
N   N83       1.0  0.20870  0.19100  0.53440  1.0000 -0.132613975
N   N84       1.0  0.20600  0.16830  0.56200  1.0000 -0.0667765424
C   C128      1.0  0.16360  0.20880  0.56720  1.0000 -0.0418234006
H   H82       1.0  0.11660  0.19850  0.62140  1.0000 0.1024950919
H   H83       1.0  0.14100  0.22400  0.57700  1.0000 0.0865266243
H   H84       1.0  0.22500  0.15000  0.57000  1.0000 0.1024950919
C   C129      1.0  0.66300  0.33700  0.38380  1.0000 0.1169649909
C   C130      1.0  0.63120  0.32190  0.36880  1.0000 -0.2417002038
C   C131      1.0  0.67800  0.32200  0.41690  1.0000 -0.050031422
N   N85       1.0  0.68390  0.28380  0.46110  1.0000 -0.1199127901
N   N86       1.0  0.70870  0.30900  0.46560  1.0000 -0.132613975
N   N87       1.0  0.70600  0.33170  0.43800  1.0000 -0.0667765424
C   C132      1.0  0.66360  0.29120  0.43280  1.0000 -0.0418234006
H   H85       1.0  0.61660  0.30150  0.37860  1.0000 0.1024950919
H   H86       1.0  0.64100  0.27600  0.42300  1.0000 0.0865266243
H   H87       1.0  0.72500  0.35000  0.43000  1.0000 0.1024950919
C   C133      1.0  0.66300  0.83700  0.88380  1.0000 0.1169649909
C   C134      1.0  0.63120  0.82190  0.86880  1.0000 -0.2417002038
C   C135      1.0  0.67800  0.82200  0.91690  1.0000 -0.050031422
N   N88       1.0  0.68390  0.78380  0.96110  1.0000 -0.1199127901
N   N89       1.0  0.70870  0.80900  0.96560  1.0000 -0.132613975
N   N90       1.0  0.70600  0.83170  0.93800  1.0000 -0.0667765424
C   C136      1.0  0.66360  0.79120  0.93280  1.0000 -0.0418234006
H   H88       1.0  0.61660  0.80150  0.87860  1.0000 0.1024950919
H   H89       1.0  0.64100  0.77600  0.92300  1.0000 0.0865266243
H   H90       1.0  0.72500  0.85000  0.93000  1.0000 0.1024950919
C   C137      1.0  0.16300  0.33700  0.88380  1.0000 0.1169649909
C   C138      1.0  0.13120  0.32190  0.86880  1.0000 -0.2417002038
C   C139      1.0  0.17800  0.32200  0.91690  1.0000 -0.050031422
N   N91       1.0  0.18390  0.28380  0.96110  1.0000 -0.1199127901
N   N92       1.0  0.20870  0.30900  0.96560  1.0000 -0.132613975
N   N93       1.0  0.20600  0.33170  0.93800  1.0000 -0.0667765424
C   C140      1.0  0.16360  0.29120  0.93280  1.0000 -0.0418234006
H   H91       1.0  0.11660  0.30150  0.87860  1.0000 0.1024950919
H   H92       1.0  0.14100  0.27600  0.92300  1.0000 0.0865266243
H   H93       1.0  0.22500  0.35000  0.93000  1.0000 0.1024950919
C   C141      1.0  0.16300  0.83700  0.38380  1.0000 0.1169649909
C   C142      1.0  0.13120  0.82190  0.36880  1.0000 -0.2417002038
C   C143      1.0  0.17800  0.82200  0.41690  1.0000 -0.050031422
N   N94       1.0  0.18390  0.78380  0.46110  1.0000 -0.1199127901
N   N95       1.0  0.20870  0.80900  0.46560  1.0000 -0.132613975
N   N96       1.0  0.20600  0.83170  0.43800  1.0000 -0.0667765424
C   C144      1.0  0.16360  0.79120  0.43280  1.0000 -0.0418234006
H   H94       1.0  0.11660  0.80150  0.37860  1.0000 0.1024950919
H   H95       1.0  0.14100  0.77600  0.42300  1.0000 0.0865266243
H   H96       1.0  0.22500  0.85000  0.43000  1.0000 0.1024950919
C   C145      1.0  0.61620  0.33700  0.33700  1.0000 0.0686218149
C   C146      1.0  0.63120  0.36880  0.32190  1.0000 -0.2328846238
C   C147      1.0  0.58310  0.32200  0.32200  1.0000 0.1084946232
N   N97       1.0  0.53890  0.31610  0.28380  1.0000 -0.1128288514
N   N98       1.0  0.53440  0.29130  0.30900  1.0000 -0.0418234006
C   C148      1.0  0.56720  0.33640  0.29120  1.0000 -0.0799523226
H   H97       1.0  0.62140  0.38340  0.30150  1.0000 0.1084946232
H   H98       1.0  0.57700  0.35900  0.27600  1.0000 0.1169649909
H   H99       1.0  0.57000  0.27500  0.35000  1.0000 0.2775780766
C   C149      1.0  0.61620  0.83700  0.83700  1.0000 0.0686218149
C   C150      1.0  0.63120  0.86880  0.82190  1.0000 -0.2328846238
C   C151      1.0  0.58310  0.82200  0.82200  1.0000 0.1084946232
N   N99       1.0  0.53890  0.81610  0.78380  1.0000 -0.1128288514
N   N100      1.0  0.53440  0.79130  0.80900  1.0000 -0.0418234006
C   C152      1.0  0.56720  0.83640  0.79120  1.0000 -0.0799523226
H   H100      1.0  0.62140  0.88340  0.80150  1.0000 0.1084946232
H   H101      1.0  0.57700  0.85900  0.77600  1.0000 0.1169649909
H   H102      1.0  0.57000  0.77500  0.85000  1.0000 0.2775780766
C   C153      1.0  0.11620  0.33700  0.83700  1.0000 0.0686218149
C   C154      1.0  0.13120  0.36880  0.82190  1.0000 -0.2328846238
C   C155      1.0  0.08310  0.32200  0.82200  1.0000 0.1084946232
N   N101      1.0  0.03890  0.31610  0.78380  1.0000 -0.1128288514
N   N102      1.0  0.03440  0.29130  0.80900  1.0000 -0.0418234006
C   C156      1.0  0.06720  0.33640  0.79120  1.0000 -0.0799523226
H   H103      1.0  0.12140  0.38340  0.80150  1.0000 0.1084946232
H   H104      1.0  0.07700  0.35900  0.77600  1.0000 0.1169649909
H   H105      1.0  0.07000  0.27500  0.85000  1.0000 0.2775780766
C   C157      1.0  0.11620  0.83700  0.33700  1.0000 0.0686218149
C   C158      1.0  0.13120  0.86880  0.32190  1.0000 -0.2328846238
C   C159      1.0  0.08310  0.82200  0.32200  1.0000 0.1084946232
N   N103      1.0  0.03890  0.81610  0.28380  1.0000 -0.1128288514
N   N104      1.0  0.03440  0.79130  0.30900  1.0000 -0.0418234006
C   C160      1.0  0.06720  0.83640  0.29120  1.0000 -0.0799523226
H   H106      1.0  0.12140  0.88340  0.30150  1.0000 0.1084946232
H   H107      1.0  0.07700  0.85900  0.27600  1.0000 0.1169649909
H   H108      1.0  0.07000  0.77500  0.35000  1.0000 0.2775780766
C   C161      1.0  0.38380  0.33700  0.66300  1.0000 0.0686218149
C   C162      1.0  0.36880  0.36880  0.67810  1.0000 -0.2328846238
C   C163      1.0  0.41690  0.32200  0.67800  1.0000 0.1084946232
N   N105      1.0  0.46110  0.31610  0.71620  1.0000 -0.1128288514
N   N106      1.0  0.46560  0.29130  0.69100  1.0000 -0.0418234006
C   C164      1.0  0.43280  0.33640  0.70880  1.0000 -0.0799523226
H   H109      1.0  0.37860  0.38340  0.69850  1.0000 0.1084946232
H   H110      1.0  0.42300  0.35900  0.72400  1.0000 0.1169649909
H   H111      1.0  0.43000  0.27500  0.65000  1.0000 0.2775780766
C   C165      1.0  0.38380  0.83700  0.16300  1.0000 0.0686218149
C   C166      1.0  0.36880  0.86880  0.17810  1.0000 -0.2328846238
C   C167      1.0  0.41690  0.82200  0.17800  1.0000 0.1084946232
N   N107      1.0  0.46110  0.81610  0.21620  1.0000 -0.1128288514
N   N108      1.0  0.46560  0.79130  0.19100  1.0000 -0.0418234006
C   C168      1.0  0.43280  0.83640  0.20880  1.0000 -0.0799523226
H   H112      1.0  0.37860  0.88340  0.19850  1.0000 0.1084946232
H   H113      1.0  0.42300  0.85900  0.22400  1.0000 0.1169649909
H   H114      1.0  0.43000  0.77500  0.15000  1.0000 0.2775780766
C   C169      1.0  0.88380  0.33700  0.16300  1.0000 0.0686218149
C   C170      1.0  0.86880  0.36880  0.17810  1.0000 -0.2328846238
C   C171      1.0  0.91690  0.32200  0.17800  1.0000 0.1084946232
N   N109      1.0  0.96110  0.31610  0.21620  1.0000 -0.1128288514
N   N110      1.0  0.96560  0.29130  0.19100  1.0000 -0.0418234006
C   C172      1.0  0.93280  0.33640  0.20880  1.0000 -0.0799523226
H   H115      1.0  0.87860  0.38340  0.19850  1.0000 0.1084946232
H   H116      1.0  0.92300  0.35900  0.22400  1.0000 0.1169649909
H   H117      1.0  0.93000  0.27500  0.15000  1.0000 0.2775780766
C   C173      1.0  0.88380  0.83700  0.66300  1.0000 0.0686218149
C   C174      1.0  0.86880  0.86880  0.67810  1.0000 -0.2328846238
C   C175      1.0  0.91690  0.82200  0.67800  1.0000 0.1084946232
N   N111      1.0  0.96110  0.81610  0.71620  1.0000 -0.1128288514
N   N112      1.0  0.96560  0.79130  0.69100  1.0000 -0.0418234006
C   C176      1.0  0.93280  0.83640  0.70880  1.0000 -0.0799523226
H   H118      1.0  0.87860  0.88340  0.69850  1.0000 0.1084946232
H   H119      1.0  0.92300  0.85900  0.72400  1.0000 0.1169649909
H   H120      1.0  0.93000  0.77500  0.65000  1.0000 0.2775780766
C   C177      1.0  0.61620  0.66300  0.66300  1.0000 0.0686218149
C   C178      1.0  0.63120  0.63120  0.67810  1.0000 -0.2328846238
C   C179      1.0  0.58310  0.67800  0.67800  1.0000 0.1084946232
N   N113      1.0  0.53890  0.68390  0.71620  1.0000 -0.1128288514
N   N114      1.0  0.53440  0.70870  0.69100  1.0000 -0.0418234006
C   C180      1.0  0.56720  0.66360  0.70880  1.0000 -0.0799523226
H   H121      1.0  0.62140  0.61660  0.69850  1.0000 0.1084946232
H   H122      1.0  0.57700  0.64100  0.72400  1.0000 0.1169649909
H   H123      1.0  0.57000  0.72500  0.65000  1.0000 0.2775780766
C   C181      1.0  0.61620  0.16300  0.16300  1.0000 0.0686218149
C   C182      1.0  0.63120  0.13120  0.17810  1.0000 -0.2328846238
C   C183      1.0  0.58310  0.17800  0.17800  1.0000 0.1084946232
N   N115      1.0  0.53890  0.18390  0.21620  1.0000 -0.1128288514
N   N116      1.0  0.53440  0.20870  0.19100  1.0000 -0.0418234006
C   C184      1.0  0.56720  0.16360  0.20880  1.0000 -0.0799523226
H   H124      1.0  0.62140  0.11660  0.19850  1.0000 0.1084946232
H   H125      1.0  0.57700  0.14100  0.22400  1.0000 0.1169649909
H   H126      1.0  0.57000  0.22500  0.15000  1.0000 0.2775780766
C   C185      1.0  0.11620  0.66300  0.16300  1.0000 0.0686218149
C   C186      1.0  0.13120  0.63120  0.17810  1.0000 -0.2328846238
C   C187      1.0  0.08310  0.67800  0.17800  1.0000 0.1084946232
N   N117      1.0  0.03890  0.68390  0.21620  1.0000 -0.1128288514
N   N118      1.0  0.03440  0.70870  0.19100  1.0000 -0.0418234006
C   C188      1.0  0.06720  0.66360  0.20880  1.0000 -0.0799523226
H   H127      1.0  0.12140  0.61660  0.19850  1.0000 0.1084946232
H   H128      1.0  0.07700  0.64100  0.22400  1.0000 0.1169649909
H   H129      1.0  0.07000  0.72500  0.15000  1.0000 0.2775780766
C   C189      1.0  0.11620  0.16300  0.66300  1.0000 0.0686218149
C   C190      1.0  0.13120  0.13120  0.67810  1.0000 -0.2328846238
C   C191      1.0  0.08310  0.17800  0.67800  1.0000 0.1084946232
N   N119      1.0  0.03890  0.18390  0.71620  1.0000 -0.1128288514
N   N120      1.0  0.03440  0.20870  0.69100  1.0000 -0.0418234006
C   C192      1.0  0.06720  0.16360  0.70880  1.0000 -0.0799523226
H   H130      1.0  0.12140  0.11660  0.69850  1.0000 0.1084946232
H   H131      1.0  0.07700  0.14100  0.72400  1.0000 0.1169649909
H   H132      1.0  0.07000  0.22500  0.65000  1.0000 0.2775780766
C   C193      1.0  0.38380  0.66300  0.33700  1.0000 0.0686218149
C   C194      1.0  0.36880  0.63120  0.32190  1.0000 -0.2328846238
C   C195      1.0  0.41690  0.67800  0.32200  1.0000 0.1084946232
N   N121      1.0  0.46110  0.68390  0.28380  1.0000 -0.1128288514
N   N122      1.0  0.46560  0.70870  0.30900  1.0000 -0.0418234006
C   C196      1.0  0.43280  0.66360  0.29120  1.0000 -0.0799523226
H   H133      1.0  0.37860  0.61660  0.30150  1.0000 0.1084946232
H   H134      1.0  0.42300  0.64100  0.27600  1.0000 0.1169649909
H   H135      1.0  0.43000  0.72500  0.35000  1.0000 0.2775780766
C   C197      1.0  0.38380  0.16300  0.83700  1.0000 0.0686218149
C   C198      1.0  0.36880  0.13120  0.82190  1.0000 -0.2328846238
C   C199      1.0  0.41690  0.17800  0.82200  1.0000 0.1084946232
N   N123      1.0  0.46110  0.18390  0.78380  1.0000 -0.1128288514
N   N124      1.0  0.46560  0.20870  0.80900  1.0000 -0.0418234006
C   C200      1.0  0.43280  0.16360  0.79120  1.0000 -0.0799523226
H   H136      1.0  0.37860  0.11660  0.80150  1.0000 0.1084946232
H   H137      1.0  0.42300  0.14100  0.77600  1.0000 0.1169649909
H   H138      1.0  0.43000  0.22500  0.85000  1.0000 0.2775780766
C   C201      1.0  0.88380  0.66300  0.83700  1.0000 0.0686218149
C   C202      1.0  0.86880  0.63120  0.82190  1.0000 -0.2328846238
C   C203      1.0  0.91690  0.67800  0.82200  1.0000 0.1084946232
N   N125      1.0  0.96110  0.68390  0.78380  1.0000 -0.1128288514
N   N126      1.0  0.96560  0.70870  0.80900  1.0000 -0.0418234006
C   C204      1.0  0.93280  0.66360  0.79120  1.0000 -0.0799523226
H   H139      1.0  0.87860  0.61660  0.80150  1.0000 0.1084946232
H   H140      1.0  0.92300  0.64100  0.77600  1.0000 0.1169649909
H   H141      1.0  0.93000  0.72500  0.85000  1.0000 0.2775780766
C   C205      1.0  0.88380  0.16300  0.33700  1.0000 0.0686218149
C   C206      1.0  0.86880  0.13120  0.32190  1.0000 -0.2328846238
C   C207      1.0  0.91690  0.17800  0.32200  1.0000 0.1084946232
N   N127      1.0  0.96110  0.18390  0.28380  1.0000 -0.1128288514
N   N128      1.0  0.96560  0.20870  0.30900  1.0000 -0.0418234006
C   C208      1.0  0.93280  0.16360  0.29120  1.0000 -0.0799523226
H   H142      1.0  0.87860  0.11660  0.30150  1.0000 0.1084946232
H   H143      1.0  0.92300  0.14100  0.27600  1.0000 0.1169649909
H   H144      1.0  0.93000  0.22500  0.35000  1.0000 0.2775780766
C   C209      1.0  0.11620  0.83700  0.16300  1.0000 0.1169649909
C   C210      1.0  0.13120  0.82190  0.13120  1.0000 -0.2328846238
C   C211      1.0  0.08310  0.82200  0.17800  1.0000 -0.050031422
N   N129      1.0  0.03890  0.78380  0.18390  1.0000 -0.132613975
N   N130      1.0  0.03440  0.80900  0.20870  1.0000 -0.132613975
N   N131      1.0  0.06200  0.83170  0.20600  1.0000 -0.0667765424
C   C212      1.0  0.06720  0.79120  0.16360  1.0000 -0.050031422
H   H145      1.0  0.12140  0.80150  0.11660  1.0000 0.1084946232
H   H146      1.0  0.07700  0.77600  0.14100  1.0000 0.0828368136
C   C213      1.0  0.20600  0.93800  0.16830  1.0000 -0.1199127901
H   H147      1.0  0.07000  0.85000  0.22500  1.0000 0.1024950919
C   C214      1.0  0.11620  0.33700  0.66300  1.0000 0.1169649909
C   C215      1.0  0.13120  0.32190  0.63120  1.0000 -0.2328846238
C   C216      1.0  0.08310  0.32200  0.67800  1.0000 -0.050031422
N   N132      1.0  0.03890  0.28380  0.68390  1.0000 -0.132613975
N   N133      1.0  0.03440  0.30900  0.70870  1.0000 -0.132613975
N   N134      1.0  0.06200  0.33170  0.70600  1.0000 -0.0667765424
C   C217      1.0  0.06720  0.29120  0.66360  1.0000 -0.050031422
H   H148      1.0  0.12140  0.30150  0.61660  1.0000 0.1084946232
H   H149      1.0  0.07700  0.27600  0.64100  1.0000 0.0828368136
C   C218      1.0  0.20600  0.43800  0.66830  1.0000 -0.1199127901
H   H150      1.0  0.07000  0.35000  0.72500  1.0000 0.1024950919
C   C219      1.0  0.61620  0.83700  0.66300  1.0000 0.1169649909
C   C220      1.0  0.63120  0.82190  0.63120  1.0000 -0.2328846238
C   C221      1.0  0.58310  0.82200  0.67800  1.0000 -0.050031422
N   N135      1.0  0.53890  0.78380  0.68390  1.0000 -0.132613975
N   N136      1.0  0.53440  0.80900  0.70870  1.0000 -0.132613975
N   N137      1.0  0.56200  0.83170  0.70600  1.0000 -0.0667765424
C   C222      1.0  0.56720  0.79120  0.66360  1.0000 -0.050031422
H   H151      1.0  0.62140  0.80150  0.61660  1.0000 0.1084946232
H   H152      1.0  0.57700  0.77600  0.64100  1.0000 0.0828368136
C   C223      1.0  0.70600  0.93800  0.66830  1.0000 -0.1199127901
H   H153      1.0  0.57000  0.85000  0.72500  1.0000 0.1024950919
C   C224      1.0  0.61620  0.33700  0.16300  1.0000 0.1169649909
C   C225      1.0  0.63120  0.32190  0.13120  1.0000 -0.2328846238
C   C226      1.0  0.58310  0.32200  0.17800  1.0000 -0.050031422
N   N138      1.0  0.53890  0.28380  0.18390  1.0000 -0.132613975
N   N139      1.0  0.53440  0.30900  0.20870  1.0000 -0.132613975
N   N140      1.0  0.56200  0.33170  0.20600  1.0000 -0.0667765424
C   C227      1.0  0.56720  0.29120  0.16360  1.0000 -0.050031422
H   H154      1.0  0.62140  0.30150  0.11660  1.0000 0.1084946232
H   H155      1.0  0.57700  0.27600  0.14100  1.0000 0.0828368136
C   C228      1.0  0.70600  0.43800  0.16830  1.0000 -0.1199127901
H   H156      1.0  0.57000  0.35000  0.22500  1.0000 0.1024950919
C   C229      1.0  0.88380  0.16300  0.16300  1.0000 0.1169649909
C   C230      1.0  0.86880  0.17810  0.13120  1.0000 -0.2328846238
C   C231      1.0  0.91690  0.17800  0.17800  1.0000 -0.050031422
N   N141      1.0  0.96110  0.21620  0.18390  1.0000 -0.132613975
N   N142      1.0  0.96560  0.19100  0.20870  1.0000 -0.132613975
N   N143      1.0  0.93800  0.16830  0.20600  1.0000 -0.0667765424
C   C232      1.0  0.93280  0.20880  0.16360  1.0000 -0.050031422
H   H157      1.0  0.87860  0.19850  0.11660  1.0000 0.1084946232
H   H158      1.0  0.92300  0.22400  0.14100  1.0000 0.0828368136
C   C233      1.0  0.79400  0.06200  0.16830  1.0000 -0.1199127901
H   H159      1.0  0.93000  0.15000  0.22500  1.0000 0.1024950919
C   C234      1.0  0.88380  0.66300  0.66300  1.0000 0.1169649909
C   C235      1.0  0.86880  0.67810  0.63120  1.0000 -0.2328846238
C   C236      1.0  0.91690  0.67800  0.67800  1.0000 -0.050031422
N   N144      1.0  0.96110  0.71620  0.68390  1.0000 -0.132613975
N   N145      1.0  0.96560  0.69100  0.70870  1.0000 -0.132613975
N   N146      1.0  0.93800  0.66830  0.70600  1.0000 -0.0667765424
C   C237      1.0  0.93280  0.70880  0.66360  1.0000 -0.050031422
H   H160      1.0  0.87860  0.69850  0.61660  1.0000 0.1084946232
H   H161      1.0  0.92300  0.72400  0.64100  1.0000 0.0828368136
C   C238      1.0  0.79400  0.56200  0.66830  1.0000 -0.1199127901
H   H162      1.0  0.93000  0.65000  0.72500  1.0000 0.1024950919
C   C239      1.0  0.38380  0.16300  0.66300  1.0000 0.1169649909
C   C240      1.0  0.36880  0.17810  0.63120  1.0000 -0.2328846238
C   C241      1.0  0.41690  0.17800  0.67800  1.0000 -0.050031422
N   N147      1.0  0.46110  0.21620  0.68390  1.0000 -0.132613975
N   N148      1.0  0.46560  0.19100  0.70870  1.0000 -0.132613975
N   N149      1.0  0.43800  0.16830  0.70600  1.0000 -0.0667765424
C   C242      1.0  0.43280  0.20880  0.66360  1.0000 -0.050031422
H   H163      1.0  0.37860  0.19850  0.61660  1.0000 0.1084946232
H   H164      1.0  0.42300  0.22400  0.64100  1.0000 0.0828368136
C   C243      1.0  0.29400  0.06200  0.66830  1.0000 -0.1199127901
H   H165      1.0  0.43000  0.15000  0.72500  1.0000 0.1024950919
C   C244      1.0  0.38380  0.66300  0.16300  1.0000 0.1169649909
C   C245      1.0  0.36880  0.67810  0.13120  1.0000 -0.2328846238
C   C246      1.0  0.41690  0.67800  0.17800  1.0000 -0.050031422
N   N150      1.0  0.46110  0.71620  0.18390  1.0000 -0.132613975
N   N151      1.0  0.46560  0.69100  0.20870  1.0000 -0.132613975
N   N152      1.0  0.43800  0.66830  0.20600  1.0000 -0.0667765424
C   C247      1.0  0.43280  0.70880  0.16360  1.0000 -0.050031422
H   H166      1.0  0.37860  0.69850  0.11660  1.0000 0.1084946232
H   H167      1.0  0.42300  0.72400  0.14100  1.0000 0.0828368136
C   C248      1.0  0.29400  0.56200  0.16830  1.0000 -0.1199127901
H   H168      1.0  0.43000  0.65000  0.22500  1.0000 0.1024950919
C   C249      1.0  0.11620  0.16300  0.83700  1.0000 0.1169649909
C   C250      1.0  0.13120  0.17810  0.86880  1.0000 -0.2328846238
C   C251      1.0  0.08310  0.17800  0.82200  1.0000 -0.050031422
N   N153      1.0  0.03890  0.21620  0.81610  1.0000 -0.132613975
N   N154      1.0  0.03440  0.19100  0.79130  1.0000 -0.132613975
N   N155      1.0  0.06200  0.16830  0.79400  1.0000 -0.0667765424
C   C252      1.0  0.06720  0.20880  0.83640  1.0000 -0.050031422
H   H169      1.0  0.12140  0.19850  0.88340  1.0000 0.1084946232
H   H170      1.0  0.07700  0.22400  0.85900  1.0000 0.0828368136
C   C253      1.0  0.20600  0.06200  0.83170  1.0000 -0.1199127901
H   H171      1.0  0.07000  0.15000  0.77500  1.0000 0.1024950919
C   C254      1.0  0.11620  0.66300  0.33700  1.0000 0.1169649909
C   C255      1.0  0.13120  0.67810  0.36880  1.0000 -0.2328846238
C   C256      1.0  0.08310  0.67800  0.32200  1.0000 -0.050031422
N   N156      1.0  0.03890  0.71620  0.31610  1.0000 -0.132613975
N   N157      1.0  0.03440  0.69100  0.29130  1.0000 -0.132613975
N   N158      1.0  0.06200  0.66830  0.29400  1.0000 -0.0667765424
C   C257      1.0  0.06720  0.70880  0.33640  1.0000 -0.050031422
H   H172      1.0  0.12140  0.69850  0.38340  1.0000 0.1084946232
H   H173      1.0  0.07700  0.72400  0.35900  1.0000 0.0828368136
C   C258      1.0  0.20600  0.56200  0.33170  1.0000 -0.1199127901
H   H174      1.0  0.07000  0.65000  0.27500  1.0000 0.1024950919
C   C259      1.0  0.61620  0.16300  0.33700  1.0000 0.1169649909
C   C260      1.0  0.63120  0.17810  0.36880  1.0000 -0.2328846238
C   C261      1.0  0.58310  0.17800  0.32200  1.0000 -0.050031422
N   N159      1.0  0.53890  0.21620  0.31610  1.0000 -0.132613975
N   N160      1.0  0.53440  0.19100  0.29130  1.0000 -0.132613975
N   N161      1.0  0.56200  0.16830  0.29400  1.0000 -0.0667765424
C   C262      1.0  0.56720  0.20880  0.33640  1.0000 -0.050031422
H   H175      1.0  0.62140  0.19850  0.38340  1.0000 0.1084946232
H   H176      1.0  0.57700  0.22400  0.35900  1.0000 0.0828368136
C   C263      1.0  0.70600  0.06200  0.33170  1.0000 -0.1199127901
H   H177      1.0  0.57000  0.15000  0.27500  1.0000 0.1024950919
C   C264      1.0  0.61620  0.66300  0.83700  1.0000 0.1169649909
C   C265      1.0  0.63120  0.67810  0.86880  1.0000 -0.2328846238
C   C266      1.0  0.58310  0.67800  0.82200  1.0000 -0.050031422
N   N162      1.0  0.53890  0.71620  0.81610  1.0000 -0.132613975
N   N163      1.0  0.53440  0.69100  0.79130  1.0000 -0.132613975
N   N164      1.0  0.56200  0.66830  0.79400  1.0000 -0.0667765424
C   C267      1.0  0.56720  0.70880  0.83640  1.0000 -0.050031422
H   H178      1.0  0.62140  0.69850  0.88340  1.0000 0.1084946232
H   H179      1.0  0.57700  0.72400  0.85900  1.0000 0.0828368136
C   C268      1.0  0.70600  0.56200  0.83170  1.0000 -0.1199127901
H   H180      1.0  0.57000  0.65000  0.77500  1.0000 0.1024950919
C   C269      1.0  0.88380  0.83700  0.83700  1.0000 0.1169649909
C   C270      1.0  0.86880  0.82190  0.86880  1.0000 -0.2328846238
C   C271      1.0  0.91690  0.82200  0.82200  1.0000 -0.050031422
N   N165      1.0  0.96110  0.78380  0.81610  1.0000 -0.132613975
N   N166      1.0  0.96560  0.80900  0.79130  1.0000 -0.132613975
N   N167      1.0  0.93800  0.83170  0.79400  1.0000 -0.0667765424
C   C272      1.0  0.93280  0.79120  0.83640  1.0000 -0.050031422
H   H181      1.0  0.87860  0.80150  0.88340  1.0000 0.1084946232
H   H182      1.0  0.92300  0.77600  0.85900  1.0000 0.0828368136
C   C273      1.0  0.79400  0.93800  0.83170  1.0000 -0.1199127901
H   H183      1.0  0.93000  0.85000  0.77500  1.0000 0.1024950919
C   C274      1.0  0.88380  0.33700  0.33700  1.0000 0.1169649909
C   C275      1.0  0.86880  0.32190  0.36880  1.0000 -0.2328846238
C   C276      1.0  0.91690  0.32200  0.32200  1.0000 -0.050031422
N   N168      1.0  0.96110  0.28380  0.31610  1.0000 -0.132613975
N   N169      1.0  0.96560  0.30900  0.29130  1.0000 -0.132613975
N   N170      1.0  0.93800  0.33170  0.29400  1.0000 -0.0667765424
C   C277      1.0  0.93280  0.29120  0.33640  1.0000 -0.050031422
H   H184      1.0  0.87860  0.30150  0.38340  1.0000 0.1084946232
H   H185      1.0  0.92300  0.27600  0.35900  1.0000 0.0828368136
C   C278      1.0  0.79400  0.43800  0.33170  1.0000 -0.1199127901
H   H186      1.0  0.93000  0.35000  0.27500  1.0000 0.1024950919
C   C279      1.0  0.38380  0.83700  0.33700  1.0000 0.1169649909
C   C280      1.0  0.36880  0.82190  0.36880  1.0000 -0.2328846238
C   C281      1.0  0.41690  0.82200  0.32200  1.0000 -0.050031422
N   N171      1.0  0.46110  0.78380  0.31610  1.0000 -0.132613975
N   N172      1.0  0.46560  0.80900  0.29130  1.0000 -0.132613975
N   N173      1.0  0.43800  0.83170  0.29400  1.0000 -0.0667765424
C   C282      1.0  0.43280  0.79120  0.33640  1.0000 -0.050031422
H   H187      1.0  0.37860  0.80150  0.38340  1.0000 0.1084946232
H   H188      1.0  0.42300  0.77600  0.35900  1.0000 0.0828368136
C   C283      1.0  0.29400  0.93800  0.33170  1.0000 -0.1199127901
H   H189      1.0  0.43000  0.85000  0.27500  1.0000 0.1024950919
C   C284      1.0  0.38380  0.33700  0.83700  1.0000 0.1169649909
C   C285      1.0  0.36880  0.32190  0.86880  1.0000 -0.2328846238
C   C286      1.0  0.41690  0.32200  0.82200  1.0000 -0.050031422
N   N174      1.0  0.46110  0.28380  0.81610  1.0000 -0.132613975
N   N175      1.0  0.46560  0.30900  0.79130  1.0000 -0.132613975
N   N176      1.0  0.43800  0.33170  0.79400  1.0000 -0.0667765424
C   C287      1.0  0.43280  0.29120  0.83640  1.0000 -0.050031422
H   H190      1.0  0.37860  0.30150  0.88340  1.0000 0.1084946232
H   H191      1.0  0.42300  0.27600  0.85900  1.0000 0.0828368136
C   C288      1.0  0.29400  0.43800  0.83170  1.0000 -0.1199127901
H   H192      1.0  0.43000  0.35000  0.77500  1.0000 0.1024950919
C   C289      1.0  0.83700  0.83700  0.88380  1.0000 0.1169649909
C   C290      1.0  0.82190  0.86880  0.86880  1.0000 -0.2417002038
C   C291      1.0  0.82200  0.82200  0.91690  1.0000 -0.050031422
N   N177      1.0  0.78380  0.81610  0.96110  1.0000 -0.1199127901
N   N178      1.0  0.80900  0.79130  0.96560  1.0000 -0.132613975
N   N179      1.0  0.83170  0.79400  0.93800  1.0000 -0.0667765424
C   C292      1.0  0.79120  0.83640  0.93280  1.0000 -0.0418234006
H   H193      1.0  0.80150  0.88340  0.87860  1.0000 0.1024950919
H   H194      1.0  0.77600  0.85900  0.92300  1.0000 0.0865266243
H   H195      1.0  0.85000  0.77500  0.93000  1.0000 0.1024950919
C   C293      1.0  0.83700  0.33700  0.38380  1.0000 0.1169649909
C   C294      1.0  0.82190  0.36880  0.36880  1.0000 -0.2417002038
C   C295      1.0  0.82200  0.32200  0.41690  1.0000 -0.050031422
N   N180      1.0  0.78380  0.31610  0.46110  1.0000 -0.1199127901
N   N181      1.0  0.80900  0.29130  0.46560  1.0000 -0.132613975
N   N182      1.0  0.83170  0.29400  0.43800  1.0000 -0.0667765424
C   C296      1.0  0.79120  0.33640  0.43280  1.0000 -0.0418234006
H   H196      1.0  0.80150  0.38340  0.37860  1.0000 0.1024950919
H   H197      1.0  0.77600  0.35900  0.42300  1.0000 0.0865266243
H   H198      1.0  0.85000  0.27500  0.43000  1.0000 0.1024950919
C   C297      1.0  0.33700  0.83700  0.38380  1.0000 0.1169649909
C   C298      1.0  0.32190  0.86880  0.36880  1.0000 -0.2417002038
C   C299      1.0  0.32200  0.82200  0.41690  1.0000 -0.050031422
N   N183      1.0  0.28380  0.81610  0.46110  1.0000 -0.1199127901
N   N184      1.0  0.30900  0.79130  0.46560  1.0000 -0.132613975
N   N185      1.0  0.33170  0.79400  0.43800  1.0000 -0.0667765424
C   C300      1.0  0.29120  0.83640  0.43280  1.0000 -0.0418234006
H   H199      1.0  0.30150  0.88340  0.37860  1.0000 0.1024950919
H   H200      1.0  0.27600  0.85900  0.42300  1.0000 0.0865266243
H   H201      1.0  0.35000  0.77500  0.43000  1.0000 0.1024950919
C   C301      1.0  0.33700  0.33700  0.88380  1.0000 0.1169649909
C   C302      1.0  0.32190  0.36880  0.86880  1.0000 -0.2417002038
C   C303      1.0  0.32200  0.32200  0.91690  1.0000 -0.050031422
N   N186      1.0  0.28380  0.31610  0.96110  1.0000 -0.1199127901
N   N187      1.0  0.30900  0.29130  0.96560  1.0000 -0.132613975
N   N188      1.0  0.33170  0.29400  0.93800  1.0000 -0.0667765424
C   C304      1.0  0.29120  0.33640  0.93280  1.0000 -0.0418234006
H   H202      1.0  0.30150  0.38340  0.87860  1.0000 0.1024950919
H   H203      1.0  0.27600  0.35900  0.92300  1.0000 0.0865266243
H   H204      1.0  0.35000  0.27500  0.93000  1.0000 0.1024950919
C   C305      1.0  0.16300  0.83700  0.11620  1.0000 0.1169649909
C   C306      1.0  0.17810  0.86880  0.13120  1.0000 -0.2417002038
C   C307      1.0  0.17800  0.82200  0.08310  1.0000 -0.050031422
N   N189      1.0  0.21620  0.81610  0.03890  1.0000 -0.1199127901
N   N190      1.0  0.19100  0.79130  0.03440  1.0000 -0.132613975
N   N191      1.0  0.16830  0.79400  0.06200  1.0000 -0.0667765424
C   C308      1.0  0.20880  0.83640  0.06720  1.0000 -0.0418234006
H   H205      1.0  0.19850  0.88340  0.12140  1.0000 0.1024950919
H   H206      1.0  0.22400  0.85900  0.07700  1.0000 0.0865266243
H   H207      1.0  0.15000  0.77500  0.07000  1.0000 0.1024950919
C   C309      1.0  0.16300  0.33700  0.61620  1.0000 0.1169649909
C   C310      1.0  0.17810  0.36880  0.63120  1.0000 -0.2417002038
C   C311      1.0  0.17800  0.32200  0.58310  1.0000 -0.050031422
N   N192      1.0  0.21620  0.31610  0.53890  1.0000 -0.1199127901
N   N193      1.0  0.19100  0.29130  0.53440  1.0000 -0.132613975
N   N194      1.0  0.16830  0.29400  0.56200  1.0000 -0.0667765424
C   C312      1.0  0.20880  0.33640  0.56720  1.0000 -0.0418234006
H   H208      1.0  0.19850  0.38340  0.62140  1.0000 0.1024950919
H   H209      1.0  0.22400  0.35900  0.57700  1.0000 0.0865266243
H   H210      1.0  0.15000  0.27500  0.57000  1.0000 0.1024950919
C   C313      1.0  0.66300  0.83700  0.61620  1.0000 0.1169649909
C   C314      1.0  0.67810  0.86880  0.63120  1.0000 -0.2417002038
C   C315      1.0  0.67800  0.82200  0.58310  1.0000 -0.050031422
N   N195      1.0  0.71620  0.81610  0.53890  1.0000 -0.1199127901
N   N196      1.0  0.69100  0.79130  0.53440  1.0000 -0.132613975
N   N197      1.0  0.66830  0.79400  0.56200  1.0000 -0.0667765424
C   C316      1.0  0.70880  0.83640  0.56720  1.0000 -0.0418234006
H   H211      1.0  0.69850  0.88340  0.62140  1.0000 0.1024950919
H   H212      1.0  0.72400  0.85900  0.57700  1.0000 0.0865266243
H   H213      1.0  0.65000  0.77500  0.57000  1.0000 0.1024950919
C   C317      1.0  0.66300  0.33700  0.11620  1.0000 0.1169649909
C   C318      1.0  0.67810  0.36880  0.13120  1.0000 -0.2417002038
C   C319      1.0  0.67800  0.32200  0.08310  1.0000 -0.050031422
N   N198      1.0  0.71620  0.31610  0.03890  1.0000 -0.1199127901
N   N199      1.0  0.69100  0.29130  0.03440  1.0000 -0.132613975
N   N200      1.0  0.66830  0.29400  0.06200  1.0000 -0.0667765424
C   C320      1.0  0.70880  0.33640  0.06720  1.0000 -0.0418234006
H   H214      1.0  0.69850  0.38340  0.12140  1.0000 0.1024950919
H   H215      1.0  0.72400  0.35900  0.07700  1.0000 0.0865266243
H   H216      1.0  0.65000  0.27500  0.07000  1.0000 0.1024950919
C   C321      1.0  0.16300  0.16300  0.88380  1.0000 0.1169649909
C   C322      1.0  0.17810  0.13120  0.86880  1.0000 -0.2417002038
C   C323      1.0  0.17800  0.17800  0.91690  1.0000 -0.050031422
N   N201      1.0  0.21620  0.18390  0.96110  1.0000 -0.1199127901
N   N202      1.0  0.19100  0.20870  0.96560  1.0000 -0.132613975
N   N203      1.0  0.16830  0.20600  0.93800  1.0000 -0.0667765424
C   C324      1.0  0.20880  0.16360  0.93280  1.0000 -0.0418234006
H   H217      1.0  0.19850  0.11660  0.87860  1.0000 0.1024950919
H   H218      1.0  0.22400  0.14100  0.92300  1.0000 0.0865266243
H   H219      1.0  0.15000  0.22500  0.93000  1.0000 0.1024950919
C   C325      1.0  0.16300  0.66300  0.38380  1.0000 0.1169649909
C   C326      1.0  0.17810  0.63120  0.36880  1.0000 -0.2417002038
C   C327      1.0  0.17800  0.67800  0.41690  1.0000 -0.050031422
N   N204      1.0  0.21620  0.68390  0.46110  1.0000 -0.1199127901
N   N205      1.0  0.19100  0.70870  0.46560  1.0000 -0.132613975
N   N206      1.0  0.16830  0.70600  0.43800  1.0000 -0.0667765424
C   C328      1.0  0.20880  0.66360  0.43280  1.0000 -0.0418234006
H   H220      1.0  0.19850  0.61660  0.37860  1.0000 0.1024950919
H   H221      1.0  0.22400  0.64100  0.42300  1.0000 0.0865266243
H   H222      1.0  0.15000  0.72500  0.43000  1.0000 0.1024950919
C   C329      1.0  0.66300  0.16300  0.38380  1.0000 0.1169649909
C   C330      1.0  0.67810  0.13120  0.36880  1.0000 -0.2417002038
C   C331      1.0  0.67800  0.17800  0.41690  1.0000 -0.050031422
N   N207      1.0  0.71620  0.18390  0.46110  1.0000 -0.1199127901
N   N208      1.0  0.69100  0.20870  0.46560  1.0000 -0.132613975
N   N209      1.0  0.66830  0.20600  0.43800  1.0000 -0.0667765424
C   C332      1.0  0.70880  0.16360  0.43280  1.0000 -0.0418234006
H   H223      1.0  0.69850  0.11660  0.37860  1.0000 0.1024950919
H   H224      1.0  0.72400  0.14100  0.42300  1.0000 0.0865266243
H   H225      1.0  0.65000  0.22500  0.43000  1.0000 0.1024950919
C   C333      1.0  0.66300  0.66300  0.88380  1.0000 0.1169649909
C   C334      1.0  0.67810  0.63120  0.86880  1.0000 -0.2417002038
C   C335      1.0  0.67800  0.67800  0.91690  1.0000 -0.050031422
N   N210      1.0  0.71620  0.68390  0.96110  1.0000 -0.1199127901
N   N211      1.0  0.69100  0.70870  0.96560  1.0000 -0.132613975
N   N212      1.0  0.66830  0.70600  0.93800  1.0000 -0.0667765424
C   C336      1.0  0.70880  0.66360  0.93280  1.0000 -0.0418234006
H   H226      1.0  0.69850  0.61660  0.87860  1.0000 0.1024950919
H   H227      1.0  0.72400  0.64100  0.92300  1.0000 0.0865266243
H   H228      1.0  0.65000  0.72500  0.93000  1.0000 0.1024950919
C   C337      1.0  0.83700  0.16300  0.11620  1.0000 0.1169649909
C   C338      1.0  0.82190  0.13120  0.13120  1.0000 -0.2417002038
C   C339      1.0  0.82200  0.17800  0.08310  1.0000 -0.050031422
N   N213      1.0  0.78380  0.18390  0.03890  1.0000 -0.1199127901
N   N214      1.0  0.80900  0.20870  0.03440  1.0000 -0.132613975
N   N215      1.0  0.83170  0.20600  0.06200  1.0000 -0.0667765424
C   C340      1.0  0.79120  0.16360  0.06720  1.0000 -0.0418234006
H   H229      1.0  0.80150  0.11660  0.12140  1.0000 0.1024950919
H   H230      1.0  0.77600  0.14100  0.07700  1.0000 0.0865266243
H   H231      1.0  0.85000  0.22500  0.07000  1.0000 0.1024950919
C   C341      1.0  0.83700  0.66300  0.61620  1.0000 0.1169649909
C   C342      1.0  0.82190  0.63120  0.63120  1.0000 -0.2417002038
C   C343      1.0  0.82200  0.67800  0.58310  1.0000 -0.050031422
N   N216      1.0  0.78380  0.68390  0.53890  1.0000 -0.1199127901
N   N217      1.0  0.80900  0.70870  0.53440  1.0000 -0.132613975
N   N218      1.0  0.83170  0.70600  0.56200  1.0000 -0.0667765424
C   C344      1.0  0.79120  0.66360  0.56720  1.0000 -0.0418234006
H   H232      1.0  0.80150  0.61660  0.62140  1.0000 0.1024950919
H   H233      1.0  0.77600  0.64100  0.57700  1.0000 0.0865266243
H   H234      1.0  0.85000  0.72500  0.57000  1.0000 0.1024950919
C   C345      1.0  0.33700  0.16300  0.61620  1.0000 0.1169649909
C   C346      1.0  0.32190  0.13120  0.63120  1.0000 -0.2417002038
C   C347      1.0  0.32200  0.17800  0.58310  1.0000 -0.050031422
N   N219      1.0  0.28380  0.18390  0.53890  1.0000 -0.1199127901
N   N220      1.0  0.30900  0.20870  0.53440  1.0000 -0.132613975
N   N221      1.0  0.33170  0.20600  0.56200  1.0000 -0.0667765424
C   C348      1.0  0.29120  0.16360  0.56720  1.0000 -0.0418234006
H   H235      1.0  0.30150  0.11660  0.62140  1.0000 0.1024950919
H   H236      1.0  0.27600  0.14100  0.57700  1.0000 0.0865266243
H   H237      1.0  0.35000  0.22500  0.57000  1.0000 0.1024950919
C   C349      1.0  0.33700  0.66300  0.11620  1.0000 0.1169649909
C   C350      1.0  0.32190  0.63120  0.13120  1.0000 -0.2417002038
C   C351      1.0  0.32200  0.67800  0.08310  1.0000 -0.050031422
N   N222      1.0  0.28380  0.68390  0.03890  1.0000 -0.1199127901
N   N223      1.0  0.30900  0.70870  0.03440  1.0000 -0.132613975
N   N224      1.0  0.33170  0.70600  0.06200  1.0000 -0.0667765424
C   C352      1.0  0.29120  0.66360  0.06720  1.0000 -0.0418234006
H   H238      1.0  0.30150  0.61660  0.12140  1.0000 0.1024950919
H   H239      1.0  0.27600  0.64100  0.07700  1.0000 0.0865266243
H   H240      1.0  0.35000  0.72500  0.07000  1.0000 0.1024950919
C   C353      1.0  0.83700  0.11620  0.16300  1.0000 0.0686218149
C   C354      1.0  0.86880  0.13120  0.17810  1.0000 -0.2328846238
C   C355      1.0  0.82200  0.08310  0.17800  1.0000 0.1084946232
N   N225      1.0  0.81610  0.03890  0.21620  1.0000 -0.1128288514
N   N226      1.0  0.79130  0.03440  0.19100  1.0000 -0.0418234006
C   C356      1.0  0.83640  0.06720  0.20880  1.0000 -0.0799523226
H   H241      1.0  0.88340  0.12140  0.19850  1.0000 0.1084946232
H   H242      1.0  0.85900  0.07700  0.22400  1.0000 0.1169649909
H   H243      1.0  0.77500  0.07000  0.15000  1.0000 0.2775780766
C   C357      1.0  0.83700  0.61620  0.66300  1.0000 0.0686218149
C   C358      1.0  0.86880  0.63120  0.67810  1.0000 -0.2328846238
C   C359      1.0  0.82200  0.58310  0.67800  1.0000 0.1084946232
N   N227      1.0  0.81610  0.53890  0.71620  1.0000 -0.1128288514
N   N228      1.0  0.79130  0.53440  0.69100  1.0000 -0.0418234006
C   C360      1.0  0.83640  0.56720  0.70880  1.0000 -0.0799523226
H   H244      1.0  0.88340  0.62140  0.69850  1.0000 0.1084946232
H   H245      1.0  0.85900  0.57700  0.72400  1.0000 0.1169649909
H   H246      1.0  0.77500  0.57000  0.65000  1.0000 0.2775780766
C   C361      1.0  0.33700  0.11620  0.66300  1.0000 0.0686218149
C   C362      1.0  0.36880  0.13120  0.67810  1.0000 -0.2328846238
C   C363      1.0  0.32200  0.08310  0.67800  1.0000 0.1084946232
N   N229      1.0  0.31610  0.03890  0.71620  1.0000 -0.1128288514
N   N230      1.0  0.29130  0.03440  0.69100  1.0000 -0.0418234006
C   C364      1.0  0.33640  0.06720  0.70880  1.0000 -0.0799523226
H   H247      1.0  0.38340  0.12140  0.69850  1.0000 0.1084946232
H   H248      1.0  0.35900  0.07700  0.72400  1.0000 0.1169649909
H   H249      1.0  0.27500  0.07000  0.65000  1.0000 0.2775780766
C   C365      1.0  0.33700  0.61620  0.16300  1.0000 0.0686218149
C   C366      1.0  0.36880  0.63120  0.17810  1.0000 -0.2328846238
C   C367      1.0  0.32200  0.58310  0.17800  1.0000 0.1084946232
N   N231      1.0  0.31610  0.53890  0.21620  1.0000 -0.1128288514
N   N232      1.0  0.29130  0.53440  0.19100  1.0000 -0.0418234006
C   C368      1.0  0.33640  0.56720  0.20880  1.0000 -0.0799523226
H   H250      1.0  0.38340  0.62140  0.19850  1.0000 0.1084946232
H   H251      1.0  0.35900  0.57700  0.22400  1.0000 0.1169649909
H   H252      1.0  0.27500  0.57000  0.15000  1.0000 0.2775780766
C   C369      1.0  0.83700  0.88380  0.83700  1.0000 0.0686218149
C   C370      1.0  0.86880  0.86880  0.82190  1.0000 -0.2328846238
C   C371      1.0  0.82200  0.91690  0.82200  1.0000 0.1084946232
N   N233      1.0  0.81610  0.96110  0.78380  1.0000 -0.1128288514
N   N234      1.0  0.79130  0.96560  0.80900  1.0000 -0.0418234006
C   C372      1.0  0.83640  0.93280  0.79120  1.0000 -0.0799523226
H   H253      1.0  0.88340  0.87860  0.80150  1.0000 0.1084946232
H   H254      1.0  0.85900  0.92300  0.77600  1.0000 0.1169649909
H   H255      1.0  0.77500  0.93000  0.85000  1.0000 0.2775780766
C   C373      1.0  0.83700  0.38380  0.33700  1.0000 0.0686218149
C   C374      1.0  0.86880  0.36880  0.32190  1.0000 -0.2328846238
C   C375      1.0  0.82200  0.41690  0.32200  1.0000 0.1084946232
N   N235      1.0  0.81610  0.46110  0.28380  1.0000 -0.1128288514
N   N236      1.0  0.79130  0.46560  0.30900  1.0000 -0.0418234006
C   C376      1.0  0.83640  0.43280  0.29120  1.0000 -0.0799523226
H   H256      1.0  0.88340  0.37860  0.30150  1.0000 0.1084946232
H   H257      1.0  0.85900  0.42300  0.27600  1.0000 0.1169649909
H   H258      1.0  0.77500  0.43000  0.35000  1.0000 0.2775780766
C   C377      1.0  0.33700  0.88380  0.33700  1.0000 0.0686218149
C   C378      1.0  0.36880  0.86880  0.32190  1.0000 -0.2328846238
C   C379      1.0  0.32200  0.91690  0.32200  1.0000 0.1084946232
N   N237      1.0  0.31610  0.96110  0.28380  1.0000 -0.1128288514
N   N238      1.0  0.29130  0.96560  0.30900  1.0000 -0.0418234006
C   C380      1.0  0.33640  0.93280  0.29120  1.0000 -0.0799523226
H   H259      1.0  0.38340  0.87860  0.30150  1.0000 0.1084946232
H   H260      1.0  0.35900  0.92300  0.27600  1.0000 0.1169649909
H   H261      1.0  0.27500  0.93000  0.35000  1.0000 0.2775780766
C   C381      1.0  0.33700  0.38380  0.83700  1.0000 0.0686218149
C   C382      1.0  0.36880  0.36880  0.82190  1.0000 -0.2328846238
C   C383      1.0  0.32200  0.41690  0.82200  1.0000 0.1084946232
N   N239      1.0  0.31610  0.46110  0.78380  1.0000 -0.1128288514
N   N240      1.0  0.29130  0.46560  0.80900  1.0000 -0.0418234006
C   C384      1.0  0.33640  0.43280  0.79120  1.0000 -0.0799523226
H   H262      1.0  0.38340  0.37860  0.80150  1.0000 0.1084946232
H   H263      1.0  0.35900  0.42300  0.77600  1.0000 0.1169649909
H   H264      1.0  0.27500  0.43000  0.85000  1.0000 0.2775780766
C   C385      1.0  0.16300  0.11620  0.83700  1.0000 0.0686218149
C   C386      1.0  0.13120  0.13120  0.82190  1.0000 -0.2328846238
C   C387      1.0  0.17800  0.08310  0.82200  1.0000 0.1084946232
N   N241      1.0  0.18390  0.03890  0.78380  1.0000 -0.1128288514
N   N242      1.0  0.20870  0.03440  0.80900  1.0000 -0.0418234006
C   C388      1.0  0.16360  0.06720  0.79120  1.0000 -0.0799523226
H   H265      1.0  0.11660  0.12140  0.80150  1.0000 0.1084946232
H   H266      1.0  0.14100  0.07700  0.77600  1.0000 0.1169649909
H   H267      1.0  0.22500  0.07000  0.85000  1.0000 0.2775780766
C   C389      1.0  0.16300  0.61620  0.33700  1.0000 0.0686218149
C   C390      1.0  0.13120  0.63120  0.32190  1.0000 -0.2328846238
C   C391      1.0  0.17800  0.58310  0.32200  1.0000 0.1084946232
N   N243      1.0  0.18390  0.53890  0.28380  1.0000 -0.1128288514
N   N244      1.0  0.20870  0.53440  0.30900  1.0000 -0.0418234006
C   C392      1.0  0.16360  0.56720  0.29120  1.0000 -0.0799523226
H   H268      1.0  0.11660  0.62140  0.30150  1.0000 0.1084946232
H   H269      1.0  0.14100  0.57700  0.27600  1.0000 0.1169649909
H   H270      1.0  0.22500  0.57000  0.35000  1.0000 0.2775780766
C   C393      1.0  0.66300  0.11620  0.33700  1.0000 0.0686218149
C   C394      1.0  0.63120  0.13120  0.32190  1.0000 -0.2328846238
C   C395      1.0  0.67800  0.08310  0.32200  1.0000 0.1084946232
N   N245      1.0  0.68390  0.03890  0.28380  1.0000 -0.1128288514
N   N246      1.0  0.70870  0.03440  0.30900  1.0000 -0.0418234006
C   C396      1.0  0.66360  0.06720  0.29120  1.0000 -0.0799523226
H   H271      1.0  0.61660  0.12140  0.30150  1.0000 0.1084946232
H   H272      1.0  0.64100  0.07700  0.27600  1.0000 0.1169649909
H   H273      1.0  0.72500  0.07000  0.35000  1.0000 0.2775780766
C   C397      1.0  0.66300  0.61620  0.83700  1.0000 0.0686218149
C   C398      1.0  0.63120  0.63120  0.82190  1.0000 -0.2328846238
C   C399      1.0  0.67800  0.58310  0.82200  1.0000 0.1084946232
N   N247      1.0  0.68390  0.53890  0.78380  1.0000 -0.1128288514
N   N248      1.0  0.70870  0.53440  0.80900  1.0000 -0.0418234006
C   C400      1.0  0.66360  0.56720  0.79120  1.0000 -0.0799523226
H   H274      1.0  0.61660  0.62140  0.80150  1.0000 0.1084946232
H   H275      1.0  0.64100  0.57700  0.77600  1.0000 0.1169649909
H   H276      1.0  0.72500  0.57000  0.85000  1.0000 0.2775780766
C   C401      1.0  0.16300  0.88380  0.16300  1.0000 0.0686218149
C   C402      1.0  0.13120  0.86880  0.17810  1.0000 -0.2328846238
C   C403      1.0  0.17800  0.91690  0.17800  1.0000 0.1084946232
N   N249      1.0  0.18390  0.96110  0.21620  1.0000 -0.1128288514
N   N250      1.0  0.20870  0.96560  0.19100  1.0000 -0.0418234006
C   C404      1.0  0.16360  0.93280  0.20880  1.0000 -0.0799523226
H   H277      1.0  0.11660  0.87860  0.19850  1.0000 0.1084946232
H   H278      1.0  0.14100  0.92300  0.22400  1.0000 0.1169649909
H   H279      1.0  0.22500  0.93000  0.15000  1.0000 0.2775780766
C   C405      1.0  0.16300  0.38380  0.66300  1.0000 0.0686218149
C   C406      1.0  0.13120  0.36880  0.67810  1.0000 -0.2328846238
C   C407      1.0  0.17800  0.41690  0.67800  1.0000 0.1084946232
N   N251      1.0  0.18390  0.46110  0.71620  1.0000 -0.1128288514
N   N252      1.0  0.20870  0.46560  0.69100  1.0000 -0.0418234006
C   C408      1.0  0.16360  0.43280  0.70880  1.0000 -0.0799523226
H   H280      1.0  0.11660  0.37860  0.69850  1.0000 0.1084946232
H   H281      1.0  0.14100  0.42300  0.72400  1.0000 0.1169649909
H   H282      1.0  0.22500  0.43000  0.65000  1.0000 0.2775780766
C   C409      1.0  0.66300  0.88380  0.66300  1.0000 0.0686218149
C   C410      1.0  0.63120  0.86880  0.67810  1.0000 -0.2328846238
C   C411      1.0  0.67800  0.91690  0.67800  1.0000 0.1084946232
N   N253      1.0  0.68390  0.96110  0.71620  1.0000 -0.1128288514
N   N254      1.0  0.70870  0.96560  0.69100  1.0000 -0.0418234006
C   C412      1.0  0.66360  0.93280  0.70880  1.0000 -0.0799523226
H   H283      1.0  0.61660  0.87860  0.69850  1.0000 0.1084946232
H   H284      1.0  0.64100  0.92300  0.72400  1.0000 0.1169649909
H   H285      1.0  0.72500  0.93000  0.65000  1.0000 0.2775780766
C   C413      1.0  0.66300  0.38380  0.16300  1.0000 0.0686218149
C   C414      1.0  0.63120  0.36880  0.17810  1.0000 -0.2328846238
C   C415      1.0  0.67800  0.41690  0.17800  1.0000 0.1084946232
N   N255      1.0  0.68390  0.46110  0.21620  1.0000 -0.1128288514
N   N256      1.0  0.70870  0.46560  0.19100  1.0000 -0.0418234006
C   C416      1.0  0.66360  0.43280  0.20880  1.0000 -0.0799523226
H   H286      1.0  0.61660  0.37860  0.19850  1.0000 0.1084946232
H   H287      1.0  0.64100  0.42300  0.22400  1.0000 0.1169649909
H   H288      1.0  0.72500  0.43000  0.15000  1.0000 0.2775780766
C   C417      1.0  0.66300  0.38380  0.66300  1.0000 0.1169649909
C   C418      1.0  0.67810  0.36880  0.63120  1.0000 -0.2328846238
C   C419      1.0  0.67800  0.41690  0.67800  1.0000 -0.050031422
N   N257      1.0  0.71620  0.46110  0.68390  1.0000 -0.132613975
N   N258      1.0  0.69100  0.46560  0.70870  1.0000 -0.132613975
N   N259      1.0  0.66830  0.43800  0.70600  1.0000 -0.0667765424
C   C420      1.0  0.70880  0.43280  0.66360  1.0000 -0.050031422
H   H289      1.0  0.69850  0.37860  0.61660  1.0000 0.1084946232
H   H290      1.0  0.72400  0.42300  0.64100  1.0000 0.0828368136
C   C421      1.0  0.56200  0.29400  0.66830  1.0000 -0.1199127901
H   H291      1.0  0.65000  0.43000  0.72500  1.0000 0.1024950919
C   C422      1.0  0.66300  0.88380  0.16300  1.0000 0.1169649909
C   C423      1.0  0.67810  0.86880  0.13120  1.0000 -0.2328846238
C   C424      1.0  0.67800  0.91690  0.17800  1.0000 -0.050031422
N   N260      1.0  0.71620  0.96110  0.18390  1.0000 -0.132613975
N   N261      1.0  0.69100  0.96560  0.20870  1.0000 -0.132613975
N   N262      1.0  0.66830  0.93800  0.20600  1.0000 -0.0667765424
C   C425      1.0  0.70880  0.93280  0.16360  1.0000 -0.050031422
H   H292      1.0  0.69850  0.87860  0.11660  1.0000 0.1084946232
H   H293      1.0  0.72400  0.92300  0.14100  1.0000 0.0828368136
C   C426      1.0  0.56200  0.79400  0.16830  1.0000 -0.1199127901
H   H294      1.0  0.65000  0.93000  0.22500  1.0000 0.1024950919
C   C427      1.0  0.16300  0.38380  0.16300  1.0000 0.1169649909
C   C428      1.0  0.17810  0.36880  0.13120  1.0000 -0.2328846238
C   C429      1.0  0.17800  0.41690  0.17800  1.0000 -0.050031422
N   N263      1.0  0.21620  0.46110  0.18390  1.0000 -0.132613975
N   N264      1.0  0.19100  0.46560  0.20870  1.0000 -0.132613975
N   N265      1.0  0.16830  0.43800  0.20600  1.0000 -0.0667765424
C   C430      1.0  0.20880  0.43280  0.16360  1.0000 -0.050031422
H   H295      1.0  0.19850  0.37860  0.11660  1.0000 0.1084946232
H   H296      1.0  0.22400  0.42300  0.14100  1.0000 0.0828368136
C   C431      1.0  0.06200  0.29400  0.16830  1.0000 -0.1199127901
H   H297      1.0  0.15000  0.43000  0.22500  1.0000 0.1024950919
C   C432      1.0  0.16300  0.88380  0.66300  1.0000 0.1169649909
C   C433      1.0  0.17810  0.86880  0.63120  1.0000 -0.2328846238
C   C434      1.0  0.17800  0.91690  0.67800  1.0000 -0.050031422
N   N266      1.0  0.21620  0.96110  0.68390  1.0000 -0.132613975
N   N267      1.0  0.19100  0.96560  0.70870  1.0000 -0.132613975
N   N268      1.0  0.16830  0.93800  0.70600  1.0000 -0.0667765424
C   C435      1.0  0.20880  0.93280  0.66360  1.0000 -0.050031422
H   H298      1.0  0.19850  0.87860  0.61660  1.0000 0.1084946232
H   H299      1.0  0.22400  0.92300  0.64100  1.0000 0.0828368136
C   C436      1.0  0.06200  0.79400  0.66830  1.0000 -0.1199127901
H   H300      1.0  0.15000  0.93000  0.72500  1.0000 0.1024950919
C   C437      1.0  0.33700  0.61620  0.66300  1.0000 0.1169649909
C   C438      1.0  0.32190  0.63120  0.63120  1.0000 -0.2328846238
C   C439      1.0  0.32200  0.58310  0.67800  1.0000 -0.050031422
N   N269      1.0  0.28380  0.53890  0.68390  1.0000 -0.132613975
N   N270      1.0  0.30900  0.53440  0.70870  1.0000 -0.132613975
N   N271      1.0  0.33170  0.56200  0.70600  1.0000 -0.0667765424
C   C440      1.0  0.29120  0.56720  0.66360  1.0000 -0.050031422
H   H301      1.0  0.30150  0.62140  0.61660  1.0000 0.1084946232
H   H302      1.0  0.27600  0.57700  0.64100  1.0000 0.0828368136
C   C441      1.0  0.43800  0.70600  0.66830  1.0000 -0.1199127901
H   H303      1.0  0.35000  0.57000  0.72500  1.0000 0.1024950919
C   C442      1.0  0.33700  0.11620  0.16300  1.0000 0.1169649909
C   C443      1.0  0.32190  0.13120  0.13120  1.0000 -0.2328846238
C   C444      1.0  0.32200  0.08310  0.17800  1.0000 -0.050031422
N   N272      1.0  0.28380  0.03890  0.18390  1.0000 -0.132613975
N   N273      1.0  0.30900  0.03440  0.20870  1.0000 -0.132613975
N   N274      1.0  0.33170  0.06200  0.20600  1.0000 -0.0667765424
C   C445      1.0  0.29120  0.06720  0.16360  1.0000 -0.050031422
H   H304      1.0  0.30150  0.12140  0.11660  1.0000 0.1084946232
H   H305      1.0  0.27600  0.07700  0.14100  1.0000 0.0828368136
C   C446      1.0  0.43800  0.20600  0.16830  1.0000 -0.1199127901
H   H306      1.0  0.35000  0.07000  0.22500  1.0000 0.1024950919
C   C447      1.0  0.83700  0.61620  0.16300  1.0000 0.1169649909
C   C448      1.0  0.82190  0.63120  0.13120  1.0000 -0.2328846238
C   C449      1.0  0.82200  0.58310  0.17800  1.0000 -0.050031422
N   N275      1.0  0.78380  0.53890  0.18390  1.0000 -0.132613975
N   N276      1.0  0.80900  0.53440  0.20870  1.0000 -0.132613975
N   N277      1.0  0.83170  0.56200  0.20600  1.0000 -0.0667765424
C   C450      1.0  0.79120  0.56720  0.16360  1.0000 -0.050031422
H   H307      1.0  0.80150  0.62140  0.11660  1.0000 0.1084946232
H   H308      1.0  0.77600  0.57700  0.14100  1.0000 0.0828368136
C   C451      1.0  0.93800  0.70600  0.16830  1.0000 -0.1199127901
H   H309      1.0  0.85000  0.57000  0.22500  1.0000 0.1024950919
C   C452      1.0  0.83700  0.11620  0.66300  1.0000 0.1169649909
C   C453      1.0  0.82190  0.13120  0.63120  1.0000 -0.2328846238
C   C454      1.0  0.82200  0.08310  0.67800  1.0000 -0.050031422
N   N278      1.0  0.78380  0.03890  0.68390  1.0000 -0.132613975
N   N279      1.0  0.80900  0.03440  0.70870  1.0000 -0.132613975
N   N280      1.0  0.83170  0.06200  0.70600  1.0000 -0.0667765424
C   C455      1.0  0.79120  0.06720  0.66360  1.0000 -0.050031422
H   H310      1.0  0.80150  0.12140  0.61660  1.0000 0.1084946232
H   H311      1.0  0.77600  0.07700  0.64100  1.0000 0.0828368136
C   C456      1.0  0.93800  0.20600  0.66830  1.0000 -0.1199127901
H   H312      1.0  0.85000  0.07000  0.72500  1.0000 0.1024950919
C   C457      1.0  0.33700  0.38380  0.33700  1.0000 0.1169649909
C   C458      1.0  0.32190  0.36880  0.36880  1.0000 -0.2328846238
C   C459      1.0  0.32200  0.41690  0.32200  1.0000 -0.050031422
N   N281      1.0  0.28380  0.46110  0.31610  1.0000 -0.132613975
N   N282      1.0  0.30900  0.46560  0.29130  1.0000 -0.132613975
N   N283      1.0  0.33170  0.43800  0.29400  1.0000 -0.0667765424
C   C460      1.0  0.29120  0.43280  0.33640  1.0000 -0.050031422
H   H313      1.0  0.30150  0.37860  0.38340  1.0000 0.1084946232
H   H314      1.0  0.27600  0.42300  0.35900  1.0000 0.0828368136
C   C461      1.0  0.43800  0.29400  0.33170  1.0000 -0.1199127901
H   H315      1.0  0.35000  0.43000  0.27500  1.0000 0.1024950919
C   C462      1.0  0.33700  0.88380  0.83700  1.0000 0.1169649909
C   C463      1.0  0.32190  0.86880  0.86880  1.0000 -0.2328846238
C   C464      1.0  0.32200  0.91690  0.82200  1.0000 -0.050031422
N   N284      1.0  0.28380  0.96110  0.81610  1.0000 -0.132613975
N   N285      1.0  0.30900  0.96560  0.79130  1.0000 -0.132613975
N   N286      1.0  0.33170  0.93800  0.79400  1.0000 -0.0667765424
C   C465      1.0  0.29120  0.93280  0.83640  1.0000 -0.050031422
H   H316      1.0  0.30150  0.87860  0.88340  1.0000 0.1084946232
H   H317      1.0  0.27600  0.92300  0.85900  1.0000 0.0828368136
C   C466      1.0  0.43800  0.79400  0.83170  1.0000 -0.1199127901
H   H318      1.0  0.35000  0.93000  0.77500  1.0000 0.1024950919
C   C467      1.0  0.83700  0.38380  0.83700  1.0000 0.1169649909
C   C468      1.0  0.82190  0.36880  0.86880  1.0000 -0.2328846238
C   C469      1.0  0.82200  0.41690  0.82200  1.0000 -0.050031422
N   N287      1.0  0.78380  0.46110  0.81610  1.0000 -0.132613975
N   N288      1.0  0.80900  0.46560  0.79130  1.0000 -0.132613975
N   N289      1.0  0.83170  0.43800  0.79400  1.0000 -0.0667765424
C   C470      1.0  0.79120  0.43280  0.83640  1.0000 -0.050031422
H   H319      1.0  0.80150  0.37860  0.88340  1.0000 0.1084946232
H   H320      1.0  0.77600  0.42300  0.85900  1.0000 0.0828368136
C   C471      1.0  0.93800  0.29400  0.83170  1.0000 -0.1199127901
H   H321      1.0  0.85000  0.43000  0.77500  1.0000 0.1024950919
C   C472      1.0  0.83700  0.88380  0.33700  1.0000 0.1169649909
C   C473      1.0  0.82190  0.86880  0.36880  1.0000 -0.2328846238
C   C474      1.0  0.82200  0.91690  0.32200  1.0000 -0.050031422
N   N290      1.0  0.78380  0.96110  0.31610  1.0000 -0.132613975
N   N291      1.0  0.80900  0.96560  0.29130  1.0000 -0.132613975
N   N292      1.0  0.83170  0.93800  0.29400  1.0000 -0.0667765424
C   C475      1.0  0.79120  0.93280  0.33640  1.0000 -0.050031422
H   H322      1.0  0.80150  0.87860  0.38340  1.0000 0.1084946232
H   H323      1.0  0.77600  0.92300  0.35900  1.0000 0.0828368136
C   C476      1.0  0.93800  0.79400  0.33170  1.0000 -0.1199127901
H   H324      1.0  0.85000  0.93000  0.27500  1.0000 0.1024950919
C   C477      1.0  0.66300  0.61620  0.33700  1.0000 0.1169649909
C   C478      1.0  0.67810  0.63120  0.36880  1.0000 -0.2328846238
C   C479      1.0  0.67800  0.58310  0.32200  1.0000 -0.050031422
N   N293      1.0  0.71620  0.53890  0.31610  1.0000 -0.132613975
N   N294      1.0  0.69100  0.53440  0.29130  1.0000 -0.132613975
N   N295      1.0  0.66830  0.56200  0.29400  1.0000 -0.0667765424
C   C480      1.0  0.70880  0.56720  0.33640  1.0000 -0.050031422
H   H325      1.0  0.69850  0.62140  0.38340  1.0000 0.1084946232
H   H326      1.0  0.72400  0.57700  0.35900  1.0000 0.0828368136
C   C481      1.0  0.56200  0.70600  0.33170  1.0000 -0.1199127901
H   H327      1.0  0.65000  0.57000  0.27500  1.0000 0.1024950919
C   C482      1.0  0.66300  0.11620  0.83700  1.0000 0.1169649909
C   C483      1.0  0.67810  0.13120  0.86880  1.0000 -0.2328846238
C   C484      1.0  0.67800  0.08310  0.82200  1.0000 -0.050031422
N   N296      1.0  0.71620  0.03890  0.81610  1.0000 -0.132613975
N   N297      1.0  0.69100  0.03440  0.79130  1.0000 -0.132613975
N   N298      1.0  0.66830  0.06200  0.79400  1.0000 -0.0667765424
C   C485      1.0  0.70880  0.06720  0.83640  1.0000 -0.050031422
H   H328      1.0  0.69850  0.12140  0.88340  1.0000 0.1084946232
H   H329      1.0  0.72400  0.07700  0.85900  1.0000 0.0828368136
C   C486      1.0  0.56200  0.20600  0.83170  1.0000 -0.1199127901
H   H330      1.0  0.65000  0.07000  0.77500  1.0000 0.1024950919
C   C487      1.0  0.16300  0.61620  0.83700  1.0000 0.1169649909
C   C488      1.0  0.17810  0.63120  0.86880  1.0000 -0.2328846238
C   C489      1.0  0.17800  0.58310  0.82200  1.0000 -0.050031422
N   N299      1.0  0.21620  0.53890  0.81610  1.0000 -0.132613975
N   N300      1.0  0.19100  0.53440  0.79130  1.0000 -0.132613975
N   N301      1.0  0.16830  0.56200  0.79400  1.0000 -0.0667765424
C   C490      1.0  0.20880  0.56720  0.83640  1.0000 -0.050031422
H   H331      1.0  0.19850  0.62140  0.88340  1.0000 0.1084946232
H   H332      1.0  0.22400  0.57700  0.85900  1.0000 0.0828368136
C   C491      1.0  0.06200  0.70600  0.83170  1.0000 -0.1199127901
H   H333      1.0  0.15000  0.57000  0.77500  1.0000 0.1024950919
C   C492      1.0  0.16300  0.11620  0.33700  1.0000 0.1169649909
C   C493      1.0  0.17810  0.13120  0.36880  1.0000 -0.2328846238
C   C494      1.0  0.17800  0.08310  0.32200  1.0000 -0.050031422
N   N302      1.0  0.21620  0.03890  0.31610  1.0000 -0.132613975
N   N303      1.0  0.19100  0.03440  0.29130  1.0000 -0.132613975
N   N304      1.0  0.16830  0.06200  0.29400  1.0000 -0.0667765424
C   C495      1.0  0.20880  0.06720  0.33640  1.0000 -0.050031422
H   H334      1.0  0.19850  0.12140  0.38340  1.0000 0.1084946232
H   H335      1.0  0.22400  0.07700  0.35900  1.0000 0.0828368136
C   C496      1.0  0.06200  0.20600  0.33170  1.0000 -0.1199127901
H   H336      1.0  0.15000  0.07000  0.27500  1.0000 0.1024950919
C   C497      1.0  0.66300  0.66300  0.38380  1.0000 0.1169649909
C   C498      1.0  0.63120  0.67810  0.36880  1.0000 -0.2417002038
C   C499      1.0  0.67800  0.67800  0.41690  1.0000 -0.050031422
N   N305      1.0  0.68390  0.71620  0.46110  1.0000 -0.1199127901
N   N306      1.0  0.70870  0.69100  0.46560  1.0000 -0.132613975
N   N307      1.0  0.70600  0.66830  0.43800  1.0000 -0.0667765424
C   C500      1.0  0.66360  0.70880  0.43280  1.0000 -0.0418234006
H   H337      1.0  0.61660  0.69850  0.37860  1.0000 0.1024950919
H   H338      1.0  0.64100  0.72400  0.42300  1.0000 0.0865266243
H   H339      1.0  0.72500  0.65000  0.43000  1.0000 0.1024950919
C   C501      1.0  0.66300  0.16300  0.88380  1.0000 0.1169649909
C   C502      1.0  0.63120  0.17810  0.86880  1.0000 -0.2417002038
C   C503      1.0  0.67800  0.17800  0.91690  1.0000 -0.050031422
N   N308      1.0  0.68390  0.21620  0.96110  1.0000 -0.1199127901
N   N309      1.0  0.70870  0.19100  0.96560  1.0000 -0.132613975
N   N310      1.0  0.70600  0.16830  0.93800  1.0000 -0.0667765424
C   C504      1.0  0.66360  0.20880  0.93280  1.0000 -0.0418234006
H   H340      1.0  0.61660  0.19850  0.87860  1.0000 0.1024950919
H   H341      1.0  0.64100  0.22400  0.92300  1.0000 0.0865266243
H   H342      1.0  0.72500  0.15000  0.93000  1.0000 0.1024950919
C   C505      1.0  0.16300  0.66300  0.88380  1.0000 0.1169649909
C   C506      1.0  0.13120  0.67810  0.86880  1.0000 -0.2417002038
C   C507      1.0  0.17800  0.67800  0.91690  1.0000 -0.050031422
N   N311      1.0  0.18390  0.71620  0.96110  1.0000 -0.1199127901
N   N312      1.0  0.20870  0.69100  0.96560  1.0000 -0.132613975
N   N313      1.0  0.20600  0.66830  0.93800  1.0000 -0.0667765424
C   C508      1.0  0.16360  0.70880  0.93280  1.0000 -0.0418234006
H   H343      1.0  0.11660  0.69850  0.87860  1.0000 0.1024950919
H   H344      1.0  0.14100  0.72400  0.92300  1.0000 0.0865266243
H   H345      1.0  0.22500  0.65000  0.93000  1.0000 0.1024950919
C   C509      1.0  0.16300  0.16300  0.38380  1.0000 0.1169649909
C   C510      1.0  0.13120  0.17810  0.36880  1.0000 -0.2417002038
C   C511      1.0  0.17800  0.17800  0.41690  1.0000 -0.050031422
N   N314      1.0  0.18390  0.21620  0.46110  1.0000 -0.1199127901
N   N315      1.0  0.20870  0.19100  0.46560  1.0000 -0.132613975
N   N316      1.0  0.20600  0.16830  0.43800  1.0000 -0.0667765424
C   C512      1.0  0.16360  0.20880  0.43280  1.0000 -0.0418234006
H   H346      1.0  0.11660  0.19850  0.37860  1.0000 0.1024950919
H   H347      1.0  0.14100  0.22400  0.42300  1.0000 0.0865266243
H   H348      1.0  0.22500  0.15000  0.43000  1.0000 0.1024950919
C   C513      1.0  0.66300  0.33700  0.61620  1.0000 0.1169649909
C   C514      1.0  0.63120  0.32190  0.63120  1.0000 -0.2417002038
C   C515      1.0  0.67800  0.32200  0.58310  1.0000 -0.050031422
N   N317      1.0  0.68390  0.28380  0.53890  1.0000 -0.1199127901
N   N318      1.0  0.70870  0.30900  0.53440  1.0000 -0.132613975
N   N319      1.0  0.70600  0.33170  0.56200  1.0000 -0.0667765424
C   C516      1.0  0.66360  0.29120  0.56720  1.0000 -0.0418234006
H   H349      1.0  0.61660  0.30150  0.62140  1.0000 0.1024950919
H   H350      1.0  0.64100  0.27600  0.57700  1.0000 0.0865266243
H   H351      1.0  0.72500  0.35000  0.57000  1.0000 0.1024950919
C   C517      1.0  0.66300  0.83700  0.11620  1.0000 0.1169649909
C   C518      1.0  0.63120  0.82190  0.13120  1.0000 -0.2417002038
C   C519      1.0  0.67800  0.82200  0.08310  1.0000 -0.050031422
N   N320      1.0  0.68390  0.78380  0.03890  1.0000 -0.1199127901
N   N321      1.0  0.70870  0.80900  0.03440  1.0000 -0.132613975
N   N322      1.0  0.70600  0.83170  0.06200  1.0000 -0.0667765424
C   C520      1.0  0.66360  0.79120  0.06720  1.0000 -0.0418234006
H   H352      1.0  0.61660  0.80150  0.12140  1.0000 0.1024950919
H   H353      1.0  0.64100  0.77600  0.07700  1.0000 0.0865266243
H   H354      1.0  0.72500  0.85000  0.07000  1.0000 0.1024950919
C   C521      1.0  0.16300  0.33700  0.11620  1.0000 0.1169649909
C   C522      1.0  0.13120  0.32190  0.13120  1.0000 -0.2417002038
C   C523      1.0  0.17800  0.32200  0.08310  1.0000 -0.050031422
N   N323      1.0  0.18390  0.28380  0.03890  1.0000 -0.1199127901
N   N324      1.0  0.20870  0.30900  0.03440  1.0000 -0.132613975
N   N325      1.0  0.20600  0.33170  0.06200  1.0000 -0.0667765424
C   C524      1.0  0.16360  0.29120  0.06720  1.0000 -0.0418234006
H   H355      1.0  0.11660  0.30150  0.12140  1.0000 0.1024950919
H   H356      1.0  0.14100  0.27600  0.07700  1.0000 0.0865266243
H   H357      1.0  0.22500  0.35000  0.07000  1.0000 0.1024950919
C   C525      1.0  0.16300  0.83700  0.61620  1.0000 0.1169649909
C   C526      1.0  0.13120  0.82190  0.63120  1.0000 -0.2417002038
C   C527      1.0  0.17800  0.82200  0.58310  1.0000 -0.050031422
N   N326      1.0  0.18390  0.78380  0.53890  1.0000 -0.1199127901
N   N327      1.0  0.20870  0.80900  0.53440  1.0000 -0.132613975
N   N328      1.0  0.20600  0.83170  0.56200  1.0000 -0.0667765424
C   C528      1.0  0.16360  0.79120  0.56720  1.0000 -0.0418234006
H   H358      1.0  0.11660  0.80150  0.62140  1.0000 0.1024950919
H   H359      1.0  0.14100  0.77600  0.57700  1.0000 0.0865266243
H   H360      1.0  0.22500  0.85000  0.57000  1.0000 0.1024950919
C   C529      1.0  0.33700  0.33700  0.38380  1.0000 0.1169649909
C   C530      1.0  0.36880  0.32190  0.36880  1.0000 -0.2417002038
C   C531      1.0  0.32200  0.32200  0.41690  1.0000 -0.050031422
N   N329      1.0  0.31610  0.28380  0.46110  1.0000 -0.1199127901
N   N330      1.0  0.29130  0.30900  0.46560  1.0000 -0.132613975
N   N331      1.0  0.29400  0.33170  0.43800  1.0000 -0.0667765424
C   C532      1.0  0.33640  0.29120  0.43280  1.0000 -0.0418234006
H   H361      1.0  0.38340  0.30150  0.37860  1.0000 0.1024950919
H   H362      1.0  0.35900  0.27600  0.42300  1.0000 0.0865266243
H   H363      1.0  0.27500  0.35000  0.43000  1.0000 0.1024950919
C   C533      1.0  0.33700  0.83700  0.88380  1.0000 0.1169649909
C   C534      1.0  0.36880  0.82190  0.86880  1.0000 -0.2417002038
C   C535      1.0  0.32200  0.82200  0.91690  1.0000 -0.050031422
N   N332      1.0  0.31610  0.78380  0.96110  1.0000 -0.1199127901
N   N333      1.0  0.29130  0.80900  0.96560  1.0000 -0.132613975
N   N334      1.0  0.29400  0.83170  0.93800  1.0000 -0.0667765424
C   C536      1.0  0.33640  0.79120  0.93280  1.0000 -0.0418234006
H   H364      1.0  0.38340  0.80150  0.87860  1.0000 0.1024950919
H   H365      1.0  0.35900  0.77600  0.92300  1.0000 0.0865266243
H   H366      1.0  0.27500  0.85000  0.93000  1.0000 0.1024950919
C   C537      1.0  0.83700  0.33700  0.88380  1.0000 0.1169649909
C   C538      1.0  0.86880  0.32190  0.86880  1.0000 -0.2417002038
C   C539      1.0  0.82200  0.32200  0.91690  1.0000 -0.050031422
N   N335      1.0  0.81610  0.28380  0.96110  1.0000 -0.1199127901
N   N336      1.0  0.79130  0.30900  0.96560  1.0000 -0.132613975
N   N337      1.0  0.79400  0.33170  0.93800  1.0000 -0.0667765424
C   C540      1.0  0.83640  0.29120  0.93280  1.0000 -0.0418234006
H   H367      1.0  0.88340  0.30150  0.87860  1.0000 0.1024950919
H   H368      1.0  0.85900  0.27600  0.92300  1.0000 0.0865266243
H   H369      1.0  0.77500  0.35000  0.93000  1.0000 0.1024950919
C   C541      1.0  0.83700  0.83700  0.38380  1.0000 0.1169649909
C   C542      1.0  0.86880  0.82190  0.36880  1.0000 -0.2417002038
C   C543      1.0  0.82200  0.82200  0.41690  1.0000 -0.050031422
N   N338      1.0  0.81610  0.78380  0.46110  1.0000 -0.1199127901
N   N339      1.0  0.79130  0.80900  0.46560  1.0000 -0.132613975
N   N340      1.0  0.79400  0.83170  0.43800  1.0000 -0.0667765424
C   C544      1.0  0.83640  0.79120  0.43280  1.0000 -0.0418234006
H   H370      1.0  0.88340  0.80150  0.37860  1.0000 0.1024950919
H   H371      1.0  0.85900  0.77600  0.42300  1.0000 0.0865266243
H   H372      1.0  0.77500  0.85000  0.43000  1.0000 0.1024950919
C   C545      1.0  0.33700  0.66300  0.61620  1.0000 0.1169649909
C   C546      1.0  0.36880  0.67810  0.63120  1.0000 -0.2417002038
C   C547      1.0  0.32200  0.67800  0.58310  1.0000 -0.050031422
N   N341      1.0  0.31610  0.71620  0.53890  1.0000 -0.1199127901
N   N342      1.0  0.29130  0.69100  0.53440  1.0000 -0.132613975
N   N343      1.0  0.29400  0.66830  0.56200  1.0000 -0.0667765424
C   C548      1.0  0.33640  0.70880  0.56720  1.0000 -0.0418234006
H   H373      1.0  0.38340  0.69850  0.62140  1.0000 0.1024950919
H   H374      1.0  0.35900  0.72400  0.57700  1.0000 0.0865266243
H   H375      1.0  0.27500  0.65000  0.57000  1.0000 0.1024950919
C   C549      1.0  0.33700  0.16300  0.11620  1.0000 0.1169649909
C   C550      1.0  0.36880  0.17810  0.13120  1.0000 -0.2417002038
C   C551      1.0  0.32200  0.17800  0.08310  1.0000 -0.050031422
N   N344      1.0  0.31610  0.21620  0.03890  1.0000 -0.1199127901
N   N345      1.0  0.29130  0.19100  0.03440  1.0000 -0.132613975
N   N346      1.0  0.29400  0.16830  0.06200  1.0000 -0.0667765424
C   C552      1.0  0.33640  0.20880  0.06720  1.0000 -0.0418234006
H   H376      1.0  0.38340  0.19850  0.12140  1.0000 0.1024950919
H   H377      1.0  0.35900  0.22400  0.07700  1.0000 0.0865266243
H   H378      1.0  0.27500  0.15000  0.07000  1.0000 0.1024950919
C   C553      1.0  0.83700  0.66300  0.11620  1.0000 0.1169649909
C   C554      1.0  0.86880  0.67810  0.13120  1.0000 -0.2417002038
C   C555      1.0  0.82200  0.67800  0.08310  1.0000 -0.050031422
N   N347      1.0  0.81610  0.71620  0.03890  1.0000 -0.1199127901
N   N348      1.0  0.79130  0.69100  0.03440  1.0000 -0.132613975
N   N349      1.0  0.79400  0.66830  0.06200  1.0000 -0.0667765424
C   C556      1.0  0.83640  0.70880  0.06720  1.0000 -0.0418234006
H   H379      1.0  0.88340  0.69850  0.12140  1.0000 0.1024950919
H   H380      1.0  0.85900  0.72400  0.07700  1.0000 0.0865266243
H   H381      1.0  0.77500  0.65000  0.07000  1.0000 0.1024950919
C   C557      1.0  0.83700  0.16300  0.61620  1.0000 0.1169649909
C   C558      1.0  0.86880  0.17810  0.63120  1.0000 -0.2417002038
C   C559      1.0  0.82200  0.17800  0.58310  1.0000 -0.050031422
N   N350      1.0  0.81610  0.21620  0.53890  1.0000 -0.1199127901
N   N351      1.0  0.79130  0.19100  0.53440  1.0000 -0.132613975
N   N352      1.0  0.79400  0.16830  0.56200  1.0000 -0.0667765424
C   C560      1.0  0.83640  0.20880  0.56720  1.0000 -0.0418234006
H   H382      1.0  0.88340  0.19850  0.62140  1.0000 0.1024950919
H   H383      1.0  0.85900  0.22400  0.57700  1.0000 0.0865266243
H   H384      1.0  0.77500  0.15000  0.57000  1.0000 0.1024950919
C   C561      1.0  0.38380  0.66300  0.66300  1.0000 0.0686218149
C   C562      1.0  0.36880  0.63120  0.67810  1.0000 -0.2328846238
C   C563      1.0  0.41690  0.67800  0.67800  1.0000 0.1084946232
N   N353      1.0  0.46110  0.68390  0.71620  1.0000 -0.1128288514
N   N354      1.0  0.46560  0.70870  0.69100  1.0000 -0.0418234006
C   C564      1.0  0.43280  0.66360  0.70880  1.0000 -0.0799523226
H   H385      1.0  0.37860  0.61660  0.69850  1.0000 0.1084946232
H   H386      1.0  0.42300  0.64100  0.72400  1.0000 0.1169649909
H   H387      1.0  0.43000  0.72500  0.65000  1.0000 0.2775780766
C   C565      1.0  0.38380  0.16300  0.16300  1.0000 0.0686218149
C   C566      1.0  0.36880  0.13120  0.17810  1.0000 -0.2328846238
C   C567      1.0  0.41690  0.17800  0.17800  1.0000 0.1084946232
N   N355      1.0  0.46110  0.18390  0.21620  1.0000 -0.1128288514
N   N356      1.0  0.46560  0.20870  0.19100  1.0000 -0.0418234006
C   C568      1.0  0.43280  0.16360  0.20880  1.0000 -0.0799523226
H   H388      1.0  0.37860  0.11660  0.19850  1.0000 0.1084946232
H   H389      1.0  0.42300  0.14100  0.22400  1.0000 0.1169649909
H   H390      1.0  0.43000  0.22500  0.15000  1.0000 0.2775780766
C   C569      1.0  0.88380  0.66300  0.16300  1.0000 0.0686218149
C   C570      1.0  0.86880  0.63120  0.17810  1.0000 -0.2328846238
C   C571      1.0  0.91690  0.67800  0.17800  1.0000 0.1084946232
N   N357      1.0  0.96110  0.68390  0.21620  1.0000 -0.1128288514
N   N358      1.0  0.96560  0.70870  0.19100  1.0000 -0.0418234006
C   C572      1.0  0.93280  0.66360  0.20880  1.0000 -0.0799523226
H   H391      1.0  0.87860  0.61660  0.19850  1.0000 0.1084946232
H   H392      1.0  0.92300  0.64100  0.22400  1.0000 0.1169649909
H   H393      1.0  0.93000  0.72500  0.15000  1.0000 0.2775780766
C   C573      1.0  0.88380  0.16300  0.66300  1.0000 0.0686218149
C   C574      1.0  0.86880  0.13120  0.67810  1.0000 -0.2328846238
C   C575      1.0  0.91690  0.17800  0.67800  1.0000 0.1084946232
N   N359      1.0  0.96110  0.18390  0.71620  1.0000 -0.1128288514
N   N360      1.0  0.96560  0.20870  0.69100  1.0000 -0.0418234006
C   C576      1.0  0.93280  0.16360  0.70880  1.0000 -0.0799523226
H   H394      1.0  0.87860  0.11660  0.69850  1.0000 0.1084946232
H   H395      1.0  0.92300  0.14100  0.72400  1.0000 0.1169649909
H   H396      1.0  0.93000  0.22500  0.65000  1.0000 0.2775780766
C   C577      1.0  0.61620  0.66300  0.33700  1.0000 0.0686218149
C   C578      1.0  0.63120  0.63120  0.32190  1.0000 -0.2328846238
C   C579      1.0  0.58310  0.67800  0.32200  1.0000 0.1084946232
N   N361      1.0  0.53890  0.68390  0.28380  1.0000 -0.1128288514
N   N362      1.0  0.53440  0.70870  0.30900  1.0000 -0.0418234006
C   C580      1.0  0.56720  0.66360  0.29120  1.0000 -0.0799523226
H   H397      1.0  0.62140  0.61660  0.30150  1.0000 0.1084946232
H   H398      1.0  0.57700  0.64100  0.27600  1.0000 0.1169649909
H   H399      1.0  0.57000  0.72500  0.35000  1.0000 0.2775780766
C   C581      1.0  0.61620  0.16300  0.83700  1.0000 0.0686218149
C   C582      1.0  0.63120  0.13120  0.82190  1.0000 -0.2328846238
C   C583      1.0  0.58310  0.17800  0.82200  1.0000 0.1084946232
N   N363      1.0  0.53890  0.18390  0.78380  1.0000 -0.1128288514
N   N364      1.0  0.53440  0.20870  0.80900  1.0000 -0.0418234006
C   C584      1.0  0.56720  0.16360  0.79120  1.0000 -0.0799523226
H   H400      1.0  0.62140  0.11660  0.80150  1.0000 0.1084946232
H   H401      1.0  0.57700  0.14100  0.77600  1.0000 0.1169649909
H   H402      1.0  0.57000  0.22500  0.85000  1.0000 0.2775780766
C   C585      1.0  0.11620  0.66300  0.83700  1.0000 0.0686218149
C   C586      1.0  0.13120  0.63120  0.82190  1.0000 -0.2328846238
C   C587      1.0  0.08310  0.67800  0.82200  1.0000 0.1084946232
N   N365      1.0  0.03890  0.68390  0.78380  1.0000 -0.1128288514
N   N366      1.0  0.03440  0.70870  0.80900  1.0000 -0.0418234006
C   C588      1.0  0.06720  0.66360  0.79120  1.0000 -0.0799523226
H   H403      1.0  0.12140  0.61660  0.80150  1.0000 0.1084946232
H   H404      1.0  0.07700  0.64100  0.77600  1.0000 0.1169649909
H   H405      1.0  0.07000  0.72500  0.85000  1.0000 0.2775780766
C   C589      1.0  0.11620  0.16300  0.33700  1.0000 0.0686218149
C   C590      1.0  0.13120  0.13120  0.32190  1.0000 -0.2328846238
C   C591      1.0  0.08310  0.17800  0.32200  1.0000 0.1084946232
N   N367      1.0  0.03890  0.18390  0.28380  1.0000 -0.1128288514
N   N368      1.0  0.03440  0.20870  0.30900  1.0000 -0.0418234006
C   C592      1.0  0.06720  0.16360  0.29120  1.0000 -0.0799523226
H   H406      1.0  0.12140  0.11660  0.30150  1.0000 0.1084946232
H   H407      1.0  0.07700  0.14100  0.27600  1.0000 0.1169649909
H   H408      1.0  0.07000  0.22500  0.35000  1.0000 0.2775780766
C   C593      1.0  0.38380  0.33700  0.33700  1.0000 0.0686218149
C   C594      1.0  0.36880  0.36880  0.32190  1.0000 -0.2328846238
C   C595      1.0  0.41690  0.32200  0.32200  1.0000 0.1084946232
N   N369      1.0  0.46110  0.31610  0.28380  1.0000 -0.1128288514
N   N370      1.0  0.46560  0.29130  0.30900  1.0000 -0.0418234006
C   C596      1.0  0.43280  0.33640  0.29120  1.0000 -0.0799523226
H   H409      1.0  0.37860  0.38340  0.30150  1.0000 0.1084946232
H   H410      1.0  0.42300  0.35900  0.27600  1.0000 0.1169649909
H   H411      1.0  0.43000  0.27500  0.35000  1.0000 0.2775780766
C   C597      1.0  0.38380  0.83700  0.83700  1.0000 0.0686218149
C   C598      1.0  0.36880  0.86880  0.82190  1.0000 -0.2328846238
C   C599      1.0  0.41690  0.82200  0.82200  1.0000 0.1084946232
N   N371      1.0  0.46110  0.81610  0.78380  1.0000 -0.1128288514
N   N372      1.0  0.46560  0.79130  0.80900  1.0000 -0.0418234006
C   C600      1.0  0.43280  0.83640  0.79120  1.0000 -0.0799523226
H   H412      1.0  0.37860  0.88340  0.80150  1.0000 0.1084946232
H   H413      1.0  0.42300  0.85900  0.77600  1.0000 0.1169649909
H   H414      1.0  0.43000  0.77500  0.85000  1.0000 0.2775780766
C   C601      1.0  0.88380  0.33700  0.83700  1.0000 0.0686218149
C   C602      1.0  0.86880  0.36880  0.82190  1.0000 -0.2328846238
C   C603      1.0  0.91690  0.32200  0.82200  1.0000 0.1084946232
N   N373      1.0  0.96110  0.31610  0.78380  1.0000 -0.1128288514
N   N374      1.0  0.96560  0.29130  0.80900  1.0000 -0.0418234006
C   C604      1.0  0.93280  0.33640  0.79120  1.0000 -0.0799523226
H   H415      1.0  0.87860  0.38340  0.80150  1.0000 0.1084946232
H   H416      1.0  0.92300  0.35900  0.77600  1.0000 0.1169649909
H   H417      1.0  0.93000  0.27500  0.85000  1.0000 0.2775780766
C   C605      1.0  0.88380  0.83700  0.33700  1.0000 0.0686218149
C   C606      1.0  0.86880  0.86880  0.32190  1.0000 -0.2328846238
C   C607      1.0  0.91690  0.82200  0.32200  1.0000 0.1084946232
N   N375      1.0  0.96110  0.81610  0.28380  1.0000 -0.1128288514
N   N376      1.0  0.96560  0.79130  0.30900  1.0000 -0.0418234006
C   C608      1.0  0.93280  0.83640  0.29120  1.0000 -0.0799523226
H   H418      1.0  0.87860  0.88340  0.30150  1.0000 0.1084946232
H   H419      1.0  0.92300  0.85900  0.27600  1.0000 0.1169649909
H   H420      1.0  0.93000  0.77500  0.35000  1.0000 0.2775780766
C   C609      1.0  0.61620  0.33700  0.66300  1.0000 0.0686218149
C   C610      1.0  0.63120  0.36880  0.67810  1.0000 -0.2328846238
C   C611      1.0  0.58310  0.32200  0.67800  1.0000 0.1084946232
N   N377      1.0  0.53890  0.31610  0.71620  1.0000 -0.1128288514
N   N378      1.0  0.53440  0.29130  0.69100  1.0000 -0.0418234006
C   C612      1.0  0.56720  0.33640  0.70880  1.0000 -0.0799523226
H   H421      1.0  0.62140  0.38340  0.69850  1.0000 0.1084946232
H   H422      1.0  0.57700  0.35900  0.72400  1.0000 0.1169649909
H   H423      1.0  0.57000  0.27500  0.65000  1.0000 0.2775780766
C   C613      1.0  0.61620  0.83700  0.16300  1.0000 0.0686218149
C   C614      1.0  0.63120  0.86880  0.17810  1.0000 -0.2328846238
C   C615      1.0  0.58310  0.82200  0.17800  1.0000 0.1084946232
N   N379      1.0  0.53890  0.81610  0.21620  1.0000 -0.1128288514
N   N380      1.0  0.53440  0.79130  0.19100  1.0000 -0.0418234006
C   C616      1.0  0.56720  0.83640  0.20880  1.0000 -0.0799523226
H   H424      1.0  0.62140  0.88340  0.19850  1.0000 0.1084946232
H   H425      1.0  0.57700  0.85900  0.22400  1.0000 0.1169649909
H   H426      1.0  0.57000  0.77500  0.15000  1.0000 0.2775780766
C   C617      1.0  0.11620  0.33700  0.16300  1.0000 0.0686218149
C   C618      1.0  0.13120  0.36880  0.17810  1.0000 -0.2328846238
C   C619      1.0  0.08310  0.32200  0.17800  1.0000 0.1084946232
N   N381      1.0  0.03890  0.31610  0.21620  1.0000 -0.1128288514
N   N382      1.0  0.03440  0.29130  0.19100  1.0000 -0.0418234006
C   C620      1.0  0.06720  0.33640  0.20880  1.0000 -0.0799523226
H   H427      1.0  0.12140  0.38340  0.19850  1.0000 0.1084946232
H   H428      1.0  0.07700  0.35900  0.22400  1.0000 0.1169649909
H   H429      1.0  0.07000  0.27500  0.15000  1.0000 0.2775780766
C   C621      1.0  0.11620  0.83700  0.66300  1.0000 0.0686218149
C   C622      1.0  0.13120  0.86880  0.67810  1.0000 -0.2328846238
C   C623      1.0  0.08310  0.82200  0.67800  1.0000 0.1084946232
N   N383      1.0  0.03890  0.81610  0.71620  1.0000 -0.1128288514
N   N384      1.0  0.03440  0.79130  0.69100  1.0000 -0.0418234006
C   C624      1.0  0.06720  0.83640  0.70880  1.0000 -0.0799523226
H   H430      1.0  0.12140  0.88340  0.69850  1.0000 0.1084946232
H   H431      1.0  0.07700  0.85900  0.72400  1.0000 0.1169649909
H   H432      1.0  0.07000  0.77500  0.65000  1.0000 0.2775780766
C   C625      1.0  0.88380  0.16300  0.83700  1.0000 0.1169649909
C   C626      1.0  0.86880  0.17810  0.86880  1.0000 -0.2328846238
C   C627      1.0  0.91690  0.17800  0.82200  1.0000 -0.050031422
N   N385      1.0  0.96110  0.21620  0.81610  1.0000 -0.132613975
N   N386      1.0  0.96560  0.19100  0.79130  1.0000 -0.132613975
N   N387      1.0  0.93800  0.16830  0.79400  1.0000 -0.0667765424
C   C628      1.0  0.93280  0.20880  0.83640  1.0000 -0.050031422
H   H433      1.0  0.87860  0.19850  0.88340  1.0000 0.1084946232
H   H434      1.0  0.92300  0.22400  0.85900  1.0000 0.0828368136
C   C629      1.0  0.79400  0.06200  0.83170  1.0000 -0.1199127901
H   H435      1.0  0.93000  0.15000  0.77500  1.0000 0.1024950919
C   C630      1.0  0.88380  0.66300  0.33700  1.0000 0.1169649909
C   C631      1.0  0.86880  0.67810  0.36880  1.0000 -0.2328846238
C   C632      1.0  0.91690  0.67800  0.32200  1.0000 -0.050031422
N   N388      1.0  0.96110  0.71620  0.31610  1.0000 -0.132613975
N   N389      1.0  0.96560  0.69100  0.29130  1.0000 -0.132613975
N   N390      1.0  0.93800  0.66830  0.29400  1.0000 -0.0667765424
C   C633      1.0  0.93280  0.70880  0.33640  1.0000 -0.050031422
H   H436      1.0  0.87860  0.69850  0.38340  1.0000 0.1084946232
H   H437      1.0  0.92300  0.72400  0.35900  1.0000 0.0828368136
C   C634      1.0  0.79400  0.56200  0.33170  1.0000 -0.1199127901
H   H438      1.0  0.93000  0.65000  0.27500  1.0000 0.1024950919
C   C635      1.0  0.38380  0.16300  0.33700  1.0000 0.1169649909
C   C636      1.0  0.36880  0.17810  0.36880  1.0000 -0.2328846238
C   C637      1.0  0.41690  0.17800  0.32200  1.0000 -0.050031422
N   N391      1.0  0.46110  0.21620  0.31610  1.0000 -0.132613975
N   N392      1.0  0.46560  0.19100  0.29130  1.0000 -0.132613975
N   N393      1.0  0.43800  0.16830  0.29400  1.0000 -0.0667765424
C   C638      1.0  0.43280  0.20880  0.33640  1.0000 -0.050031422
H   H439      1.0  0.37860  0.19850  0.38340  1.0000 0.1084946232
H   H440      1.0  0.42300  0.22400  0.35900  1.0000 0.0828368136
C   C639      1.0  0.29400  0.06200  0.33170  1.0000 -0.1199127901
H   H441      1.0  0.43000  0.15000  0.27500  1.0000 0.1024950919
C   C640      1.0  0.38380  0.66300  0.83700  1.0000 0.1169649909
C   C641      1.0  0.36880  0.67810  0.86880  1.0000 -0.2328846238
C   C642      1.0  0.41690  0.67800  0.82200  1.0000 -0.050031422
N   N394      1.0  0.46110  0.71620  0.81610  1.0000 -0.132613975
N   N395      1.0  0.46560  0.69100  0.79130  1.0000 -0.132613975
N   N396      1.0  0.43800  0.66830  0.79400  1.0000 -0.0667765424
C   C643      1.0  0.43280  0.70880  0.83640  1.0000 -0.050031422
H   H442      1.0  0.37860  0.69850  0.88340  1.0000 0.1084946232
H   H443      1.0  0.42300  0.72400  0.85900  1.0000 0.0828368136
C   C644      1.0  0.29400  0.56200  0.83170  1.0000 -0.1199127901
H   H444      1.0  0.43000  0.65000  0.77500  1.0000 0.1024950919
C   C645      1.0  0.11620  0.83700  0.83700  1.0000 0.1169649909
C   C646      1.0  0.13120  0.82190  0.86880  1.0000 -0.2328846238
C   C647      1.0  0.08310  0.82200  0.82200  1.0000 -0.050031422
N   N397      1.0  0.03890  0.78380  0.81610  1.0000 -0.132613975
N   N398      1.0  0.03440  0.80900  0.79130  1.0000 -0.132613975
N   N399      1.0  0.06200  0.83170  0.79400  1.0000 -0.0667765424
C   C648      1.0  0.06720  0.79120  0.83640  1.0000 -0.050031422
H   H445      1.0  0.12140  0.80150  0.88340  1.0000 0.1084946232
H   H446      1.0  0.07700  0.77600  0.85900  1.0000 0.0828368136
C   C649      1.0  0.20600  0.93800  0.83170  1.0000 -0.1199127901
H   H447      1.0  0.07000  0.85000  0.77500  1.0000 0.1024950919
C   C650      1.0  0.11620  0.33700  0.33700  1.0000 0.1169649909
C   C651      1.0  0.13120  0.32190  0.36880  1.0000 -0.2328846238
C   C652      1.0  0.08310  0.32200  0.32200  1.0000 -0.050031422
N   N400      1.0  0.03890  0.28380  0.31610  1.0000 -0.132613975
N   N401      1.0  0.03440  0.30900  0.29130  1.0000 -0.132613975
N   N402      1.0  0.06200  0.33170  0.29400  1.0000 -0.0667765424
C   C653      1.0  0.06720  0.29120  0.33640  1.0000 -0.050031422
H   H448      1.0  0.12140  0.30150  0.38340  1.0000 0.1084946232
H   H449      1.0  0.07700  0.27600  0.35900  1.0000 0.0828368136
C   C654      1.0  0.20600  0.43800  0.33170  1.0000 -0.1199127901
H   H450      1.0  0.07000  0.35000  0.27500  1.0000 0.1024950919
C   C655      1.0  0.61620  0.83700  0.33700  1.0000 0.1169649909
C   C656      1.0  0.63120  0.82190  0.36880  1.0000 -0.2328846238
C   C657      1.0  0.58310  0.82200  0.32200  1.0000 -0.050031422
N   N403      1.0  0.53890  0.78380  0.31610  1.0000 -0.132613975
N   N404      1.0  0.53440  0.80900  0.29130  1.0000 -0.132613975
N   N405      1.0  0.56200  0.83170  0.29400  1.0000 -0.0667765424
C   C658      1.0  0.56720  0.79120  0.33640  1.0000 -0.050031422
H   H451      1.0  0.62140  0.80150  0.38340  1.0000 0.1084946232
H   H452      1.0  0.57700  0.77600  0.35900  1.0000 0.0828368136
C   C659      1.0  0.70600  0.93800  0.33170  1.0000 -0.1199127901
H   H453      1.0  0.57000  0.85000  0.27500  1.0000 0.1024950919
C   C660      1.0  0.61620  0.33700  0.83700  1.0000 0.1169649909
C   C661      1.0  0.63120  0.32190  0.86880  1.0000 -0.2328846238
C   C662      1.0  0.58310  0.32200  0.82200  1.0000 -0.050031422
N   N406      1.0  0.53890  0.28380  0.81610  1.0000 -0.132613975
N   N407      1.0  0.53440  0.30900  0.79130  1.0000 -0.132613975
N   N408      1.0  0.56200  0.33170  0.79400  1.0000 -0.0667765424
C   C663      1.0  0.56720  0.29120  0.83640  1.0000 -0.050031422
H   H454      1.0  0.62140  0.30150  0.88340  1.0000 0.1084946232
H   H455      1.0  0.57700  0.27600  0.85900  1.0000 0.0828368136
C   C664      1.0  0.70600  0.43800  0.83170  1.0000 -0.1199127901
H   H456      1.0  0.57000  0.35000  0.77500  1.0000 0.1024950919
C   C665      1.0  0.88380  0.83700  0.16300  1.0000 0.1169649909
C   C666      1.0  0.86880  0.82190  0.13120  1.0000 -0.2328846238
C   C667      1.0  0.91690  0.82200  0.17800  1.0000 -0.050031422
N   N409      1.0  0.96110  0.78380  0.18390  1.0000 -0.132613975
N   N410      1.0  0.96560  0.80900  0.20870  1.0000 -0.132613975
N   N411      1.0  0.93800  0.83170  0.20600  1.0000 -0.0667765424
C   C668      1.0  0.93280  0.79120  0.16360  1.0000 -0.050031422
H   H457      1.0  0.87860  0.80150  0.11660  1.0000 0.1084946232
H   H458      1.0  0.92300  0.77600  0.14100  1.0000 0.0828368136
C   C669      1.0  0.79400  0.93800  0.16830  1.0000 -0.1199127901
H   H459      1.0  0.93000  0.85000  0.22500  1.0000 0.1024950919
C   C670      1.0  0.88380  0.33700  0.66300  1.0000 0.1169649909
C   C671      1.0  0.86880  0.32190  0.63120  1.0000 -0.2328846238
C   C672      1.0  0.91690  0.32200  0.67800  1.0000 -0.050031422
N   N412      1.0  0.96110  0.28380  0.68390  1.0000 -0.132613975
N   N413      1.0  0.96560  0.30900  0.70870  1.0000 -0.132613975
N   N414      1.0  0.93800  0.33170  0.70600  1.0000 -0.0667765424
C   C673      1.0  0.93280  0.29120  0.66360  1.0000 -0.050031422
H   H460      1.0  0.87860  0.30150  0.61660  1.0000 0.1084946232
H   H461      1.0  0.92300  0.27600  0.64100  1.0000 0.0828368136
C   C674      1.0  0.79400  0.43800  0.66830  1.0000 -0.1199127901
H   H462      1.0  0.93000  0.35000  0.72500  1.0000 0.1024950919
C   C675      1.0  0.38380  0.83700  0.66300  1.0000 0.1169649909
C   C676      1.0  0.36880  0.82190  0.63120  1.0000 -0.2328846238
C   C677      1.0  0.41690  0.82200  0.67800  1.0000 -0.050031422
N   N415      1.0  0.46110  0.78380  0.68390  1.0000 -0.132613975
N   N416      1.0  0.46560  0.80900  0.70870  1.0000 -0.132613975
N   N417      1.0  0.43800  0.83170  0.70600  1.0000 -0.0667765424
C   C678      1.0  0.43280  0.79120  0.66360  1.0000 -0.050031422
H   H463      1.0  0.37860  0.80150  0.61660  1.0000 0.1084946232
H   H464      1.0  0.42300  0.77600  0.64100  1.0000 0.0828368136
C   C679      1.0  0.29400  0.93800  0.66830  1.0000 -0.1199127901
H   H465      1.0  0.43000  0.85000  0.72500  1.0000 0.1024950919
C   C680      1.0  0.38380  0.33700  0.16300  1.0000 0.1169649909
C   C681      1.0  0.36880  0.32190  0.13120  1.0000 -0.2328846238
C   C682      1.0  0.41690  0.32200  0.17800  1.0000 -0.050031422
N   N418      1.0  0.46110  0.28380  0.18390  1.0000 -0.132613975
N   N419      1.0  0.46560  0.30900  0.20870  1.0000 -0.132613975
N   N420      1.0  0.43800  0.33170  0.20600  1.0000 -0.0667765424
C   C683      1.0  0.43280  0.29120  0.16360  1.0000 -0.050031422
H   H466      1.0  0.37860  0.30150  0.11660  1.0000 0.1084946232
H   H467      1.0  0.42300  0.27600  0.14100  1.0000 0.0828368136
C   C684      1.0  0.29400  0.43800  0.16830  1.0000 -0.1199127901
H   H468      1.0  0.43000  0.35000  0.22500  1.0000 0.1024950919
C   C685      1.0  0.11620  0.16300  0.16300  1.0000 0.1169649909
C   C686      1.0  0.13120  0.17810  0.13120  1.0000 -0.2328846238
C   C687      1.0  0.08310  0.17800  0.17800  1.0000 -0.050031422
N   N421      1.0  0.03890  0.21620  0.18390  1.0000 -0.132613975
N   N422      1.0  0.03440  0.19100  0.20870  1.0000 -0.132613975
N   N423      1.0  0.06200  0.16830  0.20600  1.0000 -0.0667765424
C   C688      1.0  0.06720  0.20880  0.16360  1.0000 -0.050031422
H   H469      1.0  0.12140  0.19850  0.11660  1.0000 0.1084946232
H   H470      1.0  0.07700  0.22400  0.14100  1.0000 0.0828368136
C   C689      1.0  0.20600  0.06200  0.16830  1.0000 -0.1199127901
H   H471      1.0  0.07000  0.15000  0.22500  1.0000 0.1024950919
C   C690      1.0  0.11620  0.66300  0.66300  1.0000 0.1169649909
C   C691      1.0  0.13120  0.67810  0.63120  1.0000 -0.2328846238
C   C692      1.0  0.08310  0.67800  0.67800  1.0000 -0.050031422
N   N424      1.0  0.03890  0.71620  0.68390  1.0000 -0.132613975
N   N425      1.0  0.03440  0.69100  0.70870  1.0000 -0.132613975
N   N426      1.0  0.06200  0.66830  0.70600  1.0000 -0.0667765424
C   C693      1.0  0.06720  0.70880  0.66360  1.0000 -0.050031422
H   H472      1.0  0.12140  0.69850  0.61660  1.0000 0.1084946232
H   H473      1.0  0.07700  0.72400  0.64100  1.0000 0.0828368136
C   C694      1.0  0.20600  0.56200  0.66830  1.0000 -0.1199127901
H   H474      1.0  0.07000  0.65000  0.72500  1.0000 0.1024950919
C   C695      1.0  0.61620  0.16300  0.66300  1.0000 0.1169649909
C   C696      1.0  0.63120  0.17810  0.63120  1.0000 -0.2328846238
C   C697      1.0  0.58310  0.17800  0.67800  1.0000 -0.050031422
N   N427      1.0  0.53890  0.21620  0.68390  1.0000 -0.132613975
N   N428      1.0  0.53440  0.19100  0.70870  1.0000 -0.132613975
N   N429      1.0  0.56200  0.16830  0.70600  1.0000 -0.0667765424
C   C698      1.0  0.56720  0.20880  0.66360  1.0000 -0.050031422
H   H475      1.0  0.62140  0.19850  0.61660  1.0000 0.1084946232
H   H476      1.0  0.57700  0.22400  0.64100  1.0000 0.0828368136
C   C699      1.0  0.70600  0.06200  0.66830  1.0000 -0.1199127901
H   H477      1.0  0.57000  0.15000  0.72500  1.0000 0.1024950919
C   C700      1.0  0.61620  0.66300  0.16300  1.0000 0.1169649909
C   C701      1.0  0.63120  0.67810  0.13120  1.0000 -0.2328846238
C   C702      1.0  0.58310  0.67800  0.17800  1.0000 -0.050031422
N   N430      1.0  0.53890  0.71620  0.18390  1.0000 -0.132613975
N   N431      1.0  0.53440  0.69100  0.20870  1.0000 -0.132613975
N   N432      1.0  0.56200  0.66830  0.20600  1.0000 -0.0667765424
C   C703      1.0  0.56720  0.70880  0.16360  1.0000 -0.050031422
H   H478      1.0  0.62140  0.69850  0.11660  1.0000 0.1084946232
H   H479      1.0  0.57700  0.72400  0.14100  1.0000 0.0828368136
C   C704      1.0  0.70600  0.56200  0.16830  1.0000 -0.1199127901
H   H480      1.0  0.57000  0.65000  0.22500  1.0000 0.1024950919
C   C705      1.0  0.16300  0.16300  0.11620  1.0000 0.1169649909
C   C706      1.0  0.17810  0.13120  0.13120  1.0000 -0.2417002038
C   C707      1.0  0.17800  0.17800  0.08310  1.0000 -0.050031422
N   N433      1.0  0.21620  0.18390  0.03890  1.0000 -0.1199127901
N   N434      1.0  0.19100  0.20870  0.03440  1.0000 -0.132613975
N   N435      1.0  0.16830  0.20600  0.06200  1.0000 -0.0667765424
C   C708      1.0  0.20880  0.16360  0.06720  1.0000 -0.0418234006
H   H481      1.0  0.19850  0.11660  0.12140  1.0000 0.1024950919
H   H482      1.0  0.22400  0.14100  0.07700  1.0000 0.0865266243
H   H483      1.0  0.15000  0.22500  0.07000  1.0000 0.1024950919
C   C709      1.0  0.16300  0.66300  0.61620  1.0000 0.1169649909
C   C710      1.0  0.17810  0.63120  0.63120  1.0000 -0.2417002038
C   C711      1.0  0.17800  0.67800  0.58310  1.0000 -0.050031422
N   N436      1.0  0.21620  0.68390  0.53890  1.0000 -0.1199127901
N   N437      1.0  0.19100  0.70870  0.53440  1.0000 -0.132613975
N   N438      1.0  0.16830  0.70600  0.56200  1.0000 -0.0667765424
C   C712      1.0  0.20880  0.66360  0.56720  1.0000 -0.0418234006
H   H484      1.0  0.19850  0.61660  0.62140  1.0000 0.1024950919
H   H485      1.0  0.22400  0.64100  0.57700  1.0000 0.0865266243
H   H486      1.0  0.15000  0.72500  0.57000  1.0000 0.1024950919
C   C713      1.0  0.66300  0.16300  0.61620  1.0000 0.1169649909
C   C714      1.0  0.67810  0.13120  0.63120  1.0000 -0.2417002038
C   C715      1.0  0.67800  0.17800  0.58310  1.0000 -0.050031422
N   N439      1.0  0.71620  0.18390  0.53890  1.0000 -0.1199127901
N   N440      1.0  0.69100  0.20870  0.53440  1.0000 -0.132613975
N   N441      1.0  0.66830  0.20600  0.56200  1.0000 -0.0667765424
C   C716      1.0  0.70880  0.16360  0.56720  1.0000 -0.0418234006
H   H487      1.0  0.69850  0.11660  0.62140  1.0000 0.1024950919
H   H488      1.0  0.72400  0.14100  0.57700  1.0000 0.0865266243
H   H489      1.0  0.65000  0.22500  0.57000  1.0000 0.1024950919
C   C717      1.0  0.66300  0.66300  0.11620  1.0000 0.1169649909
C   C718      1.0  0.67810  0.63120  0.13120  1.0000 -0.2417002038
C   C719      1.0  0.67800  0.67800  0.08310  1.0000 -0.050031422
N   N442      1.0  0.71620  0.68390  0.03890  1.0000 -0.1199127901
N   N443      1.0  0.69100  0.70870  0.03440  1.0000 -0.132613975
N   N444      1.0  0.66830  0.70600  0.06200  1.0000 -0.0667765424
C   C720      1.0  0.70880  0.66360  0.06720  1.0000 -0.0418234006
H   H490      1.0  0.69850  0.61660  0.12140  1.0000 0.1024950919
H   H491      1.0  0.72400  0.64100  0.07700  1.0000 0.0865266243
H   H492      1.0  0.65000  0.72500  0.07000  1.0000 0.1024950919
C   C721      1.0  0.83700  0.16300  0.88380  1.0000 0.1169649909
C   C722      1.0  0.82190  0.13120  0.86880  1.0000 -0.2417002038
C   C723      1.0  0.82200  0.17800  0.91690  1.0000 -0.050031422
N   N445      1.0  0.78380  0.18390  0.96110  1.0000 -0.1199127901
N   N446      1.0  0.80900  0.20870  0.96560  1.0000 -0.132613975
N   N447      1.0  0.83170  0.20600  0.93800  1.0000 -0.0667765424
C   C724      1.0  0.79120  0.16360  0.93280  1.0000 -0.0418234006
H   H493      1.0  0.80150  0.11660  0.87860  1.0000 0.1024950919
H   H494      1.0  0.77600  0.14100  0.92300  1.0000 0.0865266243
H   H495      1.0  0.85000  0.22500  0.93000  1.0000 0.1024950919
C   C725      1.0  0.83700  0.66300  0.38380  1.0000 0.1169649909
C   C726      1.0  0.82190  0.63120  0.36880  1.0000 -0.2417002038
C   C727      1.0  0.82200  0.67800  0.41690  1.0000 -0.050031422
N   N448      1.0  0.78380  0.68390  0.46110  1.0000 -0.1199127901
N   N449      1.0  0.80900  0.70870  0.46560  1.0000 -0.132613975
N   N450      1.0  0.83170  0.70600  0.43800  1.0000 -0.0667765424
C   C728      1.0  0.79120  0.66360  0.43280  1.0000 -0.0418234006
H   H496      1.0  0.80150  0.61660  0.37860  1.0000 0.1024950919
H   H497      1.0  0.77600  0.64100  0.42300  1.0000 0.0865266243
H   H498      1.0  0.85000  0.72500  0.43000  1.0000 0.1024950919
C   C729      1.0  0.33700  0.16300  0.38380  1.0000 0.1169649909
C   C730      1.0  0.32190  0.13120  0.36880  1.0000 -0.2417002038
C   C731      1.0  0.32200  0.17800  0.41690  1.0000 -0.050031422
N   N451      1.0  0.28380  0.18390  0.46110  1.0000 -0.1199127901
N   N452      1.0  0.30900  0.20870  0.46560  1.0000 -0.132613975
N   N453      1.0  0.33170  0.20600  0.43800  1.0000 -0.0667765424
C   C732      1.0  0.29120  0.16360  0.43280  1.0000 -0.0418234006
H   H499      1.0  0.30150  0.11660  0.37860  1.0000 0.1024950919
H   H500      1.0  0.27600  0.14100  0.42300  1.0000 0.0865266243
H   H501      1.0  0.35000  0.22500  0.43000  1.0000 0.1024950919
C   C733      1.0  0.33700  0.66300  0.88380  1.0000 0.1169649909
C   C734      1.0  0.32190  0.63120  0.86880  1.0000 -0.2417002038
C   C735      1.0  0.32200  0.67800  0.91690  1.0000 -0.050031422
N   N454      1.0  0.28380  0.68390  0.96110  1.0000 -0.1199127901
N   N455      1.0  0.30900  0.70870  0.96560  1.0000 -0.132613975
N   N456      1.0  0.33170  0.70600  0.93800  1.0000 -0.0667765424
C   C736      1.0  0.29120  0.66360  0.93280  1.0000 -0.0418234006
H   H502      1.0  0.30150  0.61660  0.87860  1.0000 0.1024950919
H   H503      1.0  0.27600  0.64100  0.92300  1.0000 0.0865266243
H   H504      1.0  0.35000  0.72500  0.93000  1.0000 0.1024950919
C   C737      1.0  0.83700  0.83700  0.11620  1.0000 0.1169649909
C   C738      1.0  0.82190  0.86880  0.13120  1.0000 -0.2417002038
C   C739      1.0  0.82200  0.82200  0.08310  1.0000 -0.050031422
N   N457      1.0  0.78380  0.81610  0.03890  1.0000 -0.1199127901
N   N458      1.0  0.80900  0.79130  0.03440  1.0000 -0.132613975
N   N459      1.0  0.83170  0.79400  0.06200  1.0000 -0.0667765424
C   C740      1.0  0.79120  0.83640  0.06720  1.0000 -0.0418234006
H   H505      1.0  0.80150  0.88340  0.12140  1.0000 0.1024950919
H   H506      1.0  0.77600  0.85900  0.07700  1.0000 0.0865266243
H   H507      1.0  0.85000  0.77500  0.07000  1.0000 0.1024950919
C   C741      1.0  0.83700  0.33700  0.61620  1.0000 0.1169649909
C   C742      1.0  0.82190  0.36880  0.63120  1.0000 -0.2417002038
C   C743      1.0  0.82200  0.32200  0.58310  1.0000 -0.050031422
N   N460      1.0  0.78380  0.31610  0.53890  1.0000 -0.1199127901
N   N461      1.0  0.80900  0.29130  0.53440  1.0000 -0.132613975
N   N462      1.0  0.83170  0.29400  0.56200  1.0000 -0.0667765424
C   C744      1.0  0.79120  0.33640  0.56720  1.0000 -0.0418234006
H   H508      1.0  0.80150  0.38340  0.62140  1.0000 0.1024950919
H   H509      1.0  0.77600  0.35900  0.57700  1.0000 0.0865266243
H   H510      1.0  0.85000  0.27500  0.57000  1.0000 0.1024950919
C   C745      1.0  0.33700  0.83700  0.61620  1.0000 0.1169649909
C   C746      1.0  0.32190  0.86880  0.63120  1.0000 -0.2417002038
C   C747      1.0  0.32200  0.82200  0.58310  1.0000 -0.050031422
N   N463      1.0  0.28380  0.81610  0.53890  1.0000 -0.1199127901
N   N464      1.0  0.30900  0.79130  0.53440  1.0000 -0.132613975
N   N465      1.0  0.33170  0.79400  0.56200  1.0000 -0.0667765424
C   C748      1.0  0.29120  0.83640  0.56720  1.0000 -0.0418234006
H   H511      1.0  0.30150  0.88340  0.62140  1.0000 0.1024950919
H   H512      1.0  0.27600  0.85900  0.57700  1.0000 0.0865266243
H   H513      1.0  0.35000  0.77500  0.57000  1.0000 0.1024950919
C   C749      1.0  0.33700  0.33700  0.11620  1.0000 0.1169649909
C   C750      1.0  0.32190  0.36880  0.13120  1.0000 -0.2417002038
C   C751      1.0  0.32200  0.32200  0.08310  1.0000 -0.050031422
N   N466      1.0  0.28380  0.31610  0.03890  1.0000 -0.1199127901
N   N467      1.0  0.30900  0.29130  0.03440  1.0000 -0.132613975
N   N468      1.0  0.33170  0.29400  0.06200  1.0000 -0.0667765424
C   C752      1.0  0.29120  0.33640  0.06720  1.0000 -0.0418234006
H   H514      1.0  0.30150  0.38340  0.12140  1.0000 0.1024950919
H   H515      1.0  0.27600  0.35900  0.07700  1.0000 0.0865266243
H   H516      1.0  0.35000  0.27500  0.07000  1.0000 0.1024950919
C   C753      1.0  0.16300  0.83700  0.88380  1.0000 0.1169649909
C   C754      1.0  0.17810  0.86880  0.86880  1.0000 -0.2417002038
C   C755      1.0  0.17800  0.82200  0.91690  1.0000 -0.050031422
N   N469      1.0  0.21620  0.81610  0.96110  1.0000 -0.1199127901
N   N470      1.0  0.19100  0.79130  0.96560  1.0000 -0.132613975
N   N471      1.0  0.16830  0.79400  0.93800  1.0000 -0.0667765424
C   C756      1.0  0.20880  0.83640  0.93280  1.0000 -0.0418234006
H   H517      1.0  0.19850  0.88340  0.87860  1.0000 0.1024950919
H   H518      1.0  0.22400  0.85900  0.92300  1.0000 0.0865266243
H   H519      1.0  0.15000  0.77500  0.93000  1.0000 0.1024950919
C   C757      1.0  0.16300  0.33700  0.38380  1.0000 0.1169649909
C   C758      1.0  0.17810  0.36880  0.36880  1.0000 -0.2417002038
C   C759      1.0  0.17800  0.32200  0.41690  1.0000 -0.050031422
N   N472      1.0  0.21620  0.31610  0.46110  1.0000 -0.1199127901
N   N473      1.0  0.19100  0.29130  0.46560  1.0000 -0.132613975
N   N474      1.0  0.16830  0.29400  0.43800  1.0000 -0.0667765424
C   C760      1.0  0.20880  0.33640  0.43280  1.0000 -0.0418234006
H   H520      1.0  0.19850  0.38340  0.37860  1.0000 0.1024950919
H   H521      1.0  0.22400  0.35900  0.42300  1.0000 0.0865266243
H   H522      1.0  0.15000  0.27500  0.43000  1.0000 0.1024950919
C   C761      1.0  0.66300  0.83700  0.38380  1.0000 0.1169649909
C   C762      1.0  0.67810  0.86880  0.36880  1.0000 -0.2417002038
C   C763      1.0  0.67800  0.82200  0.41690  1.0000 -0.050031422
N   N475      1.0  0.71620  0.81610  0.46110  1.0000 -0.1199127901
N   N476      1.0  0.69100  0.79130  0.46560  1.0000 -0.132613975
N   N477      1.0  0.66830  0.79400  0.43800  1.0000 -0.0667765424
C   C764      1.0  0.70880  0.83640  0.43280  1.0000 -0.0418234006
H   H523      1.0  0.69850  0.88340  0.37860  1.0000 0.1024950919
H   H524      1.0  0.72400  0.85900  0.42300  1.0000 0.0865266243
H   H525      1.0  0.65000  0.77500  0.43000  1.0000 0.1024950919
C   C765      1.0  0.66300  0.33700  0.88380  1.0000 0.1169649909
C   C766      1.0  0.67810  0.36880  0.86880  1.0000 -0.2417002038
C   C767      1.0  0.67800  0.32200  0.91690  1.0000 -0.050031422
N   N478      1.0  0.71620  0.31610  0.96110  1.0000 -0.1199127901
N   N479      1.0  0.69100  0.29130  0.96560  1.0000 -0.132613975
N   N480      1.0  0.66830  0.29400  0.93800  1.0000 -0.0667765424
C   C768      1.0  0.70880  0.33640  0.93280  1.0000 -0.0418234006
H   H526      1.0  0.69850  0.38340  0.87860  1.0000 0.1024950919
H   H527      1.0  0.72400  0.35900  0.92300  1.0000 0.0865266243
H   H528      1.0  0.65000  0.27500  0.93000  1.0000 0.1024950919
C   C769      1.0  0.16300  0.88380  0.83700  1.0000 0.0686218149
C   C770      1.0  0.13120  0.86880  0.82190  1.0000 -0.2328846238
C   C771      1.0  0.17800  0.91690  0.82200  1.0000 0.1084946232
N   N481      1.0  0.18390  0.96110  0.78380  1.0000 -0.1128288514
N   N482      1.0  0.20870  0.96560  0.80900  1.0000 -0.0418234006
C   C772      1.0  0.16360  0.93280  0.79120  1.0000 -0.0799523226
H   H529      1.0  0.11660  0.87860  0.80150  1.0000 0.1084946232
H   H530      1.0  0.14100  0.92300  0.77600  1.0000 0.1169649909
H   H531      1.0  0.22500  0.93000  0.85000  1.0000 0.2775780766
C   C773      1.0  0.16300  0.38380  0.33700  1.0000 0.0686218149
C   C774      1.0  0.13120  0.36880  0.32190  1.0000 -0.2328846238
C   C775      1.0  0.17800  0.41690  0.32200  1.0000 0.1084946232
N   N483      1.0  0.18390  0.46110  0.28380  1.0000 -0.1128288514
N   N484      1.0  0.20870  0.46560  0.30900  1.0000 -0.0418234006
C   C776      1.0  0.16360  0.43280  0.29120  1.0000 -0.0799523226
H   H532      1.0  0.11660  0.37860  0.30150  1.0000 0.1084946232
H   H533      1.0  0.14100  0.42300  0.27600  1.0000 0.1169649909
H   H534      1.0  0.22500  0.43000  0.35000  1.0000 0.2775780766
C   C777      1.0  0.66300  0.88380  0.33700  1.0000 0.0686218149
C   C778      1.0  0.63120  0.86880  0.32190  1.0000 -0.2328846238
C   C779      1.0  0.67800  0.91690  0.32200  1.0000 0.1084946232
N   N485      1.0  0.68390  0.96110  0.28380  1.0000 -0.1128288514
N   N486      1.0  0.70870  0.96560  0.30900  1.0000 -0.0418234006
C   C780      1.0  0.66360  0.93280  0.29120  1.0000 -0.0799523226
H   H535      1.0  0.61660  0.87860  0.30150  1.0000 0.1084946232
H   H536      1.0  0.64100  0.92300  0.27600  1.0000 0.1169649909
H   H537      1.0  0.72500  0.93000  0.35000  1.0000 0.2775780766
C   C781      1.0  0.66300  0.38380  0.83700  1.0000 0.0686218149
C   C782      1.0  0.63120  0.36880  0.82190  1.0000 -0.2328846238
C   C783      1.0  0.67800  0.41690  0.82200  1.0000 0.1084946232
N   N487      1.0  0.68390  0.46110  0.78380  1.0000 -0.1128288514
N   N488      1.0  0.70870  0.46560  0.80900  1.0000 -0.0418234006
C   C784      1.0  0.66360  0.43280  0.79120  1.0000 -0.0799523226
H   H538      1.0  0.61660  0.37860  0.80150  1.0000 0.1084946232
H   H539      1.0  0.64100  0.42300  0.77600  1.0000 0.1169649909
H   H540      1.0  0.72500  0.43000  0.85000  1.0000 0.2775780766
C   C785      1.0  0.16300  0.11620  0.16300  1.0000 0.0686218149
C   C786      1.0  0.13120  0.13120  0.17810  1.0000 -0.2328846238
C   C787      1.0  0.17800  0.08310  0.17800  1.0000 0.1084946232
N   N489      1.0  0.18390  0.03890  0.21620  1.0000 -0.1128288514
N   N490      1.0  0.20870  0.03440  0.19100  1.0000 -0.0418234006
C   C788      1.0  0.16360  0.06720  0.20880  1.0000 -0.0799523226
H   H541      1.0  0.11660  0.12140  0.19850  1.0000 0.1084946232
H   H542      1.0  0.14100  0.07700  0.22400  1.0000 0.1169649909
H   H543      1.0  0.22500  0.07000  0.15000  1.0000 0.2775780766
C   C789      1.0  0.16300  0.61620  0.66300  1.0000 0.0686218149
C   C790      1.0  0.13120  0.63120  0.67810  1.0000 -0.2328846238
C   C791      1.0  0.17800  0.58310  0.67800  1.0000 0.1084946232
N   N491      1.0  0.18390  0.53890  0.71620  1.0000 -0.1128288514
N   N492      1.0  0.20870  0.53440  0.69100  1.0000 -0.0418234006
C   C792      1.0  0.16360  0.56720  0.70880  1.0000 -0.0799523226
H   H544      1.0  0.11660  0.62140  0.69850  1.0000 0.1084946232
H   H545      1.0  0.14100  0.57700  0.72400  1.0000 0.1169649909
H   H546      1.0  0.22500  0.57000  0.65000  1.0000 0.2775780766
C   C793      1.0  0.66300  0.11620  0.66300  1.0000 0.0686218149
C   C794      1.0  0.63120  0.13120  0.67810  1.0000 -0.2328846238
C   C795      1.0  0.67800  0.08310  0.67800  1.0000 0.1084946232
N   N493      1.0  0.68390  0.03890  0.71620  1.0000 -0.1128288514
N   N494      1.0  0.70870  0.03440  0.69100  1.0000 -0.0418234006
C   C796      1.0  0.66360  0.06720  0.70880  1.0000 -0.0799523226
H   H547      1.0  0.61660  0.12140  0.69850  1.0000 0.1084946232
H   H548      1.0  0.64100  0.07700  0.72400  1.0000 0.1169649909
H   H549      1.0  0.72500  0.07000  0.65000  1.0000 0.2775780766
C   C797      1.0  0.66300  0.61620  0.16300  1.0000 0.0686218149
C   C798      1.0  0.63120  0.63120  0.17810  1.0000 -0.2328846238
C   C799      1.0  0.67800  0.58310  0.17800  1.0000 0.1084946232
N   N495      1.0  0.68390  0.53890  0.21620  1.0000 -0.1128288514
N   N496      1.0  0.70870  0.53440  0.19100  1.0000 -0.0418234006
C   C800      1.0  0.66360  0.56720  0.20880  1.0000 -0.0799523226
H   H550      1.0  0.61660  0.62140  0.19850  1.0000 0.1084946232
H   H551      1.0  0.64100  0.57700  0.22400  1.0000 0.1169649909
H   H552      1.0  0.72500  0.57000  0.15000  1.0000 0.2775780766
C   C801      1.0  0.83700  0.88380  0.16300  1.0000 0.0686218149
C   C802      1.0  0.86880  0.86880  0.17810  1.0000 -0.2328846238
C   C803      1.0  0.82200  0.91690  0.17800  1.0000 0.1084946232
N   N497      1.0  0.81610  0.96110  0.21620  1.0000 -0.1128288514
N   N498      1.0  0.79130  0.96560  0.19100  1.0000 -0.0418234006
C   C804      1.0  0.83640  0.93280  0.20880  1.0000 -0.0799523226
H   H553      1.0  0.88340  0.87860  0.19850  1.0000 0.1084946232
H   H554      1.0  0.85900  0.92300  0.22400  1.0000 0.1169649909
H   H555      1.0  0.77500  0.93000  0.15000  1.0000 0.2775780766
C   C805      1.0  0.83700  0.38380  0.66300  1.0000 0.0686218149
C   C806      1.0  0.86880  0.36880  0.67810  1.0000 -0.2328846238
C   C807      1.0  0.82200  0.41690  0.67800  1.0000 0.1084946232
N   N499      1.0  0.81610  0.46110  0.71620  1.0000 -0.1128288514
N   N500      1.0  0.79130  0.46560  0.69100  1.0000 -0.0418234006
C   C808      1.0  0.83640  0.43280  0.70880  1.0000 -0.0799523226
H   H556      1.0  0.88340  0.37860  0.69850  1.0000 0.1084946232
H   H557      1.0  0.85900  0.42300  0.72400  1.0000 0.1169649909
H   H558      1.0  0.77500  0.43000  0.65000  1.0000 0.2775780766
C   C809      1.0  0.33700  0.88380  0.66300  1.0000 0.0686218149
C   C810      1.0  0.36880  0.86880  0.67810  1.0000 -0.2328846238
C   C811      1.0  0.32200  0.91690  0.67800  1.0000 0.1084946232
N   N501      1.0  0.31610  0.96110  0.71620  1.0000 -0.1128288514
N   N502      1.0  0.29130  0.96560  0.69100  1.0000 -0.0418234006
C   C812      1.0  0.33640  0.93280  0.70880  1.0000 -0.0799523226
H   H559      1.0  0.38340  0.87860  0.69850  1.0000 0.1084946232
H   H560      1.0  0.35900  0.92300  0.72400  1.0000 0.1169649909
H   H561      1.0  0.27500  0.93000  0.65000  1.0000 0.2775780766
C   C813      1.0  0.33700  0.38380  0.16300  1.0000 0.0686218149
C   C814      1.0  0.36880  0.36880  0.17810  1.0000 -0.2328846238
C   C815      1.0  0.32200  0.41690  0.17800  1.0000 0.1084946232
N   N503      1.0  0.31610  0.46110  0.21620  1.0000 -0.1128288514
N   N504      1.0  0.29130  0.46560  0.19100  1.0000 -0.0418234006
C   C816      1.0  0.33640  0.43280  0.20880  1.0000 -0.0799523226
H   H562      1.0  0.38340  0.37860  0.19850  1.0000 0.1084946232
H   H563      1.0  0.35900  0.42300  0.22400  1.0000 0.1169649909
H   H564      1.0  0.27500  0.43000  0.15000  1.0000 0.2775780766
C   C817      1.0  0.83700  0.11620  0.83700  1.0000 0.0686218149
C   C818      1.0  0.86880  0.13120  0.82190  1.0000 -0.2328846238
C   C819      1.0  0.82200  0.08310  0.82200  1.0000 0.1084946232
N   N505      1.0  0.81610  0.03890  0.78380  1.0000 -0.1128288514
N   N506      1.0  0.79130  0.03440  0.80900  1.0000 -0.0418234006
C   C820      1.0  0.83640  0.06720  0.79120  1.0000 -0.0799523226
H   H565      1.0  0.88340  0.12140  0.80150  1.0000 0.1084946232
H   H566      1.0  0.85900  0.07700  0.77600  1.0000 0.1169649909
H   H567      1.0  0.77500  0.07000  0.85000  1.0000 0.2775780766
C   C821      1.0  0.83700  0.61620  0.33700  1.0000 0.0686218149
C   C822      1.0  0.86880  0.63120  0.32190  1.0000 -0.2328846238
C   C823      1.0  0.82200  0.58310  0.32200  1.0000 0.1084946232
N   N507      1.0  0.81610  0.53890  0.28380  1.0000 -0.1128288514
N   N508      1.0  0.79130  0.53440  0.30900  1.0000 -0.0418234006
C   C824      1.0  0.83640  0.56720  0.29120  1.0000 -0.0799523226
H   H568      1.0  0.88340  0.62140  0.30150  1.0000 0.1084946232
H   H569      1.0  0.85900  0.57700  0.27600  1.0000 0.1169649909
H   H570      1.0  0.77500  0.57000  0.35000  1.0000 0.2775780766
C   C825      1.0  0.33700  0.11620  0.33700  1.0000 0.0686218149
C   C826      1.0  0.36880  0.13120  0.32190  1.0000 -0.2328846238
C   C827      1.0  0.32200  0.08310  0.32200  1.0000 0.1084946232
N   N509      1.0  0.31610  0.03890  0.28380  1.0000 -0.1128288514
N   N510      1.0  0.29130  0.03440  0.30900  1.0000 -0.0418234006
C   C828      1.0  0.33640  0.06720  0.29120  1.0000 -0.0799523226
H   H571      1.0  0.38340  0.12140  0.30150  1.0000 0.1084946232
H   H572      1.0  0.35900  0.07700  0.27600  1.0000 0.1169649909
H   H573      1.0  0.27500  0.07000  0.35000  1.0000 0.2775780766
C   C829      1.0  0.33700  0.61620  0.83700  1.0000 0.0686218149
C   C830      1.0  0.36880  0.63120  0.82190  1.0000 -0.2328846238
C   C831      1.0  0.32200  0.58310  0.82200  1.0000 0.1084946232
N   N511      1.0  0.31610  0.53890  0.78380  1.0000 -0.1128288514
N   N512      1.0  0.29130  0.53440  0.80900  1.0000 -0.0418234006
C   C832      1.0  0.33640  0.56720  0.79120  1.0000 -0.0799523226
H   H574      1.0  0.38340  0.62140  0.80150  1.0000 0.1084946232
H   H575      1.0  0.35900  0.57700  0.77600  1.0000 0.1169649909
H   H576      1.0  0.27500  0.57000  0.85000  1.0000 0.2775780766
Cu  Cu1       1.0  0.24460  0.50000  0.31580  1.0000 0.2670786169
Cu  Cu2       1.0  0.24460  0.00000  0.81580  1.0000 0.2670786169
Cu  Cu3       1.0  0.74460  0.50000  0.81580  1.0000 0.2670786169
Cu  Cu4       1.0  0.74460  0.00000  0.31580  1.0000 0.2670786169
Cu  Cu5       1.0  0.75540  0.50000  0.31580  1.0000 0.2670786169
Cu  Cu6       1.0  0.75540  0.00000  0.81580  1.0000 0.2670786169
Cu  Cu7       1.0  0.25540  0.50000  0.81580  1.0000 0.2670786169
Cu  Cu8       1.0  0.25540  0.00000  0.31580  1.0000 0.2670786169
Cu  Cu9       1.0  0.75540  0.50000  0.68420  1.0000 0.2670786169
Cu  Cu10      1.0  0.75540  0.00000  0.18420  1.0000 0.2670786169
Cu  Cu11      1.0  0.25540  0.50000  0.18420  1.0000 0.2670786169
Cu  Cu12      1.0  0.25540  0.00000  0.68420  1.0000 0.2670786169
Cu  Cu13      1.0  0.24460  0.50000  0.68420  1.0000 0.2670786169
Cu  Cu14      1.0  0.24460  0.00000  0.18420  1.0000 0.2670786169
Cu  Cu15      1.0  0.74460  0.50000  0.18420  1.0000 0.2670786169
Cu  Cu16      1.0  0.74460  0.00000  0.68420  1.0000 0.2670786169
Cu  Cu17      1.0  0.31580  0.24460  0.50000  1.0000 0.3103652348
Cu  Cu18      1.0  0.31580  0.74460  0.00000  1.0000 0.3103652348
Cu  Cu19      1.0  0.81580  0.24460  0.00000  1.0000 0.3103652348
Cu  Cu20      1.0  0.81580  0.74460  0.50000  1.0000 0.3103652348
Cu  Cu21      1.0  0.31580  0.75540  0.50000  1.0000 0.3103652348
Cu  Cu22      1.0  0.31580  0.25540  0.00000  1.0000 0.3103652348
Cu  Cu23      1.0  0.81580  0.75540  0.00000  1.0000 0.3103652348
Cu  Cu24      1.0  0.81580  0.25540  0.50000  1.0000 0.3103652348
Cu  Cu25      1.0  0.68420  0.75540  0.50000  1.0000 0.3103652348
Cu  Cu26      1.0  0.68420  0.25540  0.00000  1.0000 0.3103652348
Cu  Cu27      1.0  0.18420  0.75540  0.00000  1.0000 0.3103652348
Cu  Cu28      1.0  0.18420  0.25540  0.50000  1.0000 0.3103652348
Cu  Cu29      1.0  0.68420  0.24460  0.50000  1.0000 0.3103652348
Cu  Cu30      1.0  0.68420  0.74460  0.00000  1.0000 0.3103652348
Cu  Cu31      1.0  0.18420  0.24460  0.00000  1.0000 0.3103652348
Cu  Cu32      1.0  0.18420  0.74460  0.50000  1.0000 0.3103652348
Cu  Cu33      1.0  0.50000  0.31580  0.24460  1.0000 0.2341258184
Cu  Cu34      1.0  0.50000  0.81580  0.74460  1.0000 0.2341258184
Cu  Cu35      1.0  0.00000  0.31580  0.74460  1.0000 0.2341258184
Cu  Cu36      1.0  0.00000  0.81580  0.24460  1.0000 0.2341258184
Cu  Cu37      1.0  0.50000  0.31580  0.75540  1.0000 0.2341258184
Cu  Cu38      1.0  0.50000  0.81580  0.25540  1.0000 0.2341258184
Cu  Cu39      1.0  0.00000  0.31580  0.25540  1.0000 0.2341258184
Cu  Cu40      1.0  0.00000  0.81580  0.75540  1.0000 0.2341258184
Cu  Cu41      1.0  0.50000  0.68420  0.75540  1.0000 0.2341258184
Cu  Cu42      1.0  0.50000  0.18420  0.25540  1.0000 0.2341258184
Cu  Cu43      1.0  0.00000  0.68420  0.25540  1.0000 0.2341258184
Cu  Cu44      1.0  0.00000  0.18420  0.75540  1.0000 0.2341258184
Cu  Cu45      1.0  0.50000  0.68420  0.24460  1.0000 0.2341258184
Cu  Cu46      1.0  0.50000  0.18420  0.74460  1.0000 0.2341258184
Cu  Cu47      1.0  0.00000  0.68420  0.74460  1.0000 0.2341258184
Cu  Cu48      1.0  0.00000  0.18420  0.24460  1.0000 0.2341258184
Cu  Cu49      1.0  0.00000  0.74460  0.18420  1.0000 0.2670786169
Cu  Cu50      1.0  0.00000  0.24460  0.68420  1.0000 0.2670786169
Cu  Cu51      1.0  0.50000  0.74460  0.68420  1.0000 0.2670786169
Cu  Cu52      1.0  0.50000  0.24460  0.18420  1.0000 0.2670786169
Cu  Cu53      1.0  0.00000  0.25540  0.18420  1.0000 0.2670786169
Cu  Cu54      1.0  0.00000  0.75540  0.68420  1.0000 0.2670786169
Cu  Cu55      1.0  0.50000  0.25540  0.68420  1.0000 0.2670786169
Cu  Cu56      1.0  0.50000  0.75540  0.18420  1.0000 0.2670786169
Cu  Cu57      1.0  0.00000  0.25540  0.81580  1.0000 0.2670786169
Cu  Cu58      1.0  0.00000  0.75540  0.31580  1.0000 0.2670786169
Cu  Cu59      1.0  0.50000  0.25540  0.31580  1.0000 0.2670786169
Cu  Cu60      1.0  0.50000  0.75540  0.81580  1.0000 0.2670786169
Cu  Cu61      1.0  0.00000  0.74460  0.81580  1.0000 0.2670786169
Cu  Cu62      1.0  0.00000  0.24460  0.31580  1.0000 0.2670786169
Cu  Cu63      1.0  0.50000  0.74460  0.31580  1.0000 0.2670786169
Cu  Cu64      1.0  0.50000  0.24460  0.81580  1.0000 0.2670786169
Cu  Cu65      1.0  0.74460  0.81580  0.00000  1.0000 0.3103652348
Cu  Cu66      1.0  0.74460  0.31580  0.50000  1.0000 0.3103652348
Cu  Cu67      1.0  0.24460  0.81580  0.50000  1.0000 0.3103652348
Cu  Cu68      1.0  0.24460  0.31580  0.00000  1.0000 0.3103652348
Cu  Cu69      1.0  0.25540  0.81580  0.00000  1.0000 0.3103652348
Cu  Cu70      1.0  0.25540  0.31580  0.50000  1.0000 0.3103652348
Cu  Cu71      1.0  0.75540  0.81580  0.50000  1.0000 0.3103652348
Cu  Cu72      1.0  0.75540  0.31580  0.00000  1.0000 0.3103652348
Cu  Cu73      1.0  0.25540  0.18420  0.00000  1.0000 0.3103652348
Cu  Cu74      1.0  0.25540  0.68420  0.50000  1.0000 0.3103652348
Cu  Cu75      1.0  0.75540  0.18420  0.50000  1.0000 0.3103652348
Cu  Cu76      1.0  0.75540  0.68420  0.00000  1.0000 0.3103652348
Cu  Cu77      1.0  0.74460  0.18420  0.00000  1.0000 0.3103652348
Cu  Cu78      1.0  0.74460  0.68420  0.50000  1.0000 0.3103652348
Cu  Cu79      1.0  0.24460  0.18420  0.50000  1.0000 0.3103652348
Cu  Cu80      1.0  0.24460  0.68420  0.00000  1.0000 0.3103652348
Cu  Cu81      1.0  0.81580  0.00000  0.25540  1.0000 0.2341258184
Cu  Cu82      1.0  0.81580  0.50000  0.75540  1.0000 0.2341258184
Cu  Cu83      1.0  0.31580  0.00000  0.75540  1.0000 0.2341258184
Cu  Cu84      1.0  0.31580  0.50000  0.25540  1.0000 0.2341258184
Cu  Cu85      1.0  0.81580  0.00000  0.74460  1.0000 0.2341258184
Cu  Cu86      1.0  0.81580  0.50000  0.24460  1.0000 0.2341258184
Cu  Cu87      1.0  0.31580  0.00000  0.24460  1.0000 0.2341258184
Cu  Cu88      1.0  0.31580  0.50000  0.74460  1.0000 0.2341258184
Cu  Cu89      1.0  0.18420  0.00000  0.74460  1.0000 0.2341258184
Cu  Cu90      1.0  0.18420  0.50000  0.24460  1.0000 0.2341258184
Cu  Cu91      1.0  0.68420  0.00000  0.24460  1.0000 0.2341258184
Cu  Cu92      1.0  0.68420  0.50000  0.74460  1.0000 0.2341258184
Cu  Cu93      1.0  0.18420  0.00000  0.25540  1.0000 0.2341258184
Cu  Cu94      1.0  0.18420  0.50000  0.75540  1.0000 0.2341258184
Cu  Cu95      1.0  0.68420  0.00000  0.75540  1.0000 0.2341258184
Cu  Cu96      1.0  0.68420  0.50000  0.25540  1.0000 0.2341258184
