# DDEC6 charges by PACMAN v1.1 (https://github.com/mtap-research/PACMAN-charge/)
data_2020[Cd][dia]3[FSR]5
_chemical_formula_sum              "Cd8 H176 C264 N32 O40"
_cell_length_a       12.0791
_cell_length_b       17.6724
_cell_length_c       30.0948
_cell_angle_alpha    90
_cell_angle_beta     90
_cell_angle_gamma    90

_symmetry_space_group_name_H-M    "P 1"
_symmetry_Int_Tables_number       1

loop_
  _symmetry_equiv_pos_as_xyz
  'x, y, z'

loop_
  _atom_site_type_symbol
  _atom_site_label
  _atom_site_symmetry_multiplicity
  _atom_site_fract_x
  _atom_site_fract_y
  _atom_site_fract_z
  _atom_site_occupancy
  _atom_site_charge
Cd  Cd1       1.0  0.24708  0.48632  0.27120  1.0000 0.8286959988
Cd  Cd2       1.0  0.75292  0.01368  0.77120  1.0000 0.8286959988
Cd  Cd3       1.0  0.74708  0.51368  0.22880  1.0000 0.8286959988
Cd  Cd4       1.0  0.25292  0.98632  0.72880  1.0000 0.8286959988
Cd  Cd5       1.0  0.75292  0.51368  0.72880  1.0000 0.8286959988
Cd  Cd6       1.0  0.24708  0.98632  0.22880  1.0000 0.8286959988
Cd  Cd7       1.0  0.25292  0.48632  0.77120  1.0000 0.8286959988
Cd  Cd8       1.0  0.74708  0.01368  0.27120  1.0000 0.8286959988
H   H1        1.0  0.17440  0.45000  0.37580  1.0000 0.1217452328
H   H2        1.0  0.96690  0.46040  0.27590  1.0000 0.1298321451
H   H3        1.0  0.85790  0.43400  0.34240  1.0000 0.1298321451
H   H4        1.0  0.82500  0.46370  0.41880  1.0000 0.1217452328
H   H5        1.0  0.78120  0.43850  0.49170  1.0000 0.1117311803
H   H6        1.0  0.09060  0.36950  0.51430  1.0000 0.1117311803
H   H7        1.0  0.13310  0.38820  0.44000  1.0000 0.1298321451
H   H8        1.0  0.93470  0.40150  0.64250  1.0000 0.1117311803
H   H9        1.0  0.04160  0.33230  0.69140  1.0000 0.1413003019
H   H10       1.0  0.12070  0.18870  0.59440  1.0000 0.1413003019
H   H11       1.0  0.01850  0.25990  0.54420  1.0000 0.1117311803
H   H12       1.0  0.11470  0.10180  0.65890  1.0000 0.1217452328
H   H13       1.0  0.22800  0.28260  0.72120  1.0000 0.1413003019
H   H14       1.0  0.29370  0.16920  0.75900  1.0000 0.1298321451
H   H15       1.0  0.46070  0.27830  0.28890  1.0000 0.1117311803
H   H16       1.0  0.59350  0.19010  0.30800  1.0000 0.1117311803
H   H17       1.0  0.72180  0.22020  0.36300  1.0000 0.1117311803
H   H18       1.0  0.71970  0.33740  0.39620  1.0000 0.1117311803
H   H19       1.0  0.56260  0.41910  0.44470  1.0000 0.1117311803
H   H20       1.0  0.59000  0.53100  0.48270  1.0000 0.1117311803
H   H21       1.0  0.63820  0.63890  0.44520  1.0000 0.1117311803
H   H22       1.0  0.66110  0.63520  0.36890  1.0000 0.1117311803
H   H23       1.0  0.82560  0.05000  0.87580  1.0000 0.1217452328
H   H24       1.0  0.03310  0.03960  0.77590  1.0000 0.1298321451
H   H25       1.0  0.14210  0.06600  0.84240  1.0000 0.1298321451
H   H26       1.0  0.17500  0.03630  0.91880  1.0000 0.1217452328
H   H27       1.0  0.21880  0.06150  0.99170  1.0000 0.1117311803
H   H28       1.0  0.90940  0.13050  0.01430  1.0000 0.1117311803
H   H29       1.0  0.86690  0.11180  0.94000  1.0000 0.1298321451
H   H30       1.0  0.06530  0.09850  0.14250  1.0000 0.1117311803
H   H31       1.0  0.95840  0.16770  0.19140  1.0000 0.1413003019
H   H32       1.0  0.87930  0.31130  0.09440  1.0000 0.1413003019
H   H33       1.0  0.98150  0.24010  0.04420  1.0000 0.1117311803
H   H34       1.0  0.88530  0.39820  0.15890  1.0000 0.1217452328
H   H35       1.0  0.77200  0.21740  0.22120  1.0000 0.1413003019
H   H36       1.0  0.70630  0.33080  0.25900  1.0000 0.1298321451
H   H37       1.0  0.53930  0.22170  0.78890  1.0000 0.1117311803
H   H38       1.0  0.40650  0.30990  0.80800  1.0000 0.1117311803
H   H39       1.0  0.27820  0.27980  0.86300  1.0000 0.1117311803
H   H40       1.0  0.28030  0.16260  0.89620  1.0000 0.1117311803
H   H41       1.0  0.43740  0.08090  0.94470  1.0000 0.1117311803
H   H42       1.0  0.41000  0.96900  0.98270  1.0000 0.1117311803
H   H43       1.0  0.36180  0.86110  0.94520  1.0000 0.1117311803
H   H44       1.0  0.33890  0.86480  0.86890  1.0000 0.1117311803
H   H45       1.0  0.67440  0.55000  0.12420  1.0000 0.1217452328
H   H46       1.0  0.46690  0.53960  0.22410  1.0000 0.1298321451
H   H47       1.0  0.35790  0.56600  0.15760  1.0000 0.1298321451
H   H48       1.0  0.32500  0.53630  0.08120  1.0000 0.1217452328
H   H49       1.0  0.28120  0.56150  0.00830  1.0000 0.1117311803
H   H50       1.0  0.59060  0.63050  0.98570  1.0000 0.1117311803
H   H51       1.0  0.63310  0.61180  0.06000  1.0000 0.1298321451
H   H52       1.0  0.43470  0.59850  0.85750  1.0000 0.1117311803
H   H53       1.0  0.54160  0.66770  0.80860  1.0000 0.1413003019
H   H54       1.0  0.62070  0.81130  0.90560  1.0000 0.1413003019
H   H55       1.0  0.51850  0.74010  0.95580  1.0000 0.1117311803
H   H56       1.0  0.61470  0.89820  0.84110  1.0000 0.1217452328
H   H57       1.0  0.72800  0.71740  0.77880  1.0000 0.1413003019
H   H58       1.0  0.79370  0.83080  0.74100  1.0000 0.1298321451
H   H59       1.0  0.96070  0.72170  0.21110  1.0000 0.1117311803
H   H60       1.0  0.09350  0.80990  0.19200  1.0000 0.1117311803
H   H61       1.0  0.22180  0.77980  0.13700  1.0000 0.1117311803
H   H62       1.0  0.21970  0.66260  0.10380  1.0000 0.1117311803
H   H63       1.0  0.06260  0.58090  0.05530  1.0000 0.1117311803
H   H64       1.0  0.09000  0.46900  0.01730  1.0000 0.1117311803
H   H65       1.0  0.13820  0.36110  0.05480  1.0000 0.1117311803
H   H66       1.0  0.16110  0.36480  0.13110  1.0000 0.1117311803
H   H67       1.0  0.32560  0.95000  0.62420  1.0000 0.1217452328
H   H68       1.0  0.53310  0.96040  0.72410  1.0000 0.1298321451
H   H69       1.0  0.64210  0.93400  0.65760  1.0000 0.1298321451
H   H70       1.0  0.67500  0.96370  0.58120  1.0000 0.1217452328
H   H71       1.0  0.71880  0.93850  0.50830  1.0000 0.1117311803
H   H72       1.0  0.40940  0.86950  0.48570  1.0000 0.1117311803
H   H73       1.0  0.36690  0.88820  0.56000  1.0000 0.1298321451
H   H74       1.0  0.56530  0.90150  0.35750  1.0000 0.1117311803
H   H75       1.0  0.45840  0.83230  0.30860  1.0000 0.1413003019
H   H76       1.0  0.37930  0.68870  0.40560  1.0000 0.1413003019
H   H77       1.0  0.48150  0.75990  0.45580  1.0000 0.1117311803
H   H78       1.0  0.38530  0.60180  0.34110  1.0000 0.1217452328
H   H79       1.0  0.27200  0.78260  0.27880  1.0000 0.1413003019
H   H80       1.0  0.20630  0.66920  0.24100  1.0000 0.1298321451
H   H81       1.0  0.03930  0.77830  0.71110  1.0000 0.1117311803
H   H82       1.0  0.90650  0.69010  0.69200  1.0000 0.1117311803
H   H83       1.0  0.77820  0.72020  0.63700  1.0000 0.1117311803
H   H84       1.0  0.78030  0.83740  0.60380  1.0000 0.1117311803
H   H85       1.0  0.93740  0.91910  0.55530  1.0000 0.1117311803
H   H86       1.0  0.91000  0.03100  0.51730  1.0000 0.1117311803
H   H87       1.0  0.86180  0.13890  0.55480  1.0000 0.1117311803
H   H88       1.0  0.83890  0.13520  0.63110  1.0000 0.1117311803
H   H89       1.0  0.82560  0.55000  0.62420  1.0000 0.1217452328
H   H90       1.0  0.03310  0.53960  0.72410  1.0000 0.1298321451
H   H91       1.0  0.14210  0.56600  0.65760  1.0000 0.1298321451
H   H92       1.0  0.17500  0.53630  0.58120  1.0000 0.1217452328
H   H93       1.0  0.21880  0.56150  0.50830  1.0000 0.1117311803
H   H94       1.0  0.90940  0.63050  0.48570  1.0000 0.1117311803
H   H95       1.0  0.86690  0.61180  0.56000  1.0000 0.1298321451
H   H96       1.0  0.06530  0.59850  0.35750  1.0000 0.1117311803
H   H97       1.0  0.95840  0.66770  0.30860  1.0000 0.1413003019
H   H98       1.0  0.87930  0.81130  0.40560  1.0000 0.1413003019
H   H99       1.0  0.98150  0.74010  0.45580  1.0000 0.1117311803
H   H100      1.0  0.88530  0.89820  0.34110  1.0000 0.1217452328
H   H101      1.0  0.77200  0.71740  0.27880  1.0000 0.1413003019
H   H102      1.0  0.70630  0.83080  0.24100  1.0000 0.1298321451
H   H103      1.0  0.53930  0.72170  0.71110  1.0000 0.1117311803
H   H104      1.0  0.40650  0.80990  0.69200  1.0000 0.1117311803
H   H105      1.0  0.27820  0.77980  0.63700  1.0000 0.1117311803
H   H106      1.0  0.28030  0.66260  0.60380  1.0000 0.1117311803
H   H107      1.0  0.43740  0.58090  0.55530  1.0000 0.1117311803
H   H108      1.0  0.41000  0.46900  0.51730  1.0000 0.1117311803
H   H109      1.0  0.36180  0.36110  0.55480  1.0000 0.1117311803
H   H110      1.0  0.33890  0.36480  0.63110  1.0000 0.1117311803
H   H111      1.0  0.17440  0.95000  0.12420  1.0000 0.1217452328
H   H112      1.0  0.96690  0.96040  0.22410  1.0000 0.1298321451
H   H113      1.0  0.85790  0.93400  0.15760  1.0000 0.1298321451
H   H114      1.0  0.82500  0.96370  0.08120  1.0000 0.1217452328
H   H115      1.0  0.78120  0.93850  0.00830  1.0000 0.1117311803
H   H116      1.0  0.09060  0.86950  0.98570  1.0000 0.1117311803
H   H117      1.0  0.13310  0.88820  0.06000  1.0000 0.1298321451
H   H118      1.0  0.93470  0.90150  0.85750  1.0000 0.1117311803
H   H119      1.0  0.04160  0.83230  0.80860  1.0000 0.1413003019
H   H120      1.0  0.12070  0.68870  0.90560  1.0000 0.1413003019
H   H121      1.0  0.01850  0.75990  0.95580  1.0000 0.1117311803
H   H122      1.0  0.11470  0.60180  0.84110  1.0000 0.1217452328
H   H123      1.0  0.22800  0.78260  0.77880  1.0000 0.1413003019
H   H124      1.0  0.29370  0.66920  0.74100  1.0000 0.1298321451
H   H125      1.0  0.46070  0.77830  0.21110  1.0000 0.1117311803
H   H126      1.0  0.59350  0.69010  0.19200  1.0000 0.1117311803
H   H127      1.0  0.72180  0.72020  0.13700  1.0000 0.1117311803
H   H128      1.0  0.71970  0.83740  0.10380  1.0000 0.1117311803
H   H129      1.0  0.56260  0.91910  0.05530  1.0000 0.1117311803
H   H130      1.0  0.59000  0.03100  0.01730  1.0000 0.1117311803
H   H131      1.0  0.63820  0.13890  0.05480  1.0000 0.1117311803
H   H132      1.0  0.66110  0.13520  0.13110  1.0000 0.1117311803
H   H133      1.0  0.32560  0.45000  0.87580  1.0000 0.1217452328
H   H134      1.0  0.53310  0.46040  0.77590  1.0000 0.1298321451
H   H135      1.0  0.64210  0.43400  0.84240  1.0000 0.1298321451
H   H136      1.0  0.67500  0.46370  0.91880  1.0000 0.1217452328
H   H137      1.0  0.71880  0.43850  0.99170  1.0000 0.1117311803
H   H138      1.0  0.40940  0.36950  0.01430  1.0000 0.1117311803
H   H139      1.0  0.36690  0.38820  0.94000  1.0000 0.1298321451
H   H140      1.0  0.56530  0.40150  0.14250  1.0000 0.1117311803
H   H141      1.0  0.45840  0.33230  0.19140  1.0000 0.1413003019
H   H142      1.0  0.37930  0.18870  0.09440  1.0000 0.1413003019
H   H143      1.0  0.48150  0.25990  0.04420  1.0000 0.1117311803
H   H144      1.0  0.38530  0.10180  0.15890  1.0000 0.1217452328
H   H145      1.0  0.27200  0.28260  0.22120  1.0000 0.1413003019
H   H146      1.0  0.20630  0.16920  0.25900  1.0000 0.1298321451
H   H147      1.0  0.03930  0.27830  0.78890  1.0000 0.1117311803
H   H148      1.0  0.90650  0.19010  0.80800  1.0000 0.1117311803
H   H149      1.0  0.77820  0.22020  0.86300  1.0000 0.1117311803
H   H150      1.0  0.78030  0.33740  0.89620  1.0000 0.1117311803
H   H151      1.0  0.93740  0.41910  0.94470  1.0000 0.1117311803
H   H152      1.0  0.91000  0.53100  0.98270  1.0000 0.1117311803
H   H153      1.0  0.86180  0.63890  0.94520  1.0000 0.1117311803
H   H154      1.0  0.83890  0.63520  0.86890  1.0000 0.1117311803
H   H155      1.0  0.67440  0.05000  0.37580  1.0000 0.1217452328
H   H156      1.0  0.46690  0.03960  0.27590  1.0000 0.1298321451
H   H157      1.0  0.35790  0.06600  0.34240  1.0000 0.1298321451
H   H158      1.0  0.32500  0.03630  0.41880  1.0000 0.1217452328
H   H159      1.0  0.28120  0.06150  0.49170  1.0000 0.1117311803
H   H160      1.0  0.59060  0.13050  0.51430  1.0000 0.1117311803
H   H161      1.0  0.63310  0.11180  0.44000  1.0000 0.1298321451
H   H162      1.0  0.43470  0.09850  0.64250  1.0000 0.1117311803
H   H163      1.0  0.54160  0.16770  0.69140  1.0000 0.1413003019
H   H164      1.0  0.62070  0.31130  0.59440  1.0000 0.1413003019
H   H165      1.0  0.51850  0.24010  0.54420  1.0000 0.1117311803
H   H166      1.0  0.61470  0.39820  0.65890  1.0000 0.1217452328
H   H167      1.0  0.72800  0.21740  0.72120  1.0000 0.1413003019
H   H168      1.0  0.79370  0.33080  0.75900  1.0000 0.1298321451
H   H169      1.0  0.96070  0.22170  0.28890  1.0000 0.1117311803
H   H170      1.0  0.09350  0.30990  0.30800  1.0000 0.1117311803
H   H171      1.0  0.22180  0.27980  0.36300  1.0000 0.1117311803
H   H172      1.0  0.21970  0.16260  0.39620  1.0000 0.1117311803
H   H173      1.0  0.06260  0.08090  0.44470  1.0000 0.1117311803
H   H174      1.0  0.09000  0.96900  0.48270  1.0000 0.1117311803
H   H175      1.0  0.13820  0.86110  0.44520  1.0000 0.1117311803
H   H176      1.0  0.16110  0.86480  0.36890  1.0000 0.1117311803
C   C1        1.0  0.10960  0.44950  0.35907  1.0000 0.0953582239
C   C2        1.0  0.99510  0.45500  0.30445  1.0000 -0.0281456371
C   C3        1.0  0.93420  0.44060  0.34099  1.0000 -0.0915442363
C   C4        1.0  0.98200  0.42530  0.42173  1.0000 0.1734674901
C   C5        1.0  0.87760  0.44260  0.43756  1.0000 -0.1797087926
C   C6        1.0  0.85220  0.42820  0.48136  1.0000 -0.0915442363
C   C7        1.0  0.92980  0.39890  0.51034  1.0000 -0.0090919763
C   C8        1.0  0.03610  0.38620  0.49480  1.0000 -0.1110150076
C   C9        1.0  0.06210  0.39830  0.45035  1.0000 -0.1797087926
C   C10       1.0  0.89750  0.38610  0.55775  1.0000 0.3339362864
C   C11       1.0  0.96720  0.33910  0.58789  1.0000 -0.0090919763
C   C12       1.0  0.97320  0.35930  0.63237  1.0000 -0.0915442363
C   C13       1.0  0.03580  0.31730  0.66182  1.0000 -0.1652927946
C   C14       1.0  0.08930  0.25380  0.64746  1.0000 0.1632360604
C   C15       1.0  0.08370  0.23190  0.60387  1.0000 -0.1797087926
C   C16       1.0  0.02240  0.27460  0.57382  1.0000 -0.12197377
C   C17       1.0  0.15150  0.13250  0.67921  1.0000 0.1217452328
C   C18       1.0  0.21310  0.23280  0.71320  1.0000 -0.0967059571
C   C19       1.0  0.24920  0.16990  0.73374  1.0000 -0.0281456371
C   C20       1.0  0.42270  0.41440  0.31456  1.0000 0.5561953571
C   C21       1.0  0.51290  0.36210  0.32904  1.0000 -0.0579927966
C   C22       1.0  0.51390  0.29060  0.31000  1.0000 -0.1110150076
C   C23       1.0  0.59220  0.23730  0.32160  1.0000 -0.1110150076
C   C24       1.0  0.66920  0.25580  0.35440  1.0000 -0.0915442363
C   C25       1.0  0.66840  0.32630  0.37420  1.0000 -0.1472308624
C   C26       1.0  0.59120  0.38150  0.36144  1.0000 0.0665157375
C   C27       1.0  0.60120  0.45710  0.38301  1.0000 0.059099165
C   C28       1.0  0.58440  0.46210  0.42918  1.0000 -0.1472308624
C   C29       1.0  0.59960  0.52960  0.45209  1.0000 -0.0967059571
C   C30       1.0  0.62840  0.59370  0.42986  1.0000 -0.1110150076
C   C31       1.0  0.64300  0.59110  0.38413  1.0000 -0.12197377
C   C32       1.0  0.63100  0.52370  0.36068  1.0000 -0.0528840662
C   C33       1.0  0.66240  0.52520  0.31203  1.0000 0.5311443594
C   C34       1.0  0.89040  0.05050  0.85907  1.0000 0.0953582239
C   C35       1.0  0.00490  0.04500  0.80445  1.0000 -0.0281456371
C   C36       1.0  0.06580  0.05940  0.84099  1.0000 -0.0915442363
C   C37       1.0  0.01800  0.07470  0.92173  1.0000 0.1734674901
C   C38       1.0  0.12240  0.05740  0.93756  1.0000 -0.1797087926
C   C39       1.0  0.14780  0.07180  0.98136  1.0000 -0.0915442363
C   C40       1.0  0.07020  0.10110  0.01034  1.0000 -0.0090919763
C   C41       1.0  0.96390  0.11380  0.99480  1.0000 -0.1110150076
C   C42       1.0  0.93790  0.10170  0.95035  1.0000 -0.1797087926
C   C43       1.0  0.10250  0.11390  0.05775  1.0000 0.3339362864
C   C44       1.0  0.03280  0.16090  0.08789  1.0000 -0.0090919763
C   C45       1.0  0.02680  0.14070  0.13237  1.0000 -0.0915442363
C   C46       1.0  0.96420  0.18270  0.16182  1.0000 -0.1652927946
C   C47       1.0  0.91070  0.24620  0.14746  1.0000 0.1632360604
C   C48       1.0  0.91630  0.26810  0.10387  1.0000 -0.1797087926
C   C49       1.0  0.97760  0.22540  0.07382  1.0000 -0.12197377
C   C50       1.0  0.84850  0.36750  0.17921  1.0000 0.1217452328
C   C51       1.0  0.78690  0.26720  0.21320  1.0000 -0.0967059571
C   C52       1.0  0.75080  0.33010  0.23374  1.0000 -0.0281456371
C   C53       1.0  0.57730  0.08560  0.81456  1.0000 0.5561953571
C   C54       1.0  0.48710  0.13790  0.82904  1.0000 -0.0579927966
C   C55       1.0  0.48610  0.20940  0.81000  1.0000 -0.1110150076
C   C56       1.0  0.40780  0.26270  0.82160  1.0000 -0.1110150076
C   C57       1.0  0.33080  0.24420  0.85440  1.0000 -0.0915442363
C   C58       1.0  0.33160  0.17370  0.87420  1.0000 -0.1472308624
C   C59       1.0  0.40880  0.11850  0.86144  1.0000 0.0665157375
C   C60       1.0  0.39880  0.04290  0.88301  1.0000 0.059099165
C   C61       1.0  0.41560  0.03790  0.92918  1.0000 -0.1472308624
C   C62       1.0  0.40040  0.97040  0.95209  1.0000 -0.0967059571
C   C63       1.0  0.37160  0.90630  0.92986  1.0000 -0.1110150076
C   C64       1.0  0.35700  0.90890  0.88413  1.0000 -0.12197377
C   C65       1.0  0.36900  0.97630  0.86068  1.0000 -0.0528840662
C   C66       1.0  0.33760  0.97480  0.81203  1.0000 0.5311443594
C   C67       1.0  0.60960  0.55050  0.14093  1.0000 0.0953582239
C   C68       1.0  0.49510  0.54500  0.19555  1.0000 -0.0281456371
C   C69       1.0  0.43420  0.55940  0.15901  1.0000 -0.0915442363
C   C70       1.0  0.48200  0.57470  0.07827  1.0000 0.1734674901
C   C71       1.0  0.37760  0.55740  0.06244  1.0000 -0.1797087926
C   C72       1.0  0.35220  0.57180  0.01864  1.0000 -0.0915442363
C   C73       1.0  0.42980  0.60110  0.98966  1.0000 -0.0090919763
C   C74       1.0  0.53610  0.61380  0.00520  1.0000 -0.1110150076
C   C75       1.0  0.56210  0.60170  0.04965  1.0000 -0.1797087926
C   C76       1.0  0.39750  0.61390  0.94225  1.0000 0.3339362864
C   C77       1.0  0.46720  0.66090  0.91211  1.0000 -0.0090919763
C   C78       1.0  0.47320  0.64070  0.86763  1.0000 -0.0915442363
C   C79       1.0  0.53580  0.68270  0.83818  1.0000 -0.1652927946
C   C80       1.0  0.58930  0.74620  0.85254  1.0000 0.1632360604
C   C81       1.0  0.58370  0.76810  0.89613  1.0000 -0.1797087926
C   C82       1.0  0.52240  0.72540  0.92618  1.0000 -0.12197377
C   C83       1.0  0.65150  0.86750  0.82079  1.0000 0.1217452328
C   C84       1.0  0.71310  0.76720  0.78680  1.0000 -0.0967059571
C   C85       1.0  0.74920  0.83010  0.76626  1.0000 -0.0281456371
C   C86       1.0  0.92270  0.58560  0.18544  1.0000 0.5561953571
C   C87       1.0  0.01290  0.63790  0.17096  1.0000 -0.0579927966
C   C88       1.0  0.01390  0.70940  0.19000  1.0000 -0.1110150076
C   C89       1.0  0.09220  0.76270  0.17840  1.0000 -0.1110150076
C   C90       1.0  0.16920  0.74420  0.14560  1.0000 -0.0915442363
C   C91       1.0  0.16840  0.67370  0.12580  1.0000 -0.1472308624
C   C92       1.0  0.09120  0.61850  0.13856  1.0000 0.0665157375
C   C93       1.0  0.10120  0.54290  0.11699  1.0000 0.059099165
C   C94       1.0  0.08440  0.53790  0.07082  1.0000 -0.1472308624
C   C95       1.0  0.09960  0.47040  0.04791  1.0000 -0.0967059571
C   C96       1.0  0.12840  0.40630  0.07014  1.0000 -0.1110150076
C   C97       1.0  0.14300  0.40890  0.11587  1.0000 -0.12197377
C   C98       1.0  0.13100  0.47630  0.13932  1.0000 -0.0528840662
C   C99       1.0  0.16240  0.47480  0.18797  1.0000 0.5311443594
C   C100      1.0  0.39040  0.94950  0.64093  1.0000 0.0953582239
C   C101      1.0  0.50490  0.95500  0.69555  1.0000 -0.0281456371
C   C102      1.0  0.56580  0.94060  0.65901  1.0000 -0.0915442363
C   C103      1.0  0.51800  0.92530  0.57827  1.0000 0.1734674901
C   C104      1.0  0.62240  0.94260  0.56244  1.0000 -0.1797087926
C   C105      1.0  0.64780  0.92820  0.51864  1.0000 -0.0915442363
C   C106      1.0  0.57020  0.89890  0.48966  1.0000 -0.0090919763
C   C107      1.0  0.46390  0.88620  0.50520  1.0000 -0.1110150076
C   C108      1.0  0.43790  0.89830  0.54965  1.0000 -0.1797087926
C   C109      1.0  0.60250  0.88610  0.44225  1.0000 0.3339362864
C   C110      1.0  0.53280  0.83910  0.41211  1.0000 -0.0090919763
C   C111      1.0  0.52680  0.85930  0.36763  1.0000 -0.0915442363
C   C112      1.0  0.46420  0.81730  0.33818  1.0000 -0.1652927946
C   C113      1.0  0.41070  0.75380  0.35254  1.0000 0.1632360604
C   C114      1.0  0.41630  0.73190  0.39613  1.0000 -0.1797087926
C   C115      1.0  0.47760  0.77460  0.42618  1.0000 -0.12197377
C   C116      1.0  0.34850  0.63250  0.32079  1.0000 0.1217452328
C   C117      1.0  0.28690  0.73280  0.28680  1.0000 -0.0967059571
C   C118      1.0  0.25080  0.66990  0.26626  1.0000 -0.0281456371
C   C119      1.0  0.07730  0.91440  0.68544  1.0000 0.5561953571
C   C120      1.0  0.98710  0.86210  0.67096  1.0000 -0.0579927966
C   C121      1.0  0.98610  0.79060  0.69000  1.0000 -0.1110150076
C   C122      1.0  0.90780  0.73730  0.67840  1.0000 -0.1110150076
C   C123      1.0  0.83080  0.75580  0.64560  1.0000 -0.0915442363
C   C124      1.0  0.83160  0.82630  0.62580  1.0000 -0.1472308624
C   C125      1.0  0.90880  0.88150  0.63856  1.0000 0.0665157375
C   C126      1.0  0.89880  0.95710  0.61699  1.0000 0.059099165
C   C127      1.0  0.91560  0.96210  0.57082  1.0000 -0.1472308624
C   C128      1.0  0.90040  0.02960  0.54791  1.0000 -0.0967059571
C   C129      1.0  0.87160  0.09370  0.57014  1.0000 -0.1110150076
C   C130      1.0  0.85700  0.09110  0.61587  1.0000 -0.12197377
C   C131      1.0  0.86900  0.02370  0.63932  1.0000 -0.0528840662
C   C132      1.0  0.83760  0.02520  0.68797  1.0000 0.5311443594
C   C133      1.0  0.89040  0.55050  0.64093  1.0000 0.0953582239
C   C134      1.0  0.00490  0.54500  0.69555  1.0000 -0.0281456371
C   C135      1.0  0.06580  0.55940  0.65901  1.0000 -0.0915442363
C   C136      1.0  0.01800  0.57470  0.57827  1.0000 0.1734674901
C   C137      1.0  0.12240  0.55740  0.56244  1.0000 -0.1797087926
C   C138      1.0  0.14780  0.57180  0.51864  1.0000 -0.0915442363
C   C139      1.0  0.07020  0.60110  0.48966  1.0000 -0.0090919763
C   C140      1.0  0.96390  0.61380  0.50520  1.0000 -0.1110150076
C   C141      1.0  0.93790  0.60170  0.54965  1.0000 -0.1797087926
C   C142      1.0  0.10250  0.61390  0.44225  1.0000 0.3339362864
C   C143      1.0  0.03280  0.66090  0.41211  1.0000 -0.0090919763
C   C144      1.0  0.02680  0.64070  0.36763  1.0000 -0.0915442363
C   C145      1.0  0.96420  0.68270  0.33818  1.0000 -0.1652927946
C   C146      1.0  0.91070  0.74620  0.35254  1.0000 0.1632360604
C   C147      1.0  0.91630  0.76810  0.39613  1.0000 -0.1797087926
C   C148      1.0  0.97760  0.72540  0.42618  1.0000 -0.12197377
C   C149      1.0  0.84850  0.86750  0.32079  1.0000 0.1217452328
C   C150      1.0  0.78690  0.76720  0.28680  1.0000 -0.0967059571
C   C151      1.0  0.75080  0.83010  0.26626  1.0000 -0.0281456371
C   C152      1.0  0.57730  0.58560  0.68544  1.0000 0.5561953571
C   C153      1.0  0.48710  0.63790  0.67096  1.0000 -0.0579927966
C   C154      1.0  0.48610  0.70940  0.69000  1.0000 -0.1110150076
C   C155      1.0  0.40780  0.76270  0.67840  1.0000 -0.1110150076
C   C156      1.0  0.33080  0.74420  0.64560  1.0000 -0.0915442363
C   C157      1.0  0.33160  0.67370  0.62580  1.0000 -0.1472308624
C   C158      1.0  0.40880  0.61850  0.63856  1.0000 0.0665157375
C   C159      1.0  0.39880  0.54290  0.61699  1.0000 0.059099165
C   C160      1.0  0.41560  0.53790  0.57082  1.0000 -0.1472308624
C   C161      1.0  0.40040  0.47040  0.54791  1.0000 -0.0967059571
C   C162      1.0  0.37160  0.40630  0.57014  1.0000 -0.1110150076
C   C163      1.0  0.35700  0.40890  0.61587  1.0000 -0.12197377
C   C164      1.0  0.36900  0.47630  0.63932  1.0000 -0.0528840662
C   C165      1.0  0.33760  0.47480  0.68797  1.0000 0.5311443594
C   C166      1.0  0.10960  0.94950  0.14093  1.0000 0.0953582239
C   C167      1.0  0.99510  0.95500  0.19555  1.0000 -0.0281456371
C   C168      1.0  0.93420  0.94060  0.15901  1.0000 -0.0915442363
C   C169      1.0  0.98200  0.92530  0.07827  1.0000 0.1734674901
C   C170      1.0  0.87760  0.94260  0.06244  1.0000 -0.1797087926
C   C171      1.0  0.85220  0.92820  0.01864  1.0000 -0.0915442363
C   C172      1.0  0.92980  0.89890  0.98966  1.0000 -0.0090919763
C   C173      1.0  0.03610  0.88620  0.00520  1.0000 -0.1110150076
C   C174      1.0  0.06210  0.89830  0.04965  1.0000 -0.1797087926
C   C175      1.0  0.89750  0.88610  0.94225  1.0000 0.3339362864
C   C176      1.0  0.96720  0.83910  0.91211  1.0000 -0.0090919763
C   C177      1.0  0.97320  0.85930  0.86763  1.0000 -0.0915442363
C   C178      1.0  0.03580  0.81730  0.83818  1.0000 -0.1652927946
C   C179      1.0  0.08930  0.75380  0.85254  1.0000 0.1632360604
C   C180      1.0  0.08370  0.73190  0.89613  1.0000 -0.1797087926
C   C181      1.0  0.02240  0.77460  0.92618  1.0000 -0.12197377
C   C182      1.0  0.15150  0.63250  0.82079  1.0000 0.1217452328
C   C183      1.0  0.21310  0.73280  0.78680  1.0000 -0.0967059571
C   C184      1.0  0.24920  0.66990  0.76626  1.0000 -0.0281456371
C   C185      1.0  0.42270  0.91440  0.18544  1.0000 0.5561953571
C   C186      1.0  0.51290  0.86210  0.17096  1.0000 -0.0579927966
C   C187      1.0  0.51390  0.79060  0.19000  1.0000 -0.1110150076
C   C188      1.0  0.59220  0.73730  0.17840  1.0000 -0.1110150076
C   C189      1.0  0.66920  0.75580  0.14560  1.0000 -0.0915442363
C   C190      1.0  0.66840  0.82630  0.12580  1.0000 -0.1472308624
C   C191      1.0  0.59120  0.88150  0.13856  1.0000 0.0665157375
C   C192      1.0  0.60120  0.95710  0.11699  1.0000 0.059099165
C   C193      1.0  0.58440  0.96210  0.07082  1.0000 -0.1472308624
C   C194      1.0  0.59960  0.02960  0.04791  1.0000 -0.0967059571
C   C195      1.0  0.62840  0.09370  0.07014  1.0000 -0.1110150076
C   C196      1.0  0.64300  0.09110  0.11587  1.0000 -0.12197377
C   C197      1.0  0.63100  0.02370  0.13932  1.0000 -0.0528840662
C   C198      1.0  0.66240  0.02520  0.18797  1.0000 0.5311443594
C   C199      1.0  0.39040  0.44950  0.85907  1.0000 0.0953582239
C   C200      1.0  0.50490  0.45500  0.80445  1.0000 -0.0281456371
C   C201      1.0  0.56580  0.44060  0.84099  1.0000 -0.0915442363
C   C202      1.0  0.51800  0.42530  0.92173  1.0000 0.1734674901
C   C203      1.0  0.62240  0.44260  0.93756  1.0000 -0.1797087926
C   C204      1.0  0.64780  0.42820  0.98136  1.0000 -0.0915442363
C   C205      1.0  0.57020  0.39890  0.01034  1.0000 -0.0090919763
C   C206      1.0  0.46390  0.38620  0.99480  1.0000 -0.1110150076
C   C207      1.0  0.43790  0.39830  0.95035  1.0000 -0.1797087926
C   C208      1.0  0.60250  0.38610  0.05775  1.0000 0.3339362864
C   C209      1.0  0.53280  0.33910  0.08789  1.0000 -0.0090919763
C   C210      1.0  0.52680  0.35930  0.13237  1.0000 -0.0915442363
C   C211      1.0  0.46420  0.31730  0.16182  1.0000 -0.1652927946
C   C212      1.0  0.41070  0.25380  0.14746  1.0000 0.1632360604
C   C213      1.0  0.41630  0.23190  0.10387  1.0000 -0.1797087926
C   C214      1.0  0.47760  0.27460  0.07382  1.0000 -0.12197377
C   C215      1.0  0.34850  0.13250  0.17921  1.0000 0.1217452328
C   C216      1.0  0.28690  0.23280  0.21320  1.0000 -0.0967059571
C   C217      1.0  0.25080  0.16990  0.23374  1.0000 -0.0281456371
C   C218      1.0  0.07730  0.41440  0.81456  1.0000 0.5561953571
C   C219      1.0  0.98710  0.36210  0.82904  1.0000 -0.0579927966
C   C220      1.0  0.98610  0.29060  0.81000  1.0000 -0.1110150076
C   C221      1.0  0.90780  0.23730  0.82160  1.0000 -0.1110150076
C   C222      1.0  0.83080  0.25580  0.85440  1.0000 -0.0915442363
C   C223      1.0  0.83160  0.32630  0.87420  1.0000 -0.1472308624
C   C224      1.0  0.90880  0.38150  0.86144  1.0000 0.0665157375
C   C225      1.0  0.89880  0.45710  0.88301  1.0000 0.059099165
C   C226      1.0  0.91560  0.46210  0.92918  1.0000 -0.1472308624
C   C227      1.0  0.90040  0.52960  0.95209  1.0000 -0.0967059571
C   C228      1.0  0.87160  0.59370  0.92986  1.0000 -0.1110150076
C   C229      1.0  0.85700  0.59110  0.88413  1.0000 -0.12197377
C   C230      1.0  0.86900  0.52370  0.86068  1.0000 -0.0528840662
C   C231      1.0  0.83760  0.52520  0.81203  1.0000 0.5311443594
C   C232      1.0  0.60960  0.05050  0.35907  1.0000 0.0953582239
C   C233      1.0  0.49510  0.04500  0.30445  1.0000 -0.0281456371
C   C234      1.0  0.43420  0.05940  0.34099  1.0000 -0.0915442363
C   C235      1.0  0.48200  0.07470  0.42173  1.0000 0.1734674901
C   C236      1.0  0.37760  0.05740  0.43756  1.0000 -0.1797087926
C   C237      1.0  0.35220  0.07180  0.48136  1.0000 -0.0915442363
C   C238      1.0  0.42980  0.10110  0.51034  1.0000 -0.0090919763
C   C239      1.0  0.53610  0.11380  0.49480  1.0000 -0.1110150076
C   C240      1.0  0.56210  0.10170  0.45035  1.0000 -0.1797087926
C   C241      1.0  0.39750  0.11390  0.55775  1.0000 0.3339362864
C   C242      1.0  0.46720  0.16090  0.58789  1.0000 -0.0090919763
C   C243      1.0  0.47320  0.14070  0.63237  1.0000 -0.0915442363
C   C244      1.0  0.53580  0.18270  0.66182  1.0000 -0.1652927946
C   C245      1.0  0.58930  0.24620  0.64746  1.0000 0.1632360604
C   C246      1.0  0.58370  0.26810  0.60387  1.0000 -0.1797087926
C   C247      1.0  0.52240  0.22540  0.57382  1.0000 -0.12197377
C   C248      1.0  0.65150  0.36750  0.67921  1.0000 0.1217452328
C   C249      1.0  0.71310  0.26720  0.71320  1.0000 -0.0967059571
C   C250      1.0  0.74920  0.33010  0.73374  1.0000 -0.0281456371
C   C251      1.0  0.92270  0.08560  0.31456  1.0000 0.5561953571
C   C252      1.0  0.01290  0.13790  0.32904  1.0000 -0.0579927966
C   C253      1.0  0.01390  0.20940  0.31000  1.0000 -0.1110150076
C   C254      1.0  0.09220  0.26270  0.32160  1.0000 -0.1110150076
C   C255      1.0  0.16920  0.24420  0.35440  1.0000 -0.0915442363
C   C256      1.0  0.16840  0.17370  0.37420  1.0000 -0.1472308624
C   C257      1.0  0.09120  0.11850  0.36144  1.0000 0.0665157375
C   C258      1.0  0.10120  0.04290  0.38301  1.0000 0.059099165
C   C259      1.0  0.08440  0.03790  0.42918  1.0000 -0.1472308624
C   C260      1.0  0.09960  0.97040  0.45209  1.0000 -0.0967059571
C   C261      1.0  0.12840  0.90630  0.42986  1.0000 -0.1110150076
C   C262      1.0  0.14300  0.90890  0.38413  1.0000 -0.12197377
C   C263      1.0  0.13100  0.97630  0.36068  1.0000 -0.0528840662
C   C264      1.0  0.16240  0.97480  0.31203  1.0000 0.5311443594
N   N1        1.0  0.10540  0.46040  0.31584  1.0000 -0.2989271793
N   N2        1.0  0.00780  0.43770  0.37595  1.0000 0.0009466533
N   N3        1.0  0.21100  0.10720  0.71224  1.0000 -0.2855034086
N   N4        1.0  0.15010  0.20860  0.67816  1.0000 0.0062589117
N   N5        1.0  0.89460  0.03960  0.81584  1.0000 -0.2989271793
N   N6        1.0  0.99220  0.06230  0.87595  1.0000 0.0009466533
N   N7        1.0  0.78900  0.39280  0.21224  1.0000 -0.2855034086
N   N8        1.0  0.84990  0.29140  0.17816  1.0000 0.0062589117
N   N9        1.0  0.60540  0.53960  0.18416  1.0000 -0.2989271793
N   N10       1.0  0.50780  0.56230  0.12405  1.0000 0.0009466533
N   N11       1.0  0.71100  0.89280  0.78776  1.0000 -0.2849520955
N   N12       1.0  0.65010  0.79140  0.82184  1.0000 0.0062589117
N   N13       1.0  0.39460  0.96040  0.68416  1.0000 -0.2989271793
N   N14       1.0  0.49220  0.93770  0.62405  1.0000 0.0009466533
N   N15       1.0  0.28900  0.60720  0.28776  1.0000 -0.2855034086
N   N16       1.0  0.34990  0.70860  0.32184  1.0000 0.0062589117
N   N17       1.0  0.89460  0.53960  0.68416  1.0000 -0.2989271793
N   N18       1.0  0.99220  0.56230  0.62405  1.0000 0.0009466533
N   N19       1.0  0.78900  0.89280  0.28776  1.0000 -0.2849520955
N   N20       1.0  0.84990  0.79140  0.32184  1.0000 0.0062589117
N   N21       1.0  0.10540  0.96040  0.18416  1.0000 -0.2989271793
N   N22       1.0  0.00780  0.93770  0.12405  1.0000 0.0009466533
N   N23       1.0  0.21100  0.60720  0.78776  1.0000 -0.2855034086
N   N24       1.0  0.15010  0.70860  0.82184  1.0000 0.0062589117
N   N25       1.0  0.39460  0.46040  0.81584  1.0000 -0.2989271793
N   N26       1.0  0.49220  0.43770  0.87595  1.0000 0.0009466533
N   N27       1.0  0.28900  0.10720  0.21224  1.0000 -0.2855034086
N   N28       1.0  0.34990  0.20860  0.17816  1.0000 0.0062589117
N   N29       1.0  0.60540  0.03960  0.31584  1.0000 -0.2989271793
N   N30       1.0  0.50780  0.06230  0.37595  1.0000 0.0009466533
N   N31       1.0  0.71100  0.39280  0.71224  1.0000 -0.2849520955
N   N32       1.0  0.65010  0.29140  0.67816  1.0000 0.0062589117
O   O1        1.0  0.39200  0.41060  0.27419  1.0000 -0.5518170211
O   O2        1.0  0.37680  0.45780  0.34174  1.0000 -0.5578982446
O   O3        1.0  0.65610  0.58440  0.29109  1.0000 -0.5178246114
O   O4        1.0  0.70080  0.46674  0.29570  1.0000 -0.5012183103
O   O5        1.0  0.81240  0.41520  0.57229  1.0000 -0.4410273756
O   O6        1.0  0.60800  0.08940  0.77419  1.0000 -0.5518170211
O   O7        1.0  0.62320  0.04220  0.84174  1.0000 -0.5578982446
O   O8        1.0  0.34390  0.91560  0.79109  1.0000 -0.5178246114
O   O9        1.0  0.29920  0.03326  0.79570  1.0000 -0.5012183103
O   O10       1.0  0.18760  0.08480  0.07229  1.0000 -0.4410273756
O   O11       1.0  0.89200  0.58940  0.22581  1.0000 -0.5518170211
O   O12       1.0  0.87680  0.54220  0.15826  1.0000 -0.5578982446
O   O13       1.0  0.15610  0.41560  0.20891  1.0000 -0.5178246114
O   O14       1.0  0.20080  0.53326  0.20430  1.0000 -0.5012183103
O   O15       1.0  0.31240  0.58480  0.92771  1.0000 -0.4410273756
O   O16       1.0  0.10800  0.91060  0.72581  1.0000 -0.5518170211
O   O17       1.0  0.12320  0.95780  0.65826  1.0000 -0.5578982446
O   O18       1.0  0.84390  0.08440  0.70891  1.0000 -0.5178246114
O   O19       1.0  0.79920  0.96674  0.70430  1.0000 -0.5012183103
O   O20       1.0  0.68760  0.91520  0.42771  1.0000 -0.4410273756
O   O21       1.0  0.60800  0.58940  0.72581  1.0000 -0.5518170211
O   O22       1.0  0.62320  0.54220  0.65826  1.0000 -0.5578982446
O   O23       1.0  0.34390  0.41560  0.70891  1.0000 -0.5178246114
O   O24       1.0  0.29920  0.53326  0.70430  1.0000 -0.5012183103
O   O25       1.0  0.18760  0.58480  0.42771  1.0000 -0.4410273756
O   O26       1.0  0.39200  0.91060  0.22581  1.0000 -0.5518170211
O   O27       1.0  0.37680  0.95780  0.15826  1.0000 -0.5578982446
O   O28       1.0  0.65610  0.08440  0.20891  1.0000 -0.5178246114
O   O29       1.0  0.70080  0.96674  0.20430  1.0000 -0.5012183103
O   O30       1.0  0.81240  0.91520  0.92771  1.0000 -0.4410273756
O   O31       1.0  0.10800  0.41060  0.77419  1.0000 -0.5518170211
O   O32       1.0  0.12320  0.45780  0.84174  1.0000 -0.5578982446
O   O33       1.0  0.84390  0.58440  0.79109  1.0000 -0.5178246114
O   O34       1.0  0.79920  0.46674  0.79570  1.0000 -0.5012183103
O   O35       1.0  0.68760  0.41520  0.07229  1.0000 -0.4410273756
O   O36       1.0  0.89200  0.08940  0.27419  1.0000 -0.5518170211
O   O37       1.0  0.87680  0.04220  0.34174  1.0000 -0.5578982446
O   O38       1.0  0.15610  0.91560  0.29109  1.0000 -0.5178246114
O   O39       1.0  0.20080  0.03326  0.29570  1.0000 -0.5012183103
O   O40       1.0  0.31240  0.08480  0.57229  1.0000 -0.4410273756
