# DDEC6 charges by PACMAN v1.1 (https://github.com/mtap-research/PACMAN-charge/)
data_2020[Zn][pcu]3[FSR]6
_chemical_formula_sum              "Zn4 H32 C56 N6 O16"
_cell_length_a       13.7405
_cell_length_b       13.7405
_cell_length_c       16.1959
_cell_angle_alpha    58.1666
_cell_angle_beta     121.833
_cell_angle_gamma    116.464

_symmetry_space_group_name_H-M    "P 1"
_symmetry_Int_Tables_number       1

loop_
  _symmetry_equiv_pos_as_xyz
  'x, y, z'

loop_
  _atom_site_type_symbol
  _atom_site_label
  _atom_site_symmetry_multiplicity
  _atom_site_fract_x
  _atom_site_fract_y
  _atom_site_fract_z
  _atom_site_occupancy
  _atom_site_charge
Zn  Zn1       1.0  0.41330  0.07918  0.42523  1.0000 0.8774255564
Zn  Zn2       1.0  0.07918  0.41330  0.07477  1.0000 0.8774255564
Zn  Zn3       1.0  0.58670  0.92082  0.57477  1.0000 0.8774255564
Zn  Zn4       1.0  0.92082  0.58670  0.92523  1.0000 0.8774255564
H   H1        1.0  0.19050  0.88270  0.59540  1.0000 0.1285197971
H   H2        1.0  0.40090  0.65210  0.78690  1.0000 0.1186660404
H   H3        1.0  0.08660  0.78020  0.70400  1.0000 0.1285197971
H   H4        1.0  0.29640  0.54980  0.89540  1.0000 0.1186660404
H   H5        1.0  0.42610  0.33390  0.40490  1.0000 0.142538612
H   H6        1.0  0.58050  0.49710  0.39820  1.0000 0.1094550317
H   H7        1.0  0.16050  0.90950  0.39480  1.0000 0.142538612
H   H8        1.0  0.96100  0.83920  0.32390  1.0000 0.1186660404
H   H9        1.0  0.88270  0.19050  0.90460  1.0000 0.1285197971
H   H10       1.0  0.65210  0.40090  0.71310  1.0000 0.1186660404
H   H11       1.0  0.78020  0.08660  0.79600  1.0000 0.1285197971
H   H12       1.0  0.54980  0.29640  0.60460  1.0000 0.1186660404
H   H13       1.0  0.33390  0.42610  0.09510  1.0000 0.142538612
H   H14       1.0  0.49710  0.58050  0.10180  1.0000 0.1094550317
H   H15       1.0  0.90950  0.16050  0.10520  1.0000 0.142538612
H   H16       1.0  0.83920  0.96100  0.17610  1.0000 0.1186660404
H   H17       1.0  0.80950  0.11730  0.40460  1.0000 0.1285197971
H   H18       1.0  0.59910  0.34790  0.21310  1.0000 0.1186660404
H   H19       1.0  0.91340  0.21980  0.29600  1.0000 0.1285197971
H   H20       1.0  0.70360  0.45020  0.10460  1.0000 0.1186660404
H   H21       1.0  0.57390  0.66610  0.59510  1.0000 0.142538612
H   H22       1.0  0.41950  0.50290  0.60180  1.0000 0.1094550317
H   H23       1.0  0.83950  0.09050  0.60520  1.0000 0.142538612
H   H24       1.0  0.03900  0.16080  0.67610  1.0000 0.1186660404
H   H25       1.0  0.11730  0.80950  0.09540  1.0000 0.1285197971
H   H26       1.0  0.34790  0.59910  0.28690  1.0000 0.1186660404
H   H27       1.0  0.21980  0.91340  0.20400  1.0000 0.1285197971
H   H28       1.0  0.45020  0.70360  0.39540  1.0000 0.1186660404
H   H29       1.0  0.66610  0.57390  0.90490  1.0000 0.142538612
H   H30       1.0  0.50290  0.41950  0.89820  1.0000 0.1094550317
H   H31       1.0  0.09050  0.83950  0.89480  1.0000 0.142538612
H   H32       1.0  0.16080  0.03900  0.82390  1.0000 0.1186660404
C   C1        1.0  0.37910  0.85070  0.61360  1.0000 0.5887269875
C   C2        1.0  0.30780  0.77980  0.68070  1.0000 -0.0126741982
C   C3        1.0  0.21300  0.81540  0.65700  1.0000 -0.0999390163
C   C4        1.0  0.33740  0.67900  0.77020  1.0000 -0.0999390163
C   C5        1.0  0.11700  0.59280  0.88370  1.0000 0.5887269875
C   C6        1.0  0.18190  0.65570  0.81160  1.0000 -0.0126741982
C   C7        1.0  0.15120  0.75440  0.72140  1.0000 -0.0999390163
C   C8        1.0  0.27520  0.61820  0.83460  1.0000 -0.1054478164
C   C9        1.0  0.43770  0.38430  0.34080  1.0000 -0.1657815079
C   C10       1.0  0.53020  0.48120  0.33600  1.0000 0.0788702046
C   C11       1.0  0.15670  0.08170  0.29360  1.0000 0.161845227
C   C12       1.0  0.11090  0.96110  0.33680  1.0000 -0.1614978674
C   C13       1.0  0.99440  0.92060  0.29390  1.0000 -0.0999390163
C   C14       1.0  0.85070  0.37910  0.88640  1.0000 0.5887269875
C   C15       1.0  0.77980  0.30780  0.81930  1.0000 -0.0126741982
C   C16       1.0  0.81540  0.21300  0.84300  1.0000 -0.0999390163
C   C17       1.0  0.67900  0.33740  0.72980  1.0000 -0.0999390163
C   C18       1.0  0.59280  0.11700  0.61630  1.0000 0.5887269875
C   C19       1.0  0.65570  0.18190  0.68840  1.0000 -0.0126741982
C   C20       1.0  0.75440  0.15120  0.77860  1.0000 -0.0999390163
C   C21       1.0  0.61820  0.27520  0.66540  1.0000 -0.1054478164
C   C22       1.0  0.38430  0.43770  0.15920  1.0000 -0.1657815079
C   C23       1.0  0.48120  0.53020  0.16400  1.0000 0.0788702046
C   C24       1.0  0.08170  0.15670  0.20640  1.0000 0.161845227
C   C25       1.0  0.96110  0.11090  0.16320  1.0000 -0.1614978674
C   C26       1.0  0.92060  0.99440  0.20610  1.0000 -0.0999390163
C   C27       1.0  0.62090  0.14930  0.38640  1.0000 0.5887269875
C   C28       1.0  0.69220  0.22020  0.31930  1.0000 -0.0126741982
C   C29       1.0  0.78700  0.18460  0.34300  1.0000 -0.0999390163
C   C30       1.0  0.66260  0.32100  0.22980  1.0000 -0.0999390163
C   C31       1.0  0.88300  0.40720  0.11630  1.0000 0.5887269875
C   C32       1.0  0.81810  0.34430  0.18840  1.0000 -0.0126741982
C   C33       1.0  0.84880  0.24560  0.27860  1.0000 -0.0999390163
C   C34       1.0  0.72480  0.38180  0.16540  1.0000 -0.1054478164
C   C35       1.0  0.56230  0.61570  0.65920  1.0000 -0.1657815079
C   C36       1.0  0.46980  0.51880  0.66400  1.0000 0.0788702046
C   C37       1.0  0.84330  0.91830  0.70640  1.0000 0.161845227
C   C38       1.0  0.88910  0.03890  0.66320  1.0000 -0.1614978674
C   C39       1.0  0.00560  0.07940  0.70610  1.0000 -0.0999390163
C   C40       1.0  0.14930  0.62090  0.11360  1.0000 0.5887269875
C   C41       1.0  0.22020  0.69220  0.18070  1.0000 -0.0126741982
C   C42       1.0  0.18460  0.78700  0.15700  1.0000 -0.0999390163
C   C43       1.0  0.32100  0.66260  0.27020  1.0000 -0.0999390163
C   C44       1.0  0.40720  0.88300  0.38370  1.0000 0.5887269875
C   C45       1.0  0.34430  0.81810  0.31160  1.0000 -0.0126741982
C   C46       1.0  0.24560  0.84880  0.22140  1.0000 -0.0999390163
C   C47       1.0  0.38180  0.72480  0.33460  1.0000 -0.1054478164
C   C48       1.0  0.61570  0.56230  0.84080  1.0000 -0.1657815079
C   C49       1.0  0.51880  0.46980  0.83600  1.0000 0.0788702046
C   C50       1.0  0.91830  0.84330  0.79360  1.0000 0.161845227
C   C51       1.0  0.03890  0.88910  0.83680  1.0000 -0.1614978674
C   C52       1.0  0.07940  0.00560  0.79390  1.0000 -0.0999390163
C   C53       1.0  0.25790  0.25790  0.25000  1.0000 0.3185895433
C   C54       1.0  0.36150  0.36150  0.25000  1.0000 0.1008045052
C   C55       1.0  0.74210  0.74210  0.75000  1.0000 0.3185895433
C   C56       1.0  0.63850  0.63850  0.75000  1.0000 0.1008045052
N   N1        1.0  0.27040  0.14860  0.32140  1.0000 -0.3865879724
N   N2        1.0  0.14860  0.27040  0.17860  1.0000 -0.3865879724
N   N3        1.0  0.72960  0.85140  0.67860  1.0000 -0.3865879724
N   N4        1.0  0.85140  0.72960  0.82140  1.0000 -0.3865879724
N   N5        1.0  0.55440  0.55440  0.25000  1.0000 -0.269059817
N   N6        1.0  0.44560  0.44560  0.75000  1.0000 -0.269059817
O   O1        1.0  0.34328  0.93772  0.53200  1.0000 -0.5526616822
O   O2        1.0  0.46864  0.81976  0.64310  1.0000 -0.5157592545
O   O3        1.0  0.03486  0.63294  0.85720  1.0000 -0.5327457438
O   O4        1.0  0.15071  0.50549  0.96530  1.0000 -0.5327457438
O   O5        1.0  0.93772  0.34328  0.96800  1.0000 -0.5526616822
O   O6        1.0  0.81976  0.46864  0.85690  1.0000 -0.5157592545
O   O7        1.0  0.63294  0.03486  0.64280  1.0000 -0.5327457438
O   O8        1.0  0.50549  0.15071  0.53470  1.0000 -0.5327457438
O   O9        1.0  0.65672  0.06228  0.46800  1.0000 -0.5526616822
O   O10       1.0  0.53136  0.18024  0.35690  1.0000 -0.5157592545
O   O11       1.0  0.96514  0.36706  0.14280  1.0000 -0.5327457438
O   O12       1.0  0.84929  0.49451  0.03470  1.0000 -0.5327457438
O   O13       1.0  0.06228  0.65672  0.03200  1.0000 -0.5526616822
O   O14       1.0  0.18024  0.53136  0.14310  1.0000 -0.5157592545
O   O15       1.0  0.36706  0.96514  0.35720  1.0000 -0.5327457438
O   O16       1.0  0.49451  0.84929  0.46530  1.0000 -0.5327457438
