# DDEC6 charges by PACMAN v1.1 (https://github.com/mtap-research/PACMAN-charge/)
data_2020[Lu][hcb]2[FSR]1
_chemical_formula_sum              "Lu2 H28 C24 O26"
_cell_length_a       6.7487
_cell_length_b       8.4114
_cell_length_c       17.4415
_cell_angle_alpha    93.865
_cell_angle_beta     99.382
_cell_angle_gamma    94.223

_symmetry_space_group_name_H-M    "P 1"
_symmetry_Int_Tables_number       1

loop_
  _symmetry_equiv_pos_as_xyz
  'x, y, z'

loop_
  _atom_site_type_symbol
  _atom_site_label
  _atom_site_symmetry_multiplicity
  _atom_site_fract_x
  _atom_site_fract_y
  _atom_site_fract_z
  _atom_site_occupancy
  _atom_site_charge
Lu  Lu1       1.0  0.61146  0.50675  0.28040  1.0000 1.642802415
Lu  Lu2       1.0  0.38854  0.49325  0.71960  1.0000 1.642802415
H   H1        1.0  0.35944  0.86531  0.38004  1.0000 0.1336386815
H   H2        1.0  0.05868  0.96743  0.63354  1.0000 0.1444589249
H   H3        1.0  0.04808  0.41340  0.12583  1.0000 0.1336386815
H   H4        1.0  0.36488  0.64673  0.53280  1.0000 0.3566453832
H   H5        1.0  0.84609  0.64314  0.51979  1.0000 0.3566453832
H   H6        1.0  0.37219  0.29333  0.01252  1.0000 0.3515699483
H   H7        1.0  0.35215  0.58808  0.39117  1.0000 0.3515699483
H   H8        1.0  0.20845  0.53258  0.32807  1.0000 0.3566453832
H   H9        1.0  0.39737  0.23412  0.22776  1.0000 0.3802064635
H   H10       1.0  0.39387  0.30112  0.15287  1.0000 0.3907201566
H   H11       1.0  0.96191  0.34917  0.33873  1.0000 0.3324949123
H   H12       1.0  0.90751  0.32597  0.26082  1.0000 0.3373318143
H   H13       1.0  0.43115  0.69064  0.16284  1.0000 0.4116502382
H   H14       1.0  0.31895  0.70554  0.23134  1.0000 0.4116502382
H   H15       1.0  0.64056  0.13469  0.61996  1.0000 0.1336386815
H   H16       1.0  0.94132  0.03257  0.36646  1.0000 0.1444589249
H   H17       1.0  0.95192  0.58660  0.87417  1.0000 0.1336386815
H   H18       1.0  0.63512  0.35327  0.46720  1.0000 0.3566453832
H   H19       1.0  0.15391  0.35686  0.48021  1.0000 0.3566453832
H   H20       1.0  0.62781  0.70667  0.98748  1.0000 0.3515699483
H   H21       1.0  0.64785  0.41192  0.60883  1.0000 0.3515699483
H   H22       1.0  0.79155  0.46742  0.67193  1.0000 0.3566453832
H   H23       1.0  0.60263  0.76588  0.77224  1.0000 0.3802064635
H   H24       1.0  0.60613  0.69888  0.84713  1.0000 0.3907201566
H   H25       1.0  0.03809  0.65083  0.66127  1.0000 0.3324949123
H   H26       1.0  0.09249  0.67403  0.73918  1.0000 0.3373318143
H   H27       1.0  0.56885  0.30936  0.83716  1.0000 0.4116502382
H   H28       1.0  0.68105  0.29446  0.76866  1.0000 0.4116502382
C   C1        1.0  0.47970  0.16060  0.35750  1.0000 0.599345205
C   C2        1.0  0.49250  0.07990  0.43140  1.0000 -0.1301333132
C   C3        1.0  0.41640  0.92050  0.42890  1.0000 -0.218821416
C   C4        1.0  0.42210  0.84110  0.49610  1.0000 0.2503488414
C   C5        1.0  0.82050  0.73830  0.38920  1.0000 0.5747799255
C   C6        1.0  0.91280  0.87280  0.44700  1.0000 -0.1301333132
C   C7        1.0  0.95030  0.85190  0.52690  1.0000 0.2503488414
C   C8        1.0  0.03560  0.98040  0.57920  1.0000 -0.1953797363
C   C9        1.0  0.72710  0.58150  0.10650  1.0000 0.6179274894
C   C10       1.0  0.86870  0.54000  0.05130  1.0000 -0.1301333132
C   C11       1.0  0.02860  0.44850  0.07470  1.0000 -0.218821416
C   C12       1.0  0.15960  0.40810  0.02440  1.0000 0.2597318865
C   C13       1.0  0.52030  0.83940  0.64250  1.0000 0.599345205
C   C14       1.0  0.50750  0.92010  0.56860  1.0000 -0.1301333132
C   C15       1.0  0.58360  0.07950  0.57110  1.0000 -0.218821416
C   C16       1.0  0.57790  0.15890  0.50390  1.0000 0.2503488414
C   C17       1.0  0.17950  0.26170  0.61080  1.0000 0.5747799255
C   C18       1.0  0.08720  0.12720  0.55300  1.0000 -0.1301333132
C   C19       1.0  0.04970  0.14810  0.47310  1.0000 0.2503488414
C   C20       1.0  0.96440  0.01960  0.42080  1.0000 -0.1953797363
C   C21       1.0  0.27290  0.41850  0.89350  1.0000 0.6179274894
C   C22       1.0  0.13130  0.46000  0.94870  1.0000 -0.1301333132
C   C23       1.0  0.97140  0.55150  0.92530  1.0000 -0.218821416
C   C24       1.0  0.84040  0.59190  0.97560  1.0000 0.2597318865
O   O1        1.0  0.58010  0.29680  0.36070  1.0000 -0.6368014239
O   O2        1.0  0.37350  0.09490  0.29740  1.0000 -0.5123056196
O   O3        1.0  0.34270  0.68470  0.48920  1.0000 -0.4429209453
O   O4        1.0  0.75370  0.60790  0.41340  1.0000 -0.5998233778
O   O5        1.0  0.80190  0.75270  0.31740  1.0000 -0.5544370733
O   O6        1.0  0.90170  0.70980  0.55640  1.0000 -0.4429209453
O   O7        1.0  0.75220  0.52510  0.17217  1.0000 -0.5998233778
O   O8        1.0  0.58840  0.66820  0.08330  1.0000 -0.5449462555
O   O9        1.0  0.31300  0.31880  0.04980  1.0000 -0.4429209453
O   O10       1.0  0.33150  0.55430  0.33880  1.0000 -0.7220809184
O   O11       1.0  0.41930  0.31500  0.20390  1.0000 -0.735523703
O   O12       1.0  0.92760  0.39550  0.30030  1.0000 -0.6614488386
O   O13       1.0  0.41260  0.66430  0.20600  1.0000 -0.7220809184
O   O14       1.0  0.41990  0.70320  0.63930  1.0000 -0.6368014239
O   O15       1.0  0.62650  0.90510  0.70260  1.0000 -0.5123056196
O   O16       1.0  0.65730  0.31530  0.51080  1.0000 -0.4429209453
O   O17       1.0  0.24630  0.39210  0.58660  1.0000 -0.5998233778
O   O18       1.0  0.19810  0.24730  0.68260  1.0000 -0.5544370733
O   O19       1.0  0.09830  0.29020  0.44360  1.0000 -0.4429209453
O   O20       1.0  0.24780  0.47490  0.82783  1.0000 -0.6052112006
O   O21       1.0  0.41160  0.33180  0.91670  1.0000 -0.5449462555
O   O22       1.0  0.68700  0.68120  0.95020  1.0000 -0.4429209453
O   O23       1.0  0.66850  0.44570  0.66120  1.0000 -0.7220809184
O   O24       1.0  0.58070  0.68500  0.79610  1.0000 -0.735523703
O   O25       1.0  0.07240  0.60450  0.69970  1.0000 -0.6614488386
O   O26       1.0  0.58740  0.33570  0.79400  1.0000 -0.7220809184
