# DDEC6 charges by PACMAN v1.1 (https://github.com/mtap-research/PACMAN-charge/)
data_2020[Sm][pts]3[FSR]1
_chemical_formula_sum              "Sm4 H40 C30 N12 O32"
_cell_length_a       10.5852
_cell_length_b       10.5852
_cell_length_c       14.8528
_cell_angle_alpha    89.4481
_cell_angle_beta     90.5519
_cell_angle_gamma    74.2944

_symmetry_space_group_name_H-M    "P 1"
_symmetry_Int_Tables_number       1

loop_
  _symmetry_equiv_pos_as_xyz
  'x, y, z'

loop_
  _atom_site_type_symbol
  _atom_site_label
  _atom_site_symmetry_multiplicity
  _atom_site_fract_x
  _atom_site_fract_y
  _atom_site_fract_z
  _atom_site_occupancy
  _atom_site_charge
Sm  Sm1       1.0  0.82497  0.57257  0.94234  1.0000 2.053886679
Sm  Sm2       1.0  0.57257  0.82497  0.55766  1.0000 2.053886679
Sm  Sm3       1.0  0.17503  0.42743  0.05766  1.0000 2.053886679
Sm  Sm4       1.0  0.42743  0.17503  0.44234  1.0000 2.053886679
H   H1        1.0  0.65440  0.19720  0.16810  1.0000 0.1419766451
H   H2        1.0  0.53840  0.32480  0.15870  1.0000 0.1285873475
H   H3        1.0  0.88580  0.31920  0.25120  1.0000 0.1477534552
H   H4        1.0  0.85720  0.20580  0.19480  1.0000 0.1419766451
H   H5        1.0  0.94110  0.78550  0.21250  1.0000 0.1477534552
H   H6        1.0  0.94650  0.64230  0.24380  1.0000 0.1554236086
H   H7        1.0  0.56070  0.55230  0.95430  1.0000 0.3606307479
H   H8        1.0  0.56120  0.65960  0.00720  1.0000 0.3660584959
H   H9        1.0  0.65410  0.76210  0.82930  1.0000 0.3606307479
H   H10       1.0  0.72440  0.83300  0.87720  1.0000 0.3606307479
H   H11       1.0  0.19720  0.65440  0.33190  1.0000 0.1419766451
H   H12       1.0  0.32480  0.53840  0.34130  1.0000 0.1285873475
H   H13       1.0  0.31920  0.88580  0.24880  1.0000 0.1477534552
H   H14       1.0  0.20580  0.85720  0.30520  1.0000 0.1419766451
H   H15       1.0  0.78550  0.94110  0.28750  1.0000 0.1477534552
H   H16       1.0  0.64230  0.94650  0.25620  1.0000 0.1554236086
H   H17       1.0  0.55230  0.56070  0.54570  1.0000 0.3606307479
H   H18       1.0  0.65960  0.56120  0.49280  1.0000 0.3660584959
H   H19       1.0  0.76210  0.65410  0.67070  1.0000 0.3606307479
H   H20       1.0  0.83300  0.72440  0.62280  1.0000 0.3606307479
H   H21       1.0  0.34560  0.80280  0.83190  1.0000 0.1419766451
H   H22       1.0  0.46160  0.67520  0.84130  1.0000 0.1285873475
H   H23       1.0  0.11420  0.68080  0.74880  1.0000 0.1419766451
H   H24       1.0  0.14280  0.79420  0.80520  1.0000 0.1419766451
H   H25       1.0  0.05890  0.21450  0.78750  1.0000 0.1477534552
H   H26       1.0  0.05350  0.35770  0.75620  1.0000 0.1554236086
H   H27       1.0  0.43930  0.44770  0.04570  1.0000 0.3606307479
H   H28       1.0  0.43880  0.34040  0.99280  1.0000 0.3660584959
H   H29       1.0  0.34590  0.23790  0.17070  1.0000 0.3606307479
H   H30       1.0  0.27560  0.16700  0.12280  1.0000 0.3606307479
H   H31       1.0  0.80280  0.34560  0.66810  1.0000 0.1419766451
H   H32       1.0  0.67520  0.46160  0.65870  1.0000 0.1285873475
H   H33       1.0  0.68080  0.11420  0.75120  1.0000 0.1477534552
H   H34       1.0  0.79420  0.14280  0.69480  1.0000 0.1419766451
H   H35       1.0  0.21450  0.05890  0.71250  1.0000 0.1477534552
H   H36       1.0  0.35770  0.05350  0.74380  1.0000 0.1554236086
H   H37       1.0  0.44770  0.43930  0.45430  1.0000 0.3606307479
H   H38       1.0  0.34040  0.43880  0.50720  1.0000 0.3660584959
H   H39       1.0  0.23790  0.34590  0.32930  1.0000 0.3606307479
H   H40       1.0  0.16700  0.27560  0.37720  1.0000 0.3606307479
C   C1        1.0  0.55260  0.24320  0.28570  1.0000 0.6142998608
C   C2        1.0  0.60980  0.27780  0.19800  1.0000 -0.2503587631
C   C3        1.0  0.89940  0.34760  0.11510  1.0000 0.6850440176
C   C4        1.0  0.84060  0.30020  0.19800  1.0000 -0.2417897834
C   C5        1.0  0.65550  0.48510  0.23080  1.0000 0.4956536265
C   C6        1.0  0.89550  0.71770  0.20960  1.0000 -0.2417897834
C   C7        1.0  0.88460  0.67940  0.11240  1.0000 0.6651889356
C   C8        1.0  0.24320  0.55260  0.21430  1.0000 0.6142998608
C   C9        1.0  0.27780  0.60980  0.30200  1.0000 -0.2503587631
C   C10       1.0  0.34760  0.89940  0.38490  1.0000 0.6849476965
C   C11       1.0  0.30020  0.84060  0.30200  1.0000 -0.2417897834
C   C12       1.0  0.48510  0.65550  0.26920  1.0000 0.4956536265
C   C13       1.0  0.71770  0.89550  0.29040  1.0000 -0.2417897834
C   C14       1.0  0.67940  0.88460  0.38760  1.0000 0.6648420962
C   C15       1.0  0.44740  0.75680  0.71430  1.0000 0.6142998608
C   C16       1.0  0.39020  0.72220  0.80200  1.0000 -0.2503587631
C   C17       1.0  0.10060  0.65240  0.88490  1.0000 0.6849476965
C   C18       1.0  0.15940  0.69980  0.80200  1.0000 -0.2417897834
C   C19       1.0  0.34450  0.51490  0.76920  1.0000 0.4956536265
C   C20       1.0  0.10450  0.28230  0.79040  1.0000 -0.2417897834
C   C21       1.0  0.11540  0.32060  0.88760  1.0000 0.6651889356
C   C22       1.0  0.75680  0.44740  0.78570  1.0000 0.6142998608
C   C23       1.0  0.72220  0.39020  0.69800  1.0000 -0.2503587631
C   C24       1.0  0.65240  0.10060  0.61510  1.0000 0.6850440176
C   C25       1.0  0.69980  0.15940  0.69800  1.0000 -0.2417897834
C   C26       1.0  0.51490  0.34450  0.73080  1.0000 0.4956536265
C   C27       1.0  0.28230  0.10450  0.70960  1.0000 -0.2417897834
C   C28       1.0  0.32060  0.11540  0.61240  1.0000 0.6651889356
C   C29       1.0  0.68530  0.68530  0.25000  1.0000 0.4817233356
C   C30       1.0  0.31470  0.31470  0.75000  1.0000 0.4817233356
N   N1        1.0  0.70110  0.35690  0.20930  1.0000 -0.058235124
N   N2        1.0  0.74090  0.55810  0.23070  1.0000 -0.5512498943
N   N3        1.0  0.35690  0.70110  0.29070  1.0000 -0.058235124
N   N4        1.0  0.55810  0.74090  0.26930  1.0000 -0.5512498943
N   N5        1.0  0.29890  0.64310  0.79070  1.0000 -0.058235124
N   N6        1.0  0.25910  0.44190  0.76930  1.0000 -0.5512498943
N   N7        1.0  0.64310  0.29890  0.70930  1.0000 -0.058235124
N   N8        1.0  0.44190  0.25910  0.73070  1.0000 -0.5512498943
N   N9        1.0  0.52630  0.52630  0.25000  1.0000 -0.5801208345
N   N10       1.0  0.76560  0.76560  0.25000  1.0000 -0.058235124
N   N11       1.0  0.47370  0.47370  0.75000  1.0000 -0.5801208345
N   N12       1.0  0.23440  0.23440  0.75000  1.0000 -0.058235124
O   O1        1.0  0.60180  0.58080  0.99540  1.0000 -0.7476141779
O   O2        1.0  0.68160  0.77600  0.88130  1.0000 -0.7570547787
O   O3        1.0  0.02350  0.31730  0.11420  1.0000 -0.6933983294
O   O4        1.0  0.97590  0.58910  0.07930  1.0000 -0.7387343375
O   O5        1.0  0.44950  0.20370  0.27990  1.0000 -0.6543405382
O   O6        1.0  0.60480  0.24880  0.36130  1.0000 -0.5997153846
O   O7        1.0  0.78770  0.73510  0.06500  1.0000 -0.5801208345
O   O8        1.0  0.82410  0.40730  0.05380  1.0000 -0.6311979024
O   O9        1.0  0.58080  0.60180  0.50460  1.0000 -0.7476141779
O   O10       1.0  0.77600  0.68160  0.61870  1.0000 -0.7570547787
O   O11       1.0  0.31730  0.02350  0.38580  1.0000 -0.6933983294
O   O12       1.0  0.58910  0.97590  0.42070  1.0000 -0.7387343375
O   O13       1.0  0.20370  0.44950  0.22010  1.0000 -0.6543405382
O   O14       1.0  0.24880  0.60480  0.13870  1.0000 -0.5997153846
O   O15       1.0  0.73510  0.78770  0.43500  1.0000 -0.5801208345
O   O16       1.0  0.40730  0.82410  0.44620  1.0000 -0.6311979024
O   O17       1.0  0.39820  0.41920  0.00460  1.0000 -0.7476141779
O   O18       1.0  0.31840  0.22400  0.11870  1.0000 -0.7570547787
O   O19       1.0  0.97650  0.68270  0.88580  1.0000 -0.6933983294
O   O20       1.0  0.02410  0.41090  0.92070  1.0000 -0.7387343375
O   O21       1.0  0.55050  0.79630  0.72010  1.0000 -0.6543405382
O   O22       1.0  0.39520  0.75120  0.63870  1.0000 -0.5997153846
O   O23       1.0  0.21230  0.26490  0.93500  1.0000 -0.5801208345
O   O24       1.0  0.17590  0.59270  0.94620  1.0000 -0.6311979024
O   O25       1.0  0.41920  0.39820  0.49540  1.0000 -0.7476141779
O   O26       1.0  0.22400  0.31840  0.38130  1.0000 -0.7570547787
O   O27       1.0  0.68270  0.97650  0.61420  1.0000 -0.6933983294
O   O28       1.0  0.41090  0.02410  0.57930  1.0000 -0.7387343375
O   O29       1.0  0.79630  0.55050  0.77990  1.0000 -0.6543405382
O   O30       1.0  0.75120  0.39520  0.86130  1.0000 -0.5997153846
O   O31       1.0  0.26490  0.21230  0.56500  1.0000 -0.5801208345
O   O32       1.0  0.59270  0.17590  0.55380  1.0000 -0.6311979024
