# DDEC6 charges by PACMAN v1.1 (https://github.com/mtap-research/PACMAN-charge/)
data_2020[Zn][hcb]3[FSR]1
_chemical_formula_sum              "Zn8 H176 C224 N40 O32"
_cell_length_a       9.049
_cell_length_b       29.724
_cell_length_c       20.527
_cell_angle_alpha    90
_cell_angle_beta     93.336
_cell_angle_gamma    90

_symmetry_space_group_name_H-M    "P 1"
_symmetry_Int_Tables_number       1

loop_
  _symmetry_equiv_pos_as_xyz
  'x, y, z'

loop_
  _atom_site_type_symbol
  _atom_site_label
  _atom_site_symmetry_multiplicity
  _atom_site_fract_x
  _atom_site_fract_y
  _atom_site_fract_z
  _atom_site_occupancy
  _atom_site_charge
Zn  Zn1       1.0  0.02848  0.67530  0.08040  1.0000 0.6924750986
Zn  Zn2       1.0  0.83996  0.65340  0.43352  1.0000 0.5010252329
Zn  Zn3       1.0  0.97152  0.17530  0.41960  1.0000 0.6924750986
Zn  Zn4       1.0  0.16004  0.15340  0.06648  1.0000 0.5010252329
Zn  Zn5       1.0  0.97152  0.32470  0.91960  1.0000 0.6924750986
Zn  Zn6       1.0  0.16004  0.34660  0.56648  1.0000 0.5010252329
Zn  Zn7       1.0  0.02848  0.82470  0.58040  1.0000 0.6924750986
Zn  Zn8       1.0  0.83996  0.84660  0.93352  1.0000 0.5010252329
H   H1        1.0  0.28170  0.79520  0.22340  1.0000 0.1119787267
H   H2        1.0  0.42900  0.85840  0.23000  1.0000 0.1195345732
H   H3        1.0  0.41890  0.86450  0.03620  1.0000 0.1295402917
H   H4        1.0  0.27650  0.80070  0.02840  1.0000 0.1119787267
H   H5        1.0  0.69230  0.01680  0.38810  1.0000 0.1195345732
H   H6        1.0  0.61310  0.96590  0.31010  1.0000 0.1195345732
H   H7        1.0  0.78970  0.04110  0.17340  1.0000 0.1195345732
H   H8        1.0  0.88140  0.09050  0.25420  1.0000 0.1195345732
H   H9        1.0  0.68630  0.78540  0.34780  1.0000 0.1195345732
H   H10       1.0  0.57520  0.85350  0.33130  1.0000 0.1195345732
H   H11       1.0  0.33090  0.83120  0.48520  1.0000 0.1119787267
H   H12       1.0  0.43780  0.76050  0.49800  1.0000 0.1195345732
H   H13       1.0  0.19360  0.98440  0.13190  1.0000 0.1195345732
H   H14       1.0  0.24250  0.93630  0.21860  1.0000 0.1195345732
H   H15       1.0  0.26770  0.04120  0.34030  1.0000 0.1119787267
H   H16       1.0  0.22860  0.08910  0.25400  1.0000 0.1119787267
H   H17       1.0  0.91100  0.59970  0.99250  1.0000 0.1009967909
H   H18       1.0  0.90330  0.57940  0.88440  1.0000 0.1391193619
H   H19       1.0  0.04510  0.70150  0.84200  1.0000 0.1391193619
H   H20       1.0  0.05130  0.71950  0.95230  1.0000 0.1119787267
H   H21       1.0  0.83310  0.71100  0.54400  1.0000 0.1009967909
H   H22       1.0  0.83280  0.71280  0.65430  1.0000 0.1391193619
H   H23       1.0  0.93100  0.58230  0.65430  1.0000 0.1295402917
H   H24       1.0  0.91690  0.58380  0.54120  1.0000 0.1119787267
H   H25       1.0  0.07040  0.63410  0.76100  1.0000 0.1295402917
H   H26       1.0  0.95720  0.59500  0.76990  1.0000 0.1195345732
H   H27       1.0  0.87230  0.68210  0.75330  1.0000 0.1119787267
H   H28       1.0  0.77030  0.63950  0.75040  1.0000 0.1195345732
H   H29       1.0  0.69160  0.67280  0.04960  1.0000 0.1119787267
H   H30       1.0  0.48060  0.66500  0.10520  1.0000 0.1391193619
H   H31       1.0  0.72690  0.68630  0.27020  1.0000 0.1477219171
H   H32       1.0  0.92680  0.69050  0.21000  1.0000 0.1195345732
H   H33       1.0  0.98720  0.71150  0.34140  1.0000 0.1119787267
H   H34       1.0  0.19240  0.71760  0.28560  1.0000 0.1477219171
H   H35       1.0  0.37910  0.62430  0.39910  1.0000 0.1477219171
H   H36       1.0  0.16160  0.61620  0.44820  1.0000 0.1195345732
H   H37       1.0  0.37400  0.69820  0.21870  1.0000 0.1195345732
H   H38       1.0  0.39010  0.64600  0.21750  1.0000 0.1195345732
H   H39       1.0  0.49980  0.69980  0.31250  1.0000 0.1295402917
H   H40       1.0  0.51010  0.64750  0.31140  1.0000 0.1295402917
H   H41       1.0  0.62120  0.00140  0.10180  1.0000 0.2768142032
H   H42       1.0  0.22700  0.98200  0.42090  1.0000 0.2514439555
H   H43       1.0  0.96730  0.65880  0.41750  1.0000 0.1195345732
H   H44       1.0  0.78400  0.11690  0.45870  1.0000 0.3241872969
H   H45       1.0  0.71830  0.29520  0.27660  1.0000 0.1119787267
H   H46       1.0  0.57100  0.35840  0.27000  1.0000 0.1195345732
H   H47       1.0  0.58110  0.36450  0.46380  1.0000 0.1295402917
H   H48       1.0  0.72350  0.30070  0.47160  1.0000 0.1119787267
H   H49       1.0  0.30770  0.51680  0.11190  1.0000 0.1195345732
H   H50       1.0  0.38690  0.46590  0.18990  1.0000 0.1195345732
H   H51       1.0  0.21030  0.54110  0.32660  1.0000 0.1195345732
H   H52       1.0  0.11860  0.59050  0.24580  1.0000 0.1195345732
H   H53       1.0  0.31370  0.28540  0.15220  1.0000 0.1195345732
H   H54       1.0  0.42480  0.35350  0.16870  1.0000 0.1195345732
H   H55       1.0  0.66910  0.33120  0.01480  1.0000 0.1119787267
H   H56       1.0  0.56220  0.26050  0.00200  1.0000 0.1195345732
H   H57       1.0  0.80640  0.48440  0.36810  1.0000 0.1195345732
H   H58       1.0  0.75750  0.43630  0.28140  1.0000 0.1195345732
H   H59       1.0  0.73230  0.54120  0.15970  1.0000 0.1119787267
H   H60       1.0  0.77140  0.58910  0.24600  1.0000 0.1119787267
H   H61       1.0  0.08900  0.09970  0.50750  1.0000 0.1009967909
H   H62       1.0  0.09670  0.07940  0.61560  1.0000 0.1391193619
H   H63       1.0  0.95490  0.20150  0.65800  1.0000 0.1391193619
H   H64       1.0  0.94870  0.21950  0.54770  1.0000 0.1119787267
H   H65       1.0  0.16690  0.21100  0.95600  1.0000 0.1009967909
H   H66       1.0  0.16720  0.21280  0.84570  1.0000 0.1391193619
H   H67       1.0  0.06900  0.08230  0.84570  1.0000 0.1295402917
H   H68       1.0  0.08310  0.08380  0.95880  1.0000 0.1119787267
H   H69       1.0  0.92960  0.13410  0.73900  1.0000 0.1295402917
H   H70       1.0  0.04280  0.09500  0.73010  1.0000 0.1195345732
H   H71       1.0  0.12770  0.18210  0.74670  1.0000 0.1119787267
H   H72       1.0  0.22970  0.13950  0.74960  1.0000 0.1195345732
H   H73       1.0  0.30840  0.17280  0.45040  1.0000 0.1119787267
H   H74       1.0  0.51940  0.16500  0.39480  1.0000 0.1391193619
H   H75       1.0  0.27310  0.18630  0.22980  1.0000 0.1477219171
H   H76       1.0  0.07320  0.19050  0.29000  1.0000 0.1195345732
H   H77       1.0  0.01280  0.21150  0.15860  1.0000 0.1119787267
H   H78       1.0  0.80760  0.21760  0.21440  1.0000 0.1477219171
H   H79       1.0  0.62090  0.12430  0.10090  1.0000 0.1477219171
H   H80       1.0  0.83840  0.11620  0.05180  1.0000 0.1195345732
H   H81       1.0  0.62600  0.19820  0.28130  1.0000 0.1195345732
H   H82       1.0  0.60990  0.14600  0.28250  1.0000 0.1195345732
H   H83       1.0  0.50020  0.19980  0.18750  1.0000 0.1295402917
H   H84       1.0  0.48990  0.14750  0.18860  1.0000 0.1295402917
H   H85       1.0  0.37880  0.50140  0.39820  1.0000 0.2768142032
H   H86       1.0  0.77300  0.48200  0.07910  1.0000 0.2514439555
H   H87       1.0  0.03270  0.15880  0.08250  1.0000 0.1195345732
H   H88       1.0  0.21600  0.61690  0.04130  1.0000 0.3241872969
H   H89       1.0  0.71830  0.20480  0.77660  1.0000 0.1119787267
H   H90       1.0  0.57100  0.14160  0.77000  1.0000 0.1195345732
H   H91       1.0  0.58110  0.13550  0.96380  1.0000 0.1295402917
H   H92       1.0  0.72350  0.19930  0.97160  1.0000 0.1119787267
H   H93       1.0  0.30770  0.98320  0.61190  1.0000 0.1195345732
H   H94       1.0  0.38690  0.03410  0.68990  1.0000 0.1195345732
H   H95       1.0  0.21030  0.95890  0.82660  1.0000 0.1195345732
H   H96       1.0  0.11860  0.90950  0.74580  1.0000 0.1195345732
H   H97       1.0  0.31370  0.21460  0.65220  1.0000 0.1195345732
H   H98       1.0  0.42480  0.14650  0.66870  1.0000 0.1195345732
H   H99       1.0  0.66910  0.16880  0.51480  1.0000 0.1119787267
H   H100      1.0  0.56220  0.23950  0.50200  1.0000 0.1195345732
H   H101      1.0  0.80640  0.01560  0.86810  1.0000 0.1195345732
H   H102      1.0  0.75750  0.06370  0.78140  1.0000 0.1195345732
H   H103      1.0  0.73230  0.95880  0.65970  1.0000 0.1119787267
H   H104      1.0  0.77140  0.91090  0.74600  1.0000 0.1119787267
H   H105      1.0  0.08900  0.40030  0.00750  1.0000 0.1009967909
H   H106      1.0  0.09670  0.42060  0.11560  1.0000 0.1391193619
H   H107      1.0  0.95490  0.29850  0.15800  1.0000 0.1391193619
H   H108      1.0  0.94870  0.28050  0.04770  1.0000 0.1119787267
H   H109      1.0  0.16690  0.28900  0.45600  1.0000 0.1009967909
H   H110      1.0  0.16720  0.28720  0.34570  1.0000 0.1391193619
H   H111      1.0  0.06900  0.41770  0.34570  1.0000 0.1295402917
H   H112      1.0  0.08310  0.41620  0.45880  1.0000 0.1119787267
H   H113      1.0  0.92960  0.36590  0.23900  1.0000 0.1295402917
H   H114      1.0  0.04280  0.40500  0.23010  1.0000 0.1195345732
H   H115      1.0  0.12770  0.31790  0.24670  1.0000 0.1119787267
H   H116      1.0  0.22970  0.36050  0.24960  1.0000 0.1195345732
H   H117      1.0  0.30840  0.32720  0.95040  1.0000 0.1119787267
H   H118      1.0  0.51940  0.33500  0.89480  1.0000 0.1391193619
H   H119      1.0  0.27310  0.31370  0.72980  1.0000 0.1477219171
H   H120      1.0  0.07320  0.30950  0.79000  1.0000 0.1195345732
H   H121      1.0  0.01280  0.28850  0.65860  1.0000 0.1119787267
H   H122      1.0  0.80760  0.28240  0.71440  1.0000 0.1477219171
H   H123      1.0  0.62090  0.37570  0.60090  1.0000 0.1477219171
H   H124      1.0  0.83840  0.38380  0.55180  1.0000 0.1195345732
H   H125      1.0  0.62600  0.30180  0.78130  1.0000 0.1195345732
H   H126      1.0  0.60990  0.35400  0.78250  1.0000 0.1195345732
H   H127      1.0  0.50020  0.30020  0.68750  1.0000 0.1295402917
H   H128      1.0  0.48990  0.35250  0.68860  1.0000 0.1295402917
H   H129      1.0  0.37880  0.99860  0.89820  1.0000 0.2768142032
H   H130      1.0  0.77300  0.01800  0.57910  1.0000 0.2514439555
H   H131      1.0  0.03270  0.34120  0.58250  1.0000 0.1195345732
H   H132      1.0  0.21600  0.88310  0.54130  1.0000 0.3241872969
H   H133      1.0  0.28170  0.70480  0.72340  1.0000 0.1119787267
H   H134      1.0  0.42900  0.64160  0.73000  1.0000 0.1195345732
H   H135      1.0  0.41890  0.63550  0.53620  1.0000 0.1295402917
H   H136      1.0  0.27650  0.69930  0.52840  1.0000 0.1119787267
H   H137      1.0  0.69230  0.48320  0.88810  1.0000 0.1195345732
H   H138      1.0  0.61310  0.53410  0.81010  1.0000 0.1195345732
H   H139      1.0  0.78970  0.45890  0.67340  1.0000 0.1195345732
H   H140      1.0  0.88140  0.40950  0.75420  1.0000 0.1195345732
H   H141      1.0  0.68630  0.71460  0.84780  1.0000 0.1195345732
H   H142      1.0  0.57520  0.64650  0.83130  1.0000 0.1195345732
H   H143      1.0  0.33090  0.66880  0.98520  1.0000 0.1119787267
H   H144      1.0  0.43780  0.73950  0.99800  1.0000 0.1195345732
H   H145      1.0  0.19360  0.51560  0.63190  1.0000 0.1195345732
H   H146      1.0  0.24250  0.56370  0.71860  1.0000 0.1195345732
H   H147      1.0  0.26770  0.45880  0.84030  1.0000 0.1119787267
H   H148      1.0  0.22860  0.41090  0.75400  1.0000 0.1119787267
H   H149      1.0  0.91100  0.90030  0.49250  1.0000 0.1009967909
H   H150      1.0  0.90330  0.92060  0.38440  1.0000 0.1391193619
H   H151      1.0  0.04510  0.79850  0.34200  1.0000 0.1391193619
H   H152      1.0  0.05130  0.78050  0.45230  1.0000 0.1119787267
H   H153      1.0  0.83310  0.78900  0.04400  1.0000 0.1009967909
H   H154      1.0  0.83280  0.78720  0.15430  1.0000 0.1391193619
H   H155      1.0  0.93100  0.91770  0.15430  1.0000 0.1295402917
H   H156      1.0  0.91690  0.91620  0.04120  1.0000 0.1119787267
H   H157      1.0  0.07040  0.86590  0.26100  1.0000 0.1295402917
H   H158      1.0  0.95720  0.90500  0.26990  1.0000 0.1195345732
H   H159      1.0  0.87230  0.81790  0.25330  1.0000 0.1119787267
H   H160      1.0  0.77030  0.86050  0.25040  1.0000 0.1195345732
H   H161      1.0  0.69160  0.82720  0.54960  1.0000 0.1119787267
H   H162      1.0  0.48060  0.83500  0.60520  1.0000 0.1391193619
H   H163      1.0  0.72690  0.81370  0.77020  1.0000 0.1477219171
H   H164      1.0  0.92680  0.80950  0.71000  1.0000 0.1195345732
H   H165      1.0  0.98720  0.78850  0.84140  1.0000 0.1119787267
H   H166      1.0  0.19240  0.78240  0.78560  1.0000 0.1477219171
H   H167      1.0  0.37910  0.87570  0.89910  1.0000 0.1477219171
H   H168      1.0  0.16160  0.88380  0.94820  1.0000 0.1195345732
H   H169      1.0  0.37400  0.80180  0.71870  1.0000 0.1195345732
H   H170      1.0  0.39010  0.85400  0.71750  1.0000 0.1195345732
H   H171      1.0  0.49980  0.80020  0.81250  1.0000 0.1295402917
H   H172      1.0  0.51010  0.85250  0.81140  1.0000 0.1295402917
H   H173      1.0  0.62120  0.49860  0.60180  1.0000 0.2768142032
H   H174      1.0  0.22700  0.51800  0.92090  1.0000 0.2514439555
H   H175      1.0  0.96730  0.84120  0.91750  1.0000 0.1195345732
H   H176      1.0  0.78400  0.38310  0.95870  1.0000 0.3241872969
C   C1        1.0  0.26490  0.79010  0.12510  1.0000 -0.0329445624
C   C2        1.0  0.30990  0.80890  0.18530  1.0000 -0.1188054978
C   C3        1.0  0.39550  0.84730  0.18940  1.0000 -0.1398946661
C   C4        1.0  0.43170  0.86950  0.13270  1.0000 0.032471199
C   C5        1.0  0.39000  0.85080  0.07420  1.0000 -0.1102112462
C   C6        1.0  0.30590  0.81210  0.06930  1.0000 -0.1102112462
C   C7        1.0  0.17140  0.74860  0.12230  1.0000 0.5309859099
C   C8        1.0  0.79090  0.06010  0.32850  1.0000 -0.0329445624
C   C9        1.0  0.71230  0.02180  0.34480  1.0000 -0.1188054978
C   C10       1.0  0.66420  0.99150  0.29830  1.0000 -0.1315875658
C   C11       1.0  0.69200  0.99900  0.23250  1.0000 0.032471199
C   C12       1.0  0.77060  0.03580  0.21670  1.0000 -0.1398946661
C   C13       1.0  0.82360  0.06610  0.26540  1.0000 -0.1102112462
C   C14       1.0  0.83920  0.09450  0.37780  1.0000 0.4597820672
C   C15       1.0  0.51370  0.91160  0.14070  1.0000 0.2514439555
C   C16       1.0  0.62560  0.96760  0.18350  1.0000 0.2514439555
C   C17       1.0  0.57270  0.76550  0.42310  1.0000 -0.0204300532
C   C18       1.0  0.61250  0.79420  0.37480  1.0000 -0.1188054978
C   C19       1.0  0.54730  0.83520  0.36520  1.0000 -0.1398946661
C   C20       1.0  0.43750  0.84990  0.40640  1.0000 0.032471199
C   C21       1.0  0.40050  0.82180  0.45650  1.0000 -0.1509675004
C   C22       1.0  0.46580  0.77940  0.46470  1.0000 -0.1315875658
C   C23       1.0  0.64520  0.72020  0.43240  1.0000 0.5181396785
C   C24       1.0  0.21420  0.04170  0.18320  1.0000 -0.0204300532
C   C25       1.0  0.21230  0.99600  0.17360  1.0000 -0.1102112462
C   C26       1.0  0.23810  0.96710  0.22600  1.0000 -0.1315875658
C   C27       1.0  0.25740  0.98340  0.28910  1.0000 0.0186535972
C   C28       1.0  0.25430  0.02950  0.29830  1.0000 -0.1509675004
C   C29       1.0  0.23200  0.05820  0.24670  1.0000 -0.1188054978
C   C30       1.0  0.19150  0.07340  0.12630  1.0000 0.5309859099
C   C31       1.0  0.37040  0.89320  0.39260  1.0000 0.2420365544
C   C32       1.0  0.28910  0.95120  0.34300  1.0000 0.25976159
C   C33       1.0  0.94010  0.62060  0.96210  1.0000 0.0468850624
C   C34       1.0  0.93420  0.60820  0.89660  1.0000 -0.2010748215
C   C35       1.0  0.97300  0.63780  0.85040  1.0000 0.1621277861
C   C36       1.0  0.01770  0.68000  0.87200  1.0000 -0.21025388
C   C37       1.0  0.02200  0.69080  0.93880  1.0000 0.0715610603
C   C38       1.0  0.84910  0.68420  0.56660  1.0000 0.0628952994
C   C39       1.0  0.85120  0.68600  0.63290  1.0000 -0.194073808
C   C40       1.0  0.88050  0.64790  0.66650  1.0000 0.1621277861
C   C41       1.0  0.90770  0.60890  0.63220  1.0000 -0.2010748215
C   C42       1.0  0.89970  0.61000  0.56420  1.0000 0.0807100269
C   C43       1.0  0.97390  0.62690  0.77640  1.0000 -0.2368541402
C   C44       1.0  0.86690  0.65070  0.74020  1.0000 -0.2288387609
C   C45       1.0  0.69900  0.67510  0.09480  1.0000 0.0807100269
C   C46       1.0  0.57020  0.67160  0.12770  1.0000 -0.21025388
C   C47       1.0  0.57730  0.67800  0.19490  1.0000 0.1684046718
C   C48       1.0  0.71550  0.68380  0.22500  1.0000 -0.2010748215
C   C49       1.0  0.83480  0.68580  0.18850  1.0000 0.0435219887
C   C50       1.0  0.06580  0.69210  0.35200  1.0000 0.0044745956
C   C51       1.0  0.18970  0.69640  0.31890  1.0000 -0.21025388
C   C52       1.0  0.31260  0.66990  0.33370  1.0000 0.1621277861
C   C53       1.0  0.29810  0.64150  0.38440  1.0000 -0.2010748215
C   C54       1.0  0.16720  0.63730  0.41490  1.0000 0.0104259059
C   C55       1.0  0.43910  0.67350  0.23210  1.0000 -0.2288387609
C   C56       1.0  0.44790  0.67280  0.29780  1.0000 -0.2192830001
C   C57       1.0  0.73510  0.29010  0.37490  1.0000 -0.0329445624
C   C58       1.0  0.69010  0.30890  0.31470  1.0000 -0.1188054978
C   C59       1.0  0.60450  0.34730  0.31060  1.0000 -0.1398946661
C   C60       1.0  0.56830  0.36950  0.36730  1.0000 0.032471199
C   C61       1.0  0.61000  0.35080  0.42580  1.0000 -0.1102112462
C   C62       1.0  0.69410  0.31210  0.43070  1.0000 -0.1102112462
C   C63       1.0  0.82860  0.24860  0.37770  1.0000 0.5309859099
C   C64       1.0  0.20910  0.56010  0.17150  1.0000 -0.0329445624
C   C65       1.0  0.28770  0.52180  0.15520  1.0000 -0.1188054978
C   C66       1.0  0.33580  0.49150  0.20170  1.0000 -0.1315875658
C   C67       1.0  0.30800  0.49900  0.26750  1.0000 0.032471199
C   C68       1.0  0.22940  0.53580  0.28330  1.0000 -0.1398946661
C   C69       1.0  0.17640  0.56610  0.23460  1.0000 -0.1102112462
C   C70       1.0  0.16080  0.59450  0.12220  1.0000 0.4597820672
C   C71       1.0  0.48630  0.41160  0.35930  1.0000 0.2514439555
C   C72       1.0  0.37440  0.46760  0.31650  1.0000 0.2514439555
C   C73       1.0  0.42730  0.26550  0.07690  1.0000 -0.0204300532
C   C74       1.0  0.38750  0.29420  0.12520  1.0000 -0.1188054978
C   C75       1.0  0.45270  0.33520  0.13480  1.0000 -0.1398946661
C   C76       1.0  0.56250  0.34990  0.09360  1.0000 0.032471199
C   C77       1.0  0.59950  0.32180  0.04350  1.0000 -0.1509675004
C   C78       1.0  0.53420  0.27940  0.03530  1.0000 -0.1188054978
C   C79       1.0  0.35480  0.22020  0.06760  1.0000 0.5181396785
C   C80       1.0  0.78580  0.54170  0.31680  1.0000 -0.0204300532
C   C81       1.0  0.78770  0.49600  0.32640  1.0000 -0.1102112462
C   C82       1.0  0.76190  0.46710  0.27400  1.0000 -0.1315875658
C   C83       1.0  0.74260  0.48340  0.21090  1.0000 0.0186535972
C   C84       1.0  0.74570  0.52950  0.20170  1.0000 -0.1509675004
C   C85       1.0  0.76800  0.55820  0.25330  1.0000 -0.1188054978
C   C86       1.0  0.80850  0.57340  0.37370  1.0000 0.5309859099
C   C87       1.0  0.62960  0.39320  0.10740  1.0000 0.2420365544
C   C88       1.0  0.71090  0.45120  0.15700  1.0000 0.25976159
C   C89       1.0  0.05990  0.12060  0.53790  1.0000 0.0468850624
C   C90       1.0  0.06580  0.10820  0.60340  1.0000 -0.2010748215
C   C91       1.0  0.02700  0.13780  0.64960  1.0000 0.1621277861
C   C92       1.0  0.98230  0.18000  0.62800  1.0000 -0.21025388
C   C93       1.0  0.97800  0.19080  0.56120  1.0000 0.0715610603
C   C94       1.0  0.15090  0.18420  0.93340  1.0000 0.0628952994
C   C95       1.0  0.14880  0.18600  0.86710  1.0000 -0.194073808
C   C96       1.0  0.11950  0.14790  0.83350  1.0000 0.1621277861
C   C97       1.0  0.09230  0.10890  0.86780  1.0000 -0.2010748215
C   C98       1.0  0.10030  0.11000  0.93580  1.0000 0.0807100269
C   C99       1.0  0.02610  0.12690  0.72360  1.0000 -0.2368541402
C   C100      1.0  0.13310  0.15070  0.75980  1.0000 -0.2288387609
C   C101      1.0  0.30100  0.17510  0.40520  1.0000 0.0807100269
C   C102      1.0  0.42980  0.17160  0.37230  1.0000 -0.21025388
C   C103      1.0  0.42270  0.17800  0.30510  1.0000 0.1684046718
C   C104      1.0  0.28450  0.18380  0.27500  1.0000 -0.2010748215
C   C105      1.0  0.16520  0.18580  0.31150  1.0000 0.0435219887
C   C106      1.0  0.93420  0.19210  0.14800  1.0000 0.0044745956
C   C107      1.0  0.81030  0.19640  0.18110  1.0000 -0.21025388
C   C108      1.0  0.68740  0.16990  0.16630  1.0000 0.1621277861
C   C109      1.0  0.70190  0.14150  0.11560  1.0000 -0.2010748215
C   C110      1.0  0.83280  0.13730  0.08510  1.0000 0.0104259059
C   C111      1.0  0.56090  0.17350  0.26790  1.0000 -0.2288387609
C   C112      1.0  0.55210  0.17280  0.20220  1.0000 -0.2192830001
C   C113      1.0  0.73510  0.20990  0.87490  1.0000 -0.0329445624
C   C114      1.0  0.69010  0.19110  0.81470  1.0000 -0.1188054978
C   C115      1.0  0.60450  0.15270  0.81060  1.0000 -0.1398946661
C   C116      1.0  0.56830  0.13050  0.86730  1.0000 0.032471199
C   C117      1.0  0.61000  0.14920  0.92580  1.0000 -0.1102112462
C   C118      1.0  0.69410  0.18790  0.93070  1.0000 -0.1102112462
C   C119      1.0  0.82860  0.25140  0.87770  1.0000 0.5309859099
C   C120      1.0  0.20910  0.93990  0.67150  1.0000 -0.0329445624
C   C121      1.0  0.28770  0.97820  0.65520  1.0000 -0.1188054978
C   C122      1.0  0.33580  0.00850  0.70170  1.0000 -0.1315875658
C   C123      1.0  0.30800  0.00100  0.76750  1.0000 0.032471199
C   C124      1.0  0.22940  0.96420  0.78330  1.0000 -0.1398946661
C   C125      1.0  0.17640  0.93390  0.73460  1.0000 -0.1102112462
C   C126      1.0  0.16080  0.90550  0.62220  1.0000 0.4597820672
C   C127      1.0  0.48630  0.08840  0.85930  1.0000 0.2514439555
C   C128      1.0  0.37440  0.03240  0.81650  1.0000 0.2514439555
C   C129      1.0  0.42730  0.23450  0.57690  1.0000 -0.0204300532
C   C130      1.0  0.38750  0.20580  0.62520  1.0000 -0.1188054978
C   C131      1.0  0.45270  0.16480  0.63480  1.0000 -0.1398946661
C   C132      1.0  0.56250  0.15010  0.59360  1.0000 0.032471199
C   C133      1.0  0.59950  0.17820  0.54350  1.0000 -0.1509675004
C   C134      1.0  0.53420  0.22060  0.53530  1.0000 -0.1315875658
C   C135      1.0  0.35480  0.27980  0.56760  1.0000 0.5181396785
C   C136      1.0  0.78580  0.95830  0.81680  1.0000 -0.0204300532
C   C137      1.0  0.78770  0.00400  0.82640  1.0000 -0.1102112462
C   C138      1.0  0.76190  0.03290  0.77400  1.0000 -0.1315875658
C   C139      1.0  0.74260  0.01660  0.71090  1.0000 0.0186535972
C   C140      1.0  0.74570  0.97050  0.70170  1.0000 -0.1509675004
C   C141      1.0  0.76800  0.94180  0.75330  1.0000 -0.1188054978
C   C142      1.0  0.80850  0.92660  0.87370  1.0000 0.5309859099
C   C143      1.0  0.62960  0.10680  0.60740  1.0000 0.2420365544
C   C144      1.0  0.71090  0.04880  0.65700  1.0000 0.25976159
C   C145      1.0  0.05990  0.37940  0.03790  1.0000 0.0468850624
C   C146      1.0  0.06580  0.39180  0.10340  1.0000 -0.2010748215
C   C147      1.0  0.02700  0.36220  0.14960  1.0000 0.1621277861
C   C148      1.0  0.98230  0.32000  0.12800  1.0000 -0.21025388
C   C149      1.0  0.97800  0.30920  0.06120  1.0000 0.0715610603
C   C150      1.0  0.15090  0.31580  0.43340  1.0000 0.0628952994
C   C151      1.0  0.14880  0.31400  0.36710  1.0000 -0.194073808
C   C152      1.0  0.11950  0.35210  0.33350  1.0000 0.1621277861
C   C153      1.0  0.09230  0.39110  0.36780  1.0000 -0.2010748215
C   C154      1.0  0.10030  0.39000  0.43580  1.0000 0.0807100269
C   C155      1.0  0.02610  0.37310  0.22360  1.0000 -0.2368541402
C   C156      1.0  0.13310  0.34930  0.25980  1.0000 -0.2288387609
C   C157      1.0  0.30100  0.32490  0.90520  1.0000 0.0807100269
C   C158      1.0  0.42980  0.32840  0.87230  1.0000 -0.21025388
C   C159      1.0  0.42270  0.32200  0.80510  1.0000 0.1684046718
C   C160      1.0  0.28450  0.31620  0.77500  1.0000 -0.2010748215
C   C161      1.0  0.16520  0.31420  0.81150  1.0000 0.0435219887
C   C162      1.0  0.93420  0.30790  0.64800  1.0000 0.0104259059
C   C163      1.0  0.81030  0.30360  0.68110  1.0000 -0.21025388
C   C164      1.0  0.68740  0.33010  0.66630  1.0000 0.1621277861
C   C165      1.0  0.70190  0.35850  0.61560  1.0000 -0.2010748215
C   C166      1.0  0.83280  0.36270  0.58510  1.0000 0.0104259059
C   C167      1.0  0.56090  0.32650  0.76790  1.0000 -0.2288387609
C   C168      1.0  0.55210  0.32720  0.70220  1.0000 -0.2192830001
C   C169      1.0  0.26490  0.70990  0.62510  1.0000 -0.0329445624
C   C170      1.0  0.30990  0.69110  0.68530  1.0000 -0.1188054978
C   C171      1.0  0.39550  0.65270  0.68940  1.0000 -0.1398946661
C   C172      1.0  0.43170  0.63050  0.63270  1.0000 0.032471199
C   C173      1.0  0.39000  0.64920  0.57420  1.0000 -0.1102112462
C   C174      1.0  0.30590  0.68790  0.56930  1.0000 -0.1102112462
C   C175      1.0  0.17140  0.75140  0.62230  1.0000 0.5309859099
C   C176      1.0  0.79090  0.43990  0.82850  1.0000 -0.0329445624
C   C177      1.0  0.71230  0.47820  0.84480  1.0000 -0.1188054978
C   C178      1.0  0.66420  0.50850  0.79830  1.0000 -0.1315875658
C   C179      1.0  0.69200  0.50100  0.73250  1.0000 0.032471199
C   C180      1.0  0.77060  0.46420  0.71670  1.0000 -0.1398946661
C   C181      1.0  0.82360  0.43390  0.76540  1.0000 -0.1102112462
C   C182      1.0  0.83920  0.40550  0.87780  1.0000 0.4597820672
C   C183      1.0  0.51370  0.58840  0.64070  1.0000 0.2514439555
C   C184      1.0  0.62560  0.53240  0.68350  1.0000 0.2514439555
C   C185      1.0  0.57270  0.73450  0.92310  1.0000 -0.0204300532
C   C186      1.0  0.61250  0.70580  0.87480  1.0000 -0.1188054978
C   C187      1.0  0.54730  0.66480  0.86520  1.0000 -0.1398946661
C   C188      1.0  0.43750  0.65010  0.90640  1.0000 0.032471199
C   C189      1.0  0.40050  0.67820  0.95650  1.0000 -0.1509675004
C   C190      1.0  0.46580  0.72060  0.96470  1.0000 -0.1315875658
C   C191      1.0  0.64520  0.77980  0.93240  1.0000 0.5181396785
C   C192      1.0  0.21420  0.45830  0.68320  1.0000 -0.0204300532
C   C193      1.0  0.21230  0.50400  0.67360  1.0000 -0.1102112462
C   C194      1.0  0.23810  0.53290  0.72600  1.0000 -0.1315875658
C   C195      1.0  0.25740  0.51660  0.78910  1.0000 0.0186535972
C   C196      1.0  0.25430  0.47050  0.79830  1.0000 -0.1509675004
C   C197      1.0  0.23200  0.44180  0.74670  1.0000 -0.1188054978
C   C198      1.0  0.19150  0.42660  0.62630  1.0000 0.5309859099
C   C199      1.0  0.37040  0.60680  0.89260  1.0000 0.2420365544
C   C200      1.0  0.28910  0.54880  0.84300  1.0000 0.25976159
C   C201      1.0  0.94010  0.87940  0.46210  1.0000 0.0468850624
C   C202      1.0  0.93420  0.89180  0.39660  1.0000 -0.2010748215
C   C203      1.0  0.97300  0.86220  0.35040  1.0000 0.1621277861
C   C204      1.0  0.01770  0.82000  0.37200  1.0000 -0.21025388
C   C205      1.0  0.02200  0.80920  0.43880  1.0000 0.0715610603
C   C206      1.0  0.84910  0.81580  0.06660  1.0000 0.0628952994
C   C207      1.0  0.85120  0.81400  0.13290  1.0000 -0.194073808
C   C208      1.0  0.88050  0.85210  0.16650  1.0000 0.1621277861
C   C209      1.0  0.90770  0.89110  0.13220  1.0000 -0.2010748215
C   C210      1.0  0.89970  0.89000  0.06420  1.0000 0.0807100269
C   C211      1.0  0.97390  0.87310  0.27640  1.0000 -0.2368541402
C   C212      1.0  0.86690  0.84930  0.24020  1.0000 -0.2288387609
C   C213      1.0  0.69900  0.82490  0.59480  1.0000 0.0807100269
C   C214      1.0  0.57020  0.82840  0.62770  1.0000 -0.21025388
C   C215      1.0  0.57730  0.82200  0.69490  1.0000 0.1684046718
C   C216      1.0  0.71550  0.81620  0.72500  1.0000 -0.2010748215
C   C217      1.0  0.83480  0.81420  0.68850  1.0000 0.0435219887
C   C218      1.0  0.06580  0.80790  0.85200  1.0000 0.0044745956
C   C219      1.0  0.18970  0.80360  0.81890  1.0000 -0.21025388
C   C220      1.0  0.31260  0.83010  0.83370  1.0000 0.1621277861
C   C221      1.0  0.29810  0.85850  0.88440  1.0000 -0.2010748215
C   C222      1.0  0.16720  0.86270  0.91490  1.0000 0.0104259059
C   C223      1.0  0.43910  0.82650  0.73210  1.0000 -0.2288387609
C   C224      1.0  0.44790  0.82720  0.79780  1.0000 -0.2192830001
N   N1        1.0  0.57680  0.92641  0.19790  1.0000 -0.4184979689
N   N2        1.0  0.52440  0.94160  0.09230  1.0000 -0.2714686213
N   N3        1.0  0.59730  0.97700  0.12100  1.0000 -0.1509675004
N   N4        1.0  0.35170  0.91124  0.33280  1.0000 -0.4049126921
N   N5        1.0  0.31710  0.92120  0.43660  1.0000 -0.2594616269
N   N6        1.0  0.26610  0.95860  0.40440  1.0000 -0.1809919929
N   N7        1.0  0.98480  0.66050  0.98330  1.0000 -0.2594616269
N   N8        1.0  0.86810  0.64747  0.53170  1.0000 -0.21025388
N   N9        1.0  0.83020  0.68150  0.12320  1.0000 -0.2368541402
N   N10       1.0  0.04930  0.66203  0.39880  1.0000 -0.160082866
N   N11       1.0  0.42320  0.42641  0.30210  1.0000 -0.4184979689
N   N12       1.0  0.47560  0.44160  0.40770  1.0000 -0.2714686213
N   N13       1.0  0.40270  0.47700  0.37900  1.0000 -0.1509675004
N   N14       1.0  0.64830  0.41124  0.16720  1.0000 -0.4057355342
N   N15       1.0  0.68290  0.42120  0.06340  1.0000 -0.2594616269
N   N16       1.0  0.73390  0.45860  0.09560  1.0000 -0.1809919929
N   N17       1.0  0.01520  0.16050  0.51670  1.0000 -0.2594616269
N   N18       1.0  0.13190  0.14747  0.96830  1.0000 -0.21025388
N   N19       1.0  0.16980  0.18150  0.37680  1.0000 -0.2368541402
N   N20       1.0  0.95070  0.16203  0.10120  1.0000 -0.160082866
N   N21       1.0  0.42320  0.07359  0.80210  1.0000 -0.4184979689
N   N22       1.0  0.47560  0.05840  0.90770  1.0000 -0.2714686213
N   N23       1.0  0.40270  0.02300  0.87900  1.0000 -0.1509675004
N   N24       1.0  0.64830  0.08876  0.66720  1.0000 -0.4057355342
N   N25       1.0  0.68290  0.07880  0.56340  1.0000 -0.2594616269
N   N26       1.0  0.73390  0.04140  0.59560  1.0000 -0.1809919929
N   N27       1.0  0.01520  0.33950  0.01670  1.0000 -0.2594616269
N   N28       1.0  0.13190  0.35253  0.46830  1.0000 -0.21025388
N   N29       1.0  0.16980  0.31850  0.87680  1.0000 -0.2368541402
N   N30       1.0  0.95070  0.33797  0.60120  1.0000 -0.160082866
N   N31       1.0  0.57680  0.57359  0.69790  1.0000 -0.4184979689
N   N32       1.0  0.52440  0.55840  0.59230  1.0000 -0.2714686213
N   N33       1.0  0.59730  0.52300  0.62100  1.0000 -0.1509675004
N   N34       1.0  0.35170  0.58876  0.83280  1.0000 -0.4049126921
N   N35       1.0  0.31710  0.57880  0.93660  1.0000 -0.2594616269
N   N36       1.0  0.26610  0.54140  0.90440  1.0000 -0.1809919929
N   N37       1.0  0.98480  0.83950  0.48330  1.0000 -0.2594616269
N   N38       1.0  0.86810  0.85253  0.03170  1.0000 -0.21025388
N   N39       1.0  0.83020  0.81850  0.62320  1.0000 -0.2368541402
N   N40       1.0  0.04930  0.83797  0.89880  1.0000 -0.160082866
O   O1        1.0  0.14600  0.72967  0.06700  1.0000 -0.5427843152
O   O2        1.0  0.12300  0.73380  0.17280  1.0000 -0.5497299848
O   O3        1.0  0.89110  0.12760  0.36530  1.0000 -0.3933858542
O   O4        1.0  0.75090  0.09720  0.43400  1.0000 -0.4547049023
O   O5        1.0  0.76970  0.71461  0.40910  1.0000 -0.5194607494
O   O6        1.0  0.58160  0.69016  0.46100  1.0000 -0.5194607494
O   O7        1.0  0.24030  0.11266  0.13410  1.0000 -0.5101291356
O   O8        1.0  0.12210  0.06140  0.07650  1.0000 -0.5427843152
O   O9        1.0  0.85400  0.22967  0.43300  1.0000 -0.5427843152
O   O10       1.0  0.87700  0.23380  0.32720  1.0000 -0.5497299848
O   O11       1.0  0.10890  0.62760  0.13470  1.0000 -0.3933858542
O   O12       1.0  0.24910  0.59720  0.06600  1.0000 -0.456743103
O   O13       1.0  0.23030  0.21461  0.09090  1.0000 -0.5194607494
O   O14       1.0  0.41840  0.19016  0.03900  1.0000 -0.5194607494
O   O15       1.0  0.75970  0.61266  0.36590  1.0000 -0.5101291356
O   O16       1.0  0.87790  0.56140  0.42350  1.0000 -0.5427843152
O   O17       1.0  0.85400  0.27033  0.93300  1.0000 -0.5427843152
O   O18       1.0  0.87700  0.26620  0.82720  1.0000 -0.5497299848
O   O19       1.0  0.10890  0.87240  0.63470  1.0000 -0.3933858542
O   O20       1.0  0.24910  0.90280  0.56600  1.0000 -0.4547049023
O   O21       1.0  0.23030  0.28539  0.59090  1.0000 -0.5194607494
O   O22       1.0  0.41840  0.30984  0.53900  1.0000 -0.5194607494
O   O23       1.0  0.75970  0.88734  0.86590  1.0000 -0.5101291356
O   O24       1.0  0.87790  0.93860  0.92350  1.0000 -0.5427843152
O   O25       1.0  0.14600  0.77033  0.56700  1.0000 -0.5427843152
O   O26       1.0  0.12300  0.76620  0.67280  1.0000 -0.5497299848
O   O27       1.0  0.89110  0.37240  0.86530  1.0000 -0.3933858542
O   O28       1.0  0.75090  0.40280  0.93400  1.0000 -0.4547049023
O   O29       1.0  0.76970  0.78539  0.90910  1.0000 -0.5194607494
O   O30       1.0  0.58160  0.80984  0.96100  1.0000 -0.5194607494
O   O31       1.0  0.24030  0.38734  0.63410  1.0000 -0.5101291356
O   O32       1.0  0.12210  0.43860  0.57650  1.0000 -0.5427843152
