# DDEC6 charges by PACMAN v1.1 (https://github.com/mtap-research/PACMAN-charge/)
data_2020[Al][nan]3[FSR]2
_chemical_formula_sum              "Al12 H132 C216 O84"
_cell_length_a       20.2161
_cell_length_b       20.2161
_cell_length_c       17.1169
_cell_angle_alpha    90
_cell_angle_beta     90
_cell_angle_gamma    95.5941

_symmetry_space_group_name_H-M    "P 1"
_symmetry_Int_Tables_number       1

loop_
  _symmetry_equiv_pos_as_xyz
  'x, y, z'

loop_
  _atom_site_type_symbol
  _atom_site_label
  _atom_site_symmetry_multiplicity
  _atom_site_fract_x
  _atom_site_fract_y
  _atom_site_fract_z
  _atom_site_occupancy
  _atom_site_charge
Al  Al1       1.0  0.66813  0.27941  0.41364  1.0000 1.6525140011
Al  Al2       1.0  0.33187  0.72059  0.41364  1.0000 1.6525140011
Al  Al3       1.0  0.72059  0.33187  0.58636  1.0000 1.6525140011
Al  Al4       1.0  0.27941  0.66813  0.58636  1.0000 1.6525140011
Al  Al5       1.0  0.83187  0.22059  0.08636  1.0000 1.6525140011
Al  Al6       1.0  0.16813  0.77941  0.08636  1.0000 1.6525140011
Al  Al7       1.0  0.77941  0.16813  0.91364  1.0000 1.6525140011
Al  Al8       1.0  0.22059  0.83187  0.91364  1.0000 1.6525140011
Al  Al9       1.0  0.75000  0.25000  0.25000  1.0000 1.663115
Al  Al10      1.0  0.25000  0.75000  0.25000  1.0000 1.663115
Al  Al11      1.0  0.75000  0.25000  0.75000  1.0000 1.663115
Al  Al12      1.0  0.25000  0.75000  0.75000  1.0000 1.663115
H   H1        1.0  0.66317  0.45459  0.32043  1.0000 0.1283828643
H   H2        1.0  0.66793  0.55887  0.26122  1.0000 0.1283828643
H   H3        1.0  0.74312  0.64418  0.46050  1.0000 0.1283828643
H   H4        1.0  0.74045  0.53859  0.51801  1.0000 0.1203961226
H   H5        1.0  0.63881  0.75979  0.36004  1.0000 0.1640062198
H   H6        1.0  0.78911  0.89189  0.43669  1.0000 0.1532812096
H   H7        1.0  0.82968  0.71380  0.34736  1.0000 0.1640062198
H   H8        1.0  0.73319  0.04729  0.27988  1.0000 0.1203961226
H   H9        1.0  0.72468  0.93394  0.30797  1.0000 0.1283828643
H   H10       1.0  0.61475  0.96629  0.49877  1.0000 0.1429480218
H   H11       1.0  0.62437  0.07977  0.47130  1.0000 0.1283828643
H   H12       1.0  0.08149  0.75351  0.39187  1.0000 0.1203961226
H   H13       1.0  0.98611  0.77147  0.46268  1.0000 0.1283828643
H   H14       1.0  0.90038  0.83246  0.26487  1.0000 0.1283828643
H   H15       1.0  0.99614  0.81490  0.19500  1.0000 0.1283828643
H   H16       1.0  0.77433  0.32667  0.35684  1.0000 0.422180186
H   H17       1.0  0.33683  0.54541  0.32043  1.0000 0.1283828643
H   H18       1.0  0.33207  0.44113  0.26122  1.0000 0.1283828643
H   H19       1.0  0.25688  0.35582  0.46050  1.0000 0.1283828643
H   H20       1.0  0.25955  0.46141  0.51801  1.0000 0.1203961226
H   H21       1.0  0.36119  0.24021  0.36004  1.0000 0.1640062198
H   H22       1.0  0.21089  0.10811  0.43669  1.0000 0.1532812096
H   H23       1.0  0.17032  0.28620  0.34736  1.0000 0.1640062198
H   H24       1.0  0.26681  0.95271  0.27988  1.0000 0.1203961226
H   H25       1.0  0.27532  0.06606  0.30797  1.0000 0.1283828643
H   H26       1.0  0.38525  0.03371  0.49877  1.0000 0.1429480218
H   H27       1.0  0.37563  0.92023  0.47130  1.0000 0.1283828643
H   H28       1.0  0.91851  0.24649  0.39187  1.0000 0.1203961226
H   H29       1.0  0.01389  0.22853  0.46268  1.0000 0.1283828643
H   H30       1.0  0.09962  0.16754  0.26487  1.0000 0.1283828643
H   H31       1.0  0.00386  0.18510  0.19500  1.0000 0.1283828643
H   H32       1.0  0.22567  0.67333  0.35684  1.0000 0.422180186
H   H33       1.0  0.54541  0.33683  0.67957  1.0000 0.1283828643
H   H34       1.0  0.44113  0.33207  0.73878  1.0000 0.1283828643
H   H35       1.0  0.35582  0.25688  0.53950  1.0000 0.1283828643
H   H36       1.0  0.46141  0.25955  0.48199  1.0000 0.1203961226
H   H37       1.0  0.24021  0.36119  0.63996  1.0000 0.1640062198
H   H38       1.0  0.10811  0.21089  0.56331  1.0000 0.1532812096
H   H39       1.0  0.28620  0.17032  0.65264  1.0000 0.1640062198
H   H40       1.0  0.95271  0.26681  0.72012  1.0000 0.1203961226
H   H41       1.0  0.06606  0.27532  0.69203  1.0000 0.1283828643
H   H42       1.0  0.03371  0.38525  0.50123  1.0000 0.1429480218
H   H43       1.0  0.92023  0.37563  0.52870  1.0000 0.1283828643
H   H44       1.0  0.24649  0.91851  0.60813  1.0000 0.1203961226
H   H45       1.0  0.22853  0.01389  0.53732  1.0000 0.1283828643
H   H46       1.0  0.16754  0.09962  0.73513  1.0000 0.1283828643
H   H47       1.0  0.18510  0.00386  0.80500  1.0000 0.1283828643
H   H48       1.0  0.67333  0.22567  0.64316  1.0000 0.422180186
H   H49       1.0  0.45459  0.66317  0.67957  1.0000 0.1283828643
H   H50       1.0  0.55887  0.66793  0.73878  1.0000 0.1283828643
H   H51       1.0  0.64418  0.74312  0.53950  1.0000 0.1283828643
H   H52       1.0  0.53859  0.74045  0.48199  1.0000 0.1203961226
H   H53       1.0  0.75979  0.63881  0.63996  1.0000 0.1640062198
H   H54       1.0  0.89189  0.78911  0.56331  1.0000 0.1532812096
H   H55       1.0  0.71380  0.82968  0.65264  1.0000 0.1640062198
H   H56       1.0  0.04729  0.73319  0.72012  1.0000 0.1203961226
H   H57       1.0  0.93394  0.72468  0.69203  1.0000 0.1283828643
H   H58       1.0  0.96629  0.61475  0.50123  1.0000 0.1429480218
H   H59       1.0  0.07977  0.62437  0.52870  1.0000 0.1283828643
H   H60       1.0  0.75351  0.08149  0.60813  1.0000 0.1203961226
H   H61       1.0  0.77147  0.98611  0.53732  1.0000 0.1283828643
H   H62       1.0  0.83246  0.90038  0.73513  1.0000 0.1283828643
H   H63       1.0  0.81490  0.99614  0.80500  1.0000 0.1283828643
H   H64       1.0  0.32667  0.77433  0.64316  1.0000 0.422180186
H   H65       1.0  0.83683  0.04541  0.17957  1.0000 0.1283828643
H   H66       1.0  0.83207  0.94113  0.23878  1.0000 0.1283828643
H   H67       1.0  0.75688  0.85582  0.03950  1.0000 0.1283828643
H   H68       1.0  0.75955  0.96141  0.98199  1.0000 0.1203961226
H   H69       1.0  0.86119  0.74021  0.13996  1.0000 0.1640062198
H   H70       1.0  0.71089  0.60811  0.06331  1.0000 0.1532812096
H   H71       1.0  0.67032  0.78620  0.15264  1.0000 0.1640062198
H   H72       1.0  0.76681  0.45271  0.22012  1.0000 0.1203961226
H   H73       1.0  0.77532  0.56606  0.19203  1.0000 0.1283828643
H   H74       1.0  0.88525  0.53371  0.00123  1.0000 0.1429480218
H   H75       1.0  0.87563  0.42023  0.02870  1.0000 0.1283828643
H   H76       1.0  0.41851  0.74649  0.10813  1.0000 0.1203961226
H   H77       1.0  0.51389  0.72853  0.03732  1.0000 0.1283828643
H   H78       1.0  0.59962  0.66754  0.23513  1.0000 0.1283828643
H   H79       1.0  0.50386  0.68510  0.30500  1.0000 0.1283828643
H   H80       1.0  0.72567  0.17333  0.14316  1.0000 0.422180186
H   H81       1.0  0.16317  0.95459  0.17957  1.0000 0.1283828643
H   H82       1.0  0.16793  0.05887  0.23878  1.0000 0.1283828643
H   H83       1.0  0.24312  0.14418  0.03950  1.0000 0.1283828643
H   H84       1.0  0.24045  0.03859  0.98199  1.0000 0.1203961226
H   H85       1.0  0.13881  0.25979  0.13996  1.0000 0.1640062198
H   H86       1.0  0.28911  0.39189  0.06331  1.0000 0.1532812096
H   H87       1.0  0.32968  0.21380  0.15264  1.0000 0.1640062198
H   H88       1.0  0.23319  0.54729  0.22012  1.0000 0.1203961226
H   H89       1.0  0.22468  0.43394  0.19203  1.0000 0.1283828643
H   H90       1.0  0.11475  0.46629  0.00123  1.0000 0.1429480218
H   H91       1.0  0.12437  0.57977  0.02870  1.0000 0.1283828643
H   H92       1.0  0.58149  0.25351  0.10813  1.0000 0.1203961226
H   H93       1.0  0.48611  0.27147  0.03732  1.0000 0.1283828643
H   H94       1.0  0.40038  0.33246  0.23513  1.0000 0.1283828643
H   H95       1.0  0.49614  0.31490  0.30500  1.0000 0.1283828643
H   H96       1.0  0.27433  0.82667  0.14316  1.0000 0.422180186
H   H97       1.0  0.95459  0.16317  0.82043  1.0000 0.1283828643
H   H98       1.0  0.05887  0.16793  0.76122  1.0000 0.1283828643
H   H99       1.0  0.14418  0.24312  0.96050  1.0000 0.1283828643
H   H100      1.0  0.03859  0.24045  0.01801  1.0000 0.1203961226
H   H101      1.0  0.25979  0.13881  0.86004  1.0000 0.1640062198
H   H102      1.0  0.39189  0.28911  0.93669  1.0000 0.1532812096
H   H103      1.0  0.21380  0.32968  0.84736  1.0000 0.1640062198
H   H104      1.0  0.54729  0.23319  0.77988  1.0000 0.1203961226
H   H105      1.0  0.43394  0.22468  0.80797  1.0000 0.1283828643
H   H106      1.0  0.46629  0.11475  0.99877  1.0000 0.1429480218
H   H107      1.0  0.57977  0.12437  0.97130  1.0000 0.1283828643
H   H108      1.0  0.25351  0.58149  0.89187  1.0000 0.1203961226
H   H109      1.0  0.27147  0.48611  0.96268  1.0000 0.1283828643
H   H110      1.0  0.33246  0.40038  0.76487  1.0000 0.1283828643
H   H111      1.0  0.31490  0.49614  0.69500  1.0000 0.1283828643
H   H112      1.0  0.82667  0.27433  0.85684  1.0000 0.422180186
H   H113      1.0  0.04541  0.83683  0.82043  1.0000 0.1283828643
H   H114      1.0  0.94113  0.83207  0.76122  1.0000 0.1283828643
H   H115      1.0  0.85582  0.75688  0.96050  1.0000 0.1283828643
H   H116      1.0  0.96141  0.75955  0.01801  1.0000 0.1203961226
H   H117      1.0  0.74021  0.86119  0.86004  1.0000 0.1640062198
H   H118      1.0  0.60811  0.71089  0.93669  1.0000 0.1532812096
H   H119      1.0  0.78620  0.67032  0.84736  1.0000 0.1640062198
H   H120      1.0  0.45271  0.76681  0.77988  1.0000 0.1203961226
H   H121      1.0  0.56606  0.77532  0.80797  1.0000 0.1283828643
H   H122      1.0  0.53371  0.88525  0.99877  1.0000 0.1429480218
H   H123      1.0  0.42023  0.87563  0.97130  1.0000 0.1283828643
H   H124      1.0  0.74649  0.41851  0.89187  1.0000 0.1203961226
H   H125      1.0  0.72853  0.51389  0.96268  1.0000 0.1283828643
H   H126      1.0  0.66754  0.59962  0.76487  1.0000 0.1283828643
H   H127      1.0  0.68510  0.50386  0.69500  1.0000 0.1283828643
H   H128      1.0  0.17333  0.72567  0.85684  1.0000 0.422180186
H   H129      1.0  0.75784  0.24216  0.50000  1.0000 0.422180186
H   H130      1.0  0.24216  0.75784  0.50000  1.0000 0.422180186
H   H131      1.0  0.74216  0.25784  0.00000  1.0000 0.422180186
H   H132      1.0  0.25784  0.74216  0.00000  1.0000 0.422180186
C   C1        1.0  0.70030  0.41856  0.45930  1.0000 0.629158748
C   C2        1.0  0.70236  0.48620  0.42451  1.0000 -0.0601773034
C   C3        1.0  0.68026  0.49294  0.34870  1.0000 -0.078554596
C   C4        1.0  0.68272  0.55474  0.31350  1.0000 -0.2183849833
C   C5        1.0  0.70683  0.61015  0.35520  1.0000 0.2574129637
C   C6        1.0  0.72773  0.60551  0.43180  1.0000 -0.2300370227
C   C7        1.0  0.72565  0.54273  0.46570  1.0000 -0.078554596
C   C8        1.0  0.73147  0.72847  0.35040  1.0000 0.2799039443
C   C9        1.0  0.68482  0.77164  0.36900  1.0000 -0.3330820581
C   C10       1.0  0.70713  0.83245  0.40090  1.0000 0.2799039443
C   C11       1.0  0.77411  0.85003  0.41450  1.0000 -0.3354963767
C   C12       1.0  0.81853  0.80469  0.39490  1.0000 0.2885929548
C   C13       1.0  0.79845  0.74385  0.36170  1.0000 -0.3354963767
C   C14       1.0  0.68834  0.14776  0.35660  1.0000 0.629158748
C   C15       1.0  0.68066  0.07514  0.37340  1.0000 -0.0601773034
C   C16       1.0  0.70942  0.03100  0.32490  1.0000 -0.0727956764
C   C17       1.0  0.70407  0.96357  0.34110  1.0000 -0.2183849833
C   C18       1.0  0.66856  0.93980  0.40570  1.0000 0.2574129637
C   C19       1.0  0.63905  0.98287  0.45420  1.0000 -0.2119091827
C   C20       1.0  0.64496  0.05028  0.43800  1.0000 -0.078554596
C   C21       1.0  0.11035  0.77547  0.24220  1.0000 0.6383135819
C   C22       1.0  0.04855  0.78381  0.28750  1.0000 -0.0601773034
C   C23       1.0  0.04494  0.77028  0.36620  1.0000 -0.078554596
C   C24       1.0  0.98856  0.78086  0.40830  1.0000 -0.2119091827
C   C25       1.0  0.93583  0.80531  0.37020  1.0000 0.2574129637
C   C26       1.0  0.93759  0.81721  0.29080  1.0000 -0.2119091827
C   C27       1.0  0.99418  0.80660  0.24960  1.0000 -0.078554596
C   C28       1.0  0.29970  0.58144  0.45930  1.0000 0.629158748
C   C29       1.0  0.29764  0.51380  0.42451  1.0000 -0.0601773034
C   C30       1.0  0.31974  0.50706  0.34870  1.0000 -0.078554596
C   C31       1.0  0.31728  0.44526  0.31350  1.0000 -0.2183849833
C   C32       1.0  0.29317  0.38985  0.35520  1.0000 0.2574129637
C   C33       1.0  0.27227  0.39449  0.43180  1.0000 -0.2300370227
C   C34       1.0  0.27435  0.45727  0.46570  1.0000 -0.078554596
C   C35       1.0  0.26853  0.27153  0.35040  1.0000 0.2799039443
C   C36       1.0  0.31518  0.22836  0.36900  1.0000 -0.3330820581
C   C37       1.0  0.29287  0.16755  0.40090  1.0000 0.2799039443
C   C38       1.0  0.22589  0.14997  0.41450  1.0000 -0.3354963767
C   C39       1.0  0.18147  0.19531  0.39490  1.0000 0.2885929548
C   C40       1.0  0.20155  0.25615  0.36170  1.0000 -0.3354963767
C   C41       1.0  0.31166  0.85224  0.35660  1.0000 0.629158748
C   C42       1.0  0.31934  0.92486  0.37340  1.0000 -0.0601773034
C   C43       1.0  0.29058  0.96900  0.32490  1.0000 -0.0727956764
C   C44       1.0  0.29593  0.03643  0.34110  1.0000 -0.2183849833
C   C45       1.0  0.33144  0.06020  0.40570  1.0000 0.2574129637
C   C46       1.0  0.36095  0.01713  0.45420  1.0000 -0.2119091827
C   C47       1.0  0.35504  0.94972  0.43800  1.0000 -0.078554596
C   C48       1.0  0.88965  0.22453  0.24220  1.0000 0.6383135819
C   C49       1.0  0.95145  0.21619  0.28750  1.0000 -0.0601773034
C   C50       1.0  0.95506  0.22972  0.36620  1.0000 -0.078554596
C   C51       1.0  0.01144  0.21914  0.40830  1.0000 -0.2119091827
C   C52       1.0  0.06417  0.19469  0.37020  1.0000 0.2574129637
C   C53       1.0  0.06241  0.18279  0.29080  1.0000 -0.2119091827
C   C54       1.0  0.00582  0.19340  0.24960  1.0000 -0.078554596
C   C55       1.0  0.58144  0.29970  0.54070  1.0000 0.629158748
C   C56       1.0  0.51380  0.29764  0.57549  1.0000 -0.0601773034
C   C57       1.0  0.50706  0.31974  0.65130  1.0000 -0.078554596
C   C58       1.0  0.44526  0.31728  0.68650  1.0000 -0.2183849833
C   C59       1.0  0.38985  0.29317  0.64480  1.0000 0.2574129637
C   C60       1.0  0.39449  0.27227  0.56820  1.0000 -0.2300370227
C   C61       1.0  0.45727  0.27435  0.53430  1.0000 -0.078554596
C   C62       1.0  0.27153  0.26853  0.64960  1.0000 0.2799039443
C   C63       1.0  0.22836  0.31518  0.63100  1.0000 -0.3330820581
C   C64       1.0  0.16755  0.29287  0.59910  1.0000 0.2799039443
C   C65       1.0  0.14997  0.22589  0.58550  1.0000 -0.3330820581
C   C66       1.0  0.19531  0.18147  0.60510  1.0000 0.2885929548
C   C67       1.0  0.25615  0.20155  0.63830  1.0000 -0.3354963767
C   C68       1.0  0.85224  0.31166  0.64340  1.0000 0.629158748
C   C69       1.0  0.92486  0.31934  0.62660  1.0000 -0.0601773034
C   C70       1.0  0.96900  0.29058  0.67510  1.0000 -0.0727956764
C   C71       1.0  0.03643  0.29593  0.65890  1.0000 -0.2183849833
C   C72       1.0  0.06020  0.33144  0.59430  1.0000 0.2574129637
C   C73       1.0  0.01713  0.36095  0.54580  1.0000 -0.2119091827
C   C74       1.0  0.94972  0.35504  0.56200  1.0000 -0.078554596
C   C75       1.0  0.22453  0.88965  0.75780  1.0000 0.6383135819
C   C76       1.0  0.21619  0.95145  0.71250  1.0000 -0.0601773034
C   C77       1.0  0.22972  0.95506  0.63380  1.0000 -0.078554596
C   C78       1.0  0.21914  0.01144  0.59170  1.0000 -0.2119091827
C   C79       1.0  0.19469  0.06417  0.62980  1.0000 0.2543454819
C   C80       1.0  0.18279  0.06241  0.70920  1.0000 -0.2119091827
C   C81       1.0  0.19340  0.00582  0.75040  1.0000 -0.078554596
C   C82       1.0  0.41856  0.70030  0.54070  1.0000 0.629158748
C   C83       1.0  0.48620  0.70236  0.57549  1.0000 -0.0601773034
C   C84       1.0  0.49294  0.68026  0.65130  1.0000 -0.078554596
C   C85       1.0  0.55474  0.68272  0.68650  1.0000 -0.2183849833
C   C86       1.0  0.61015  0.70683  0.64480  1.0000 0.2574129637
C   C87       1.0  0.60551  0.72773  0.56820  1.0000 -0.2300370227
C   C88       1.0  0.54273  0.72565  0.53430  1.0000 -0.078554596
C   C89       1.0  0.72847  0.73147  0.64960  1.0000 0.2799039443
C   C90       1.0  0.77164  0.68482  0.63100  1.0000 -0.3330820581
C   C91       1.0  0.83245  0.70713  0.59910  1.0000 0.2799039443
C   C92       1.0  0.85003  0.77411  0.58550  1.0000 -0.3354963767
C   C93       1.0  0.80469  0.81853  0.60510  1.0000 0.2885929548
C   C94       1.0  0.74385  0.79845  0.63830  1.0000 -0.3354963767
C   C95       1.0  0.14776  0.68834  0.64340  1.0000 0.629158748
C   C96       1.0  0.07514  0.68066  0.62660  1.0000 -0.0601773034
C   C97       1.0  0.03100  0.70942  0.67510  1.0000 -0.0727956764
C   C98       1.0  0.96357  0.70407  0.65890  1.0000 -0.2183849833
C   C99       1.0  0.93980  0.66856  0.59430  1.0000 0.2574129637
C   C100      1.0  0.98287  0.63905  0.54580  1.0000 -0.2119091827
C   C101      1.0  0.05028  0.64496  0.56200  1.0000 -0.078554596
C   C102      1.0  0.77547  0.11035  0.75780  1.0000 0.6383135819
C   C103      1.0  0.78381  0.04855  0.71250  1.0000 -0.0601773034
C   C104      1.0  0.77028  0.04494  0.63380  1.0000 -0.078554596
C   C105      1.0  0.78086  0.98856  0.59170  1.0000 -0.2119091827
C   C106      1.0  0.80531  0.93583  0.62980  1.0000 0.2574129637
C   C107      1.0  0.81721  0.93759  0.70920  1.0000 -0.2119091827
C   C108      1.0  0.80660  0.99418  0.75040  1.0000 -0.078554596
C   C109      1.0  0.79970  0.08144  0.04070  1.0000 0.629158748
C   C110      1.0  0.79764  0.01380  0.07549  1.0000 -0.0601773034
C   C111      1.0  0.81974  0.00706  0.15130  1.0000 -0.078554596
C   C112      1.0  0.81728  0.94526  0.18650  1.0000 -0.2183849833
C   C113      1.0  0.79317  0.88985  0.14480  1.0000 0.2574129637
C   C114      1.0  0.77227  0.89449  0.06820  1.0000 -0.2300370227
C   C115      1.0  0.77435  0.95727  0.03430  1.0000 -0.078554596
C   C116      1.0  0.76853  0.77153  0.14960  1.0000 0.2799039443
C   C117      1.0  0.81518  0.72836  0.13100  1.0000 -0.3330820581
C   C118      1.0  0.79287  0.66755  0.09910  1.0000 0.2799039443
C   C119      1.0  0.72589  0.64997  0.08550  1.0000 -0.3354963767
C   C120      1.0  0.68147  0.69531  0.10510  1.0000 0.2885929548
C   C121      1.0  0.70155  0.75615  0.13830  1.0000 -0.3354963767
C   C122      1.0  0.81166  0.35224  0.14340  1.0000 0.629158748
C   C123      1.0  0.81934  0.42486  0.12660  1.0000 -0.0601773034
C   C124      1.0  0.79058  0.46900  0.17510  1.0000 -0.0727956764
C   C125      1.0  0.79593  0.53643  0.15890  1.0000 -0.2183849833
C   C126      1.0  0.83144  0.56020  0.09430  1.0000 0.2574129637
C   C127      1.0  0.86095  0.51713  0.04580  1.0000 -0.2119091827
C   C128      1.0  0.85504  0.44972  0.06200  1.0000 -0.078554596
C   C129      1.0  0.38965  0.72453  0.25780  1.0000 0.6383135819
C   C130      1.0  0.45145  0.71619  0.21250  1.0000 -0.0601773034
C   C131      1.0  0.45506  0.72972  0.13380  1.0000 -0.078554596
C   C132      1.0  0.51144  0.71914  0.09170  1.0000 -0.2119091827
C   C133      1.0  0.56417  0.69469  0.12980  1.0000 0.2574129637
C   C134      1.0  0.56241  0.68279  0.20920  1.0000 -0.2119091827
C   C135      1.0  0.50582  0.69340  0.25040  1.0000 -0.078554596
C   C136      1.0  0.20030  0.91856  0.04070  1.0000 0.629158748
C   C137      1.0  0.20236  0.98620  0.07549  1.0000 -0.0601773034
C   C138      1.0  0.18026  0.99294  0.15130  1.0000 -0.078554596
C   C139      1.0  0.18272  0.05474  0.18650  1.0000 -0.2183849833
C   C140      1.0  0.20683  0.11015  0.14480  1.0000 0.2574129637
C   C141      1.0  0.22773  0.10551  0.06820  1.0000 -0.2300370227
C   C142      1.0  0.22565  0.04273  0.03430  1.0000 -0.078554596
C   C143      1.0  0.23147  0.22847  0.14960  1.0000 0.2799039443
C   C144      1.0  0.18482  0.27164  0.13100  1.0000 -0.3330820581
C   C145      1.0  0.20713  0.33245  0.09910  1.0000 0.2799039443
C   C146      1.0  0.27411  0.35003  0.08550  1.0000 -0.3354963767
C   C147      1.0  0.31853  0.30469  0.10510  1.0000 0.2885929548
C   C148      1.0  0.29845  0.24385  0.13830  1.0000 -0.3354963767
C   C149      1.0  0.18834  0.64776  0.14340  1.0000 0.629158748
C   C150      1.0  0.18066  0.57514  0.12660  1.0000 -0.0601773034
C   C151      1.0  0.20942  0.53100  0.17510  1.0000 -0.0727956764
C   C152      1.0  0.20407  0.46357  0.15890  1.0000 -0.2183849833
C   C153      1.0  0.16856  0.43980  0.09430  1.0000 0.2574129637
C   C154      1.0  0.13905  0.48287  0.04580  1.0000 -0.2119091827
C   C155      1.0  0.14496  0.55028  0.06200  1.0000 -0.078554596
C   C156      1.0  0.61035  0.27547  0.25780  1.0000 0.6383135819
C   C157      1.0  0.54855  0.28381  0.21250  1.0000 -0.0601773034
C   C158      1.0  0.54494  0.27028  0.13380  1.0000 -0.078554596
C   C159      1.0  0.48856  0.28086  0.09170  1.0000 -0.2119091827
C   C160      1.0  0.43583  0.30531  0.12980  1.0000 0.2574129637
C   C161      1.0  0.43759  0.31721  0.20920  1.0000 -0.2119091827
C   C162      1.0  0.49418  0.30660  0.25040  1.0000 -0.078554596
C   C163      1.0  0.91856  0.20030  0.95930  1.0000 0.629158748
C   C164      1.0  0.98620  0.20236  0.92451  1.0000 -0.0601773034
C   C165      1.0  0.99294  0.18026  0.84870  1.0000 -0.078554596
C   C166      1.0  0.05474  0.18272  0.81350  1.0000 -0.2183849833
C   C167      1.0  0.11015  0.20683  0.85520  1.0000 0.2574129637
C   C168      1.0  0.10551  0.22773  0.93180  1.0000 -0.2300370227
C   C169      1.0  0.04273  0.22565  0.96570  1.0000 -0.078554596
C   C170      1.0  0.22847  0.23147  0.85040  1.0000 0.2799039443
C   C171      1.0  0.27164  0.18482  0.86900  1.0000 -0.3330820581
C   C172      1.0  0.33245  0.20713  0.90090  1.0000 0.2799039443
C   C173      1.0  0.35003  0.27411  0.91450  1.0000 -0.3354963767
C   C174      1.0  0.30469  0.31853  0.89490  1.0000 0.2885929548
C   C175      1.0  0.24385  0.29845  0.86170  1.0000 -0.3354963767
C   C176      1.0  0.64776  0.18834  0.85660  1.0000 0.629158748
C   C177      1.0  0.57514  0.18066  0.87340  1.0000 -0.0601773034
C   C178      1.0  0.53100  0.20942  0.82490  1.0000 -0.0727956764
C   C179      1.0  0.46357  0.20407  0.84110  1.0000 -0.2183849833
C   C180      1.0  0.43980  0.16856  0.90570  1.0000 0.2574129637
C   C181      1.0  0.48287  0.13905  0.95420  1.0000 -0.2119091827
C   C182      1.0  0.55028  0.14496  0.93800  1.0000 -0.078554596
C   C183      1.0  0.27547  0.61035  0.74220  1.0000 0.6383135819
C   C184      1.0  0.28381  0.54855  0.78750  1.0000 -0.0601773034
C   C185      1.0  0.27028  0.54494  0.86620  1.0000 -0.078554596
C   C186      1.0  0.28086  0.48856  0.90830  1.0000 -0.2119091827
C   C187      1.0  0.30531  0.43583  0.87020  1.0000 0.2574129637
C   C188      1.0  0.31721  0.43759  0.79080  1.0000 -0.2119091827
C   C189      1.0  0.30660  0.49418  0.74960  1.0000 -0.078554596
C   C190      1.0  0.08144  0.79970  0.95930  1.0000 0.629158748
C   C191      1.0  0.01380  0.79764  0.92451  1.0000 -0.0601773034
C   C192      1.0  0.00706  0.81974  0.84870  1.0000 -0.078554596
C   C193      1.0  0.94526  0.81728  0.81350  1.0000 -0.2183849833
C   C194      1.0  0.88985  0.79317  0.85520  1.0000 0.2574129637
C   C195      1.0  0.89449  0.77227  0.93180  1.0000 -0.2300370227
C   C196      1.0  0.95727  0.77435  0.96570  1.0000 -0.078554596
C   C197      1.0  0.77153  0.76853  0.85040  1.0000 0.2799039443
C   C198      1.0  0.72836  0.81518  0.86900  1.0000 -0.3330820581
C   C199      1.0  0.66755  0.79287  0.90090  1.0000 0.2799039443
C   C200      1.0  0.64997  0.72589  0.91450  1.0000 -0.3354963767
C   C201      1.0  0.69531  0.68147  0.89490  1.0000 0.2885929548
C   C202      1.0  0.75615  0.70155  0.86170  1.0000 -0.3354963767
C   C203      1.0  0.35224  0.81166  0.85660  1.0000 0.629158748
C   C204      1.0  0.42486  0.81934  0.87340  1.0000 -0.0601773034
C   C205      1.0  0.46900  0.79058  0.82490  1.0000 -0.0727956764
C   C206      1.0  0.53643  0.79593  0.84110  1.0000 -0.2183849833
C   C207      1.0  0.56020  0.83144  0.90570  1.0000 0.2574129637
C   C208      1.0  0.51713  0.86095  0.95420  1.0000 -0.2119091827
C   C209      1.0  0.44972  0.85504  0.93800  1.0000 -0.078554596
C   C210      1.0  0.72453  0.38965  0.74220  1.0000 0.6383135819
C   C211      1.0  0.71619  0.45145  0.78750  1.0000 -0.0601773034
C   C212      1.0  0.72972  0.45506  0.86620  1.0000 -0.078554596
C   C213      1.0  0.71914  0.51144  0.90830  1.0000 -0.2119091827
C   C214      1.0  0.69469  0.56417  0.87020  1.0000 0.2574129637
C   C215      1.0  0.68279  0.56241  0.79080  1.0000 -0.2119091827
C   C216      1.0  0.69340  0.50582  0.74960  1.0000 -0.078554596
O   O1        1.0  0.66784  0.37286  0.42106  1.0000 -0.5934917092
O   O2        1.0  0.73033  0.41061  0.52298  1.0000 -0.5706823266
O   O3        1.0  0.70802  0.66890  0.31375  1.0000 -0.2300370227
O   O4        1.0  0.65919  0.87317  0.42389  1.0000 -0.2183849833
O   O5        1.0  0.88415  0.82371  0.41637  1.0000 -0.2119091827
O   O6        1.0  0.72043  0.16563  0.29528  1.0000 -0.6010040588
O   O7        1.0  0.66332  0.18530  0.40416  1.0000 -0.5781005494
O   O8        1.0  0.10708  0.78262  0.16941  1.0000 -0.5781005494
O   O9        1.0  0.16082  0.76156  0.28035  1.0000 -0.5934917092
O   O10       1.0  0.73938  0.29060  0.34475  1.0000 -1.008411581
O   O11       1.0  0.33216  0.62714  0.42106  1.0000 -0.5934917092
O   O12       1.0  0.26967  0.58939  0.52298  1.0000 -0.5706823266
O   O13       1.0  0.29198  0.33110  0.31375  1.0000 -0.2300370227
O   O14       1.0  0.34081  0.12683  0.42389  1.0000 -0.2183849833
O   O15       1.0  0.11585  0.17629  0.41637  1.0000 -0.2119091827
O   O16       1.0  0.27957  0.83437  0.29528  1.0000 -0.6010040588
O   O17       1.0  0.33668  0.81470  0.40416  1.0000 -0.5781005494
O   O18       1.0  0.89292  0.21738  0.16941  1.0000 -0.5781005494
O   O19       1.0  0.83918  0.23844  0.28035  1.0000 -0.5934917092
O   O20       1.0  0.26062  0.70940  0.34475  1.0000 -1.008411581
O   O21       1.0  0.62714  0.33216  0.57894  1.0000 -0.5934917092
O   O22       1.0  0.58939  0.26967  0.47702  1.0000 -0.5706823266
O   O23       1.0  0.33110  0.29198  0.68625  1.0000 -0.2300370227
O   O24       1.0  0.12683  0.34081  0.57611  1.0000 -0.2183849833
O   O25       1.0  0.17629  0.11585  0.58363  1.0000 -0.2119091827
O   O26       1.0  0.83437  0.27957  0.70472  1.0000 -0.6010040588
O   O27       1.0  0.81470  0.33668  0.59584  1.0000 -0.5781005494
O   O28       1.0  0.21738  0.89292  0.83059  1.0000 -0.5781005494
O   O29       1.0  0.23844  0.83918  0.71965  1.0000 -0.5934917092
O   O30       1.0  0.70940  0.26062  0.65525  1.0000 -1.008411581
O   O31       1.0  0.37286  0.66784  0.57894  1.0000 -0.5934917092
O   O32       1.0  0.41061  0.73033  0.47702  1.0000 -0.5706823266
O   O33       1.0  0.66890  0.70802  0.68625  1.0000 -0.2300370227
O   O34       1.0  0.87317  0.65919  0.57611  1.0000 -0.2183849833
O   O35       1.0  0.82371  0.88415  0.58363  1.0000 -0.2119091827
O   O36       1.0  0.16563  0.72043  0.70472  1.0000 -0.6010040588
O   O37       1.0  0.18530  0.66332  0.59584  1.0000 -0.5781005494
O   O38       1.0  0.78262  0.10708  0.83059  1.0000 -0.5781005494
O   O39       1.0  0.76156  0.16082  0.71965  1.0000 -0.5934917092
O   O40       1.0  0.29060  0.73938  0.65525  1.0000 -1.008411581
O   O41       1.0  0.83216  0.12714  0.07894  1.0000 -0.5934917092
O   O42       1.0  0.76967  0.08939  0.97702  1.0000 -0.5706823266
O   O43       1.0  0.79198  0.83110  0.18625  1.0000 -0.2300370227
O   O44       1.0  0.84081  0.62683  0.07611  1.0000 -0.2183849833
O   O45       1.0  0.61585  0.67629  0.08363  1.0000 -0.2119091827
O   O46       1.0  0.77957  0.33437  0.20472  1.0000 -0.6010040588
O   O47       1.0  0.83668  0.31470  0.09584  1.0000 -0.5781005494
O   O48       1.0  0.39292  0.71738  0.33059  1.0000 -0.5781005494
O   O49       1.0  0.33918  0.73844  0.21965  1.0000 -0.5934917092
O   O50       1.0  0.76062  0.20940  0.15525  1.0000 -1.008411581
O   O51       1.0  0.16784  0.87286  0.07894  1.0000 -0.5934917092
O   O52       1.0  0.23033  0.91061  0.97702  1.0000 -0.5706823266
O   O53       1.0  0.20802  0.16890  0.18625  1.0000 -0.2300370227
O   O54       1.0  0.15919  0.37317  0.07611  1.0000 -0.2183849833
O   O55       1.0  0.38415  0.32371  0.08363  1.0000 -0.2119091827
O   O56       1.0  0.22043  0.66563  0.20472  1.0000 -0.6010040588
O   O57       1.0  0.16332  0.68530  0.09584  1.0000 -0.5781005494
O   O58       1.0  0.60708  0.28262  0.33059  1.0000 -0.5781005494
O   O59       1.0  0.66082  0.26156  0.21965  1.0000 -0.5934917092
O   O60       1.0  0.23938  0.79060  0.15525  1.0000 -1.008411581
O   O61       1.0  0.87286  0.16784  0.92106  1.0000 -0.5934917092
O   O62       1.0  0.91061  0.23033  0.02298  1.0000 -0.5706823266
O   O63       1.0  0.16890  0.20802  0.81375  1.0000 -0.2300370227
O   O64       1.0  0.37317  0.15919  0.92389  1.0000 -0.2183849833
O   O65       1.0  0.32371  0.38415  0.91637  1.0000 -0.2119091827
O   O66       1.0  0.66563  0.22043  0.79528  1.0000 -0.6010040588
O   O67       1.0  0.68530  0.16332  0.90416  1.0000 -0.5781005494
O   O68       1.0  0.28262  0.60708  0.66941  1.0000 -0.5781005494
O   O69       1.0  0.26156  0.66082  0.78035  1.0000 -0.5934917092
O   O70       1.0  0.79060  0.23938  0.84475  1.0000 -1.008411581
O   O71       1.0  0.12714  0.83216  0.92106  1.0000 -0.5934917092
O   O72       1.0  0.08939  0.76967  0.02298  1.0000 -0.5706823266
O   O73       1.0  0.83110  0.79198  0.81375  1.0000 -0.2300370227
O   O74       1.0  0.62683  0.84081  0.92389  1.0000 -0.2183849833
O   O75       1.0  0.67629  0.61585  0.91637  1.0000 -0.2119091827
O   O76       1.0  0.33437  0.77957  0.79528  1.0000 -0.6010040588
O   O77       1.0  0.31470  0.83668  0.90416  1.0000 -0.5781005494
O   O78       1.0  0.71738  0.39292  0.66941  1.0000 -0.5781005494
O   O79       1.0  0.73844  0.33918  0.78035  1.0000 -0.5934917092
O   O80       1.0  0.20940  0.76062  0.84475  1.0000 -1.008411581
O   O81       1.0  0.72248  0.27752  0.50000  1.0000 -1.0214006252
O   O82       1.0  0.27752  0.72248  0.50000  1.0000 -1.0214006252
O   O83       1.0  0.77752  0.22248  0.00000  1.0000 -1.0214006252
O   O84       1.0  0.22248  0.77752  0.00000  1.0000 -1.0214006252
