# DDEC6 charges by PACMAN v1.1 (https://github.com/mtap-research/PACMAN-charge/)
data_2020[Co][pcu]3[FSR]3
_chemical_formula_sum              "Co4 H48 C116 N8 Cl8 O24"
_cell_length_a       13.0626
_cell_length_b       13.1226
_cell_length_c       26.3129
_cell_angle_alpha    96.8686
_cell_angle_beta     94.9156
_cell_angle_gamma    97.9634

_symmetry_space_group_name_H-M    "P 1"
_symmetry_Int_Tables_number       1

loop_
  _symmetry_equiv_pos_as_xyz
  'x, y, z'

loop_
  _atom_site_type_symbol
  _atom_site_label
  _atom_site_symmetry_multiplicity
  _atom_site_fract_x
  _atom_site_fract_y
  _atom_site_fract_z
  _atom_site_occupancy
  _atom_site_charge
Co  Co1       1.0  0.14588  0.23254  0.73885  1.0000 0.8294613682
Co  Co2       1.0  0.14706  0.22752  0.63828  1.0000 0.8294613682
Co  Co3       1.0  0.85412  0.76746  0.26115  1.0000 0.8294613682
Co  Co4       1.0  0.85294  0.77248  0.36172  1.0000 0.8294613682
H   H1        1.0  0.14010  0.90190  0.75220  1.0000 0.1221299112
H   H2        1.0  0.11940  0.98460  0.28670  1.0000 0.147340285
H   H3        1.0  0.15950  0.72550  0.59000  1.0000 0.1221299112
H   H4        1.0  0.15880  0.56080  0.62780  1.0000 0.1279724725
H   H5        1.0  0.11220  0.47500  0.33540  1.0000 0.147340285
H   H6        1.0  0.14510  0.56220  0.78010  1.0000 0.1221299112
H   H7        1.0  0.28020  0.30020  0.55900  1.0000 0.1279724725
H   H8        1.0  0.81670  0.23630  0.59490  1.0000 0.1279724725
H   H9        1.0  0.15610  0.90020  0.60020  1.0000 0.1221299112
H   H10       1.0  0.81240  0.20330  0.74490  1.0000 0.1221299112
H   H11       1.0  0.14180  0.73650  0.79040  1.0000 0.1221299112
H   H12       1.0  0.93910  0.06500  0.04020  1.0000 0.147340285
H   H13       1.0  0.47910  0.25280  0.62960  1.0000 0.1279724725
H   H14       1.0  0.47610  0.22200  0.77990  1.0000 0.1279724725
H   H15       1.0  0.64910  0.20770  0.78600  1.0000 0.1221299112
H   H16       1.0  0.00710  0.29830  0.81530  1.0000 0.1113699101
H   H17       1.0  0.27120  0.22230  0.92330  1.0000 0.1440261773
H   H18       1.0  0.27540  0.29830  0.47090  1.0000 0.147340285
H   H19       1.0  0.01300  0.12080  0.54400  1.0000 0.1221299112
H   H20       1.0  0.64420  0.24950  0.58860  1.0000 0.1221299112
H   H21       1.0  0.27840  0.21050  0.83560  1.0000 0.1221299112
H   H22       1.0  0.28590  0.47290  0.08980  1.0000 0.147340285
H   H23       1.0  0.99370  0.31720  0.90300  1.0000 0.147340285
H   H24       1.0  0.99880  0.11740  0.45590  1.0000 0.1440261773
H   H25       1.0  0.85990  0.09810  0.24780  1.0000 0.1221299112
H   H26       1.0  0.88060  0.01540  0.71330  1.0000 0.147340285
H   H27       1.0  0.84050  0.27450  0.41000  1.0000 0.1221299112
H   H28       1.0  0.84120  0.43920  0.37220  1.0000 0.1279724725
H   H29       1.0  0.88780  0.52500  0.66460  1.0000 0.147340285
H   H30       1.0  0.85490  0.43780  0.21990  1.0000 0.1221299112
H   H31       1.0  0.71980  0.69980  0.44100  1.0000 0.1279724725
H   H32       1.0  0.18330  0.76370  0.40510  1.0000 0.1279724725
H   H33       1.0  0.84390  0.09980  0.39980  1.0000 0.1221299112
H   H34       1.0  0.18760  0.79670  0.25510  1.0000 0.1221299112
H   H35       1.0  0.85820  0.26350  0.20960  1.0000 0.1221299112
H   H36       1.0  0.06090  0.93500  0.95980  1.0000 0.147340285
H   H37       1.0  0.52090  0.74720  0.37040  1.0000 0.1279724725
H   H38       1.0  0.52390  0.77800  0.22010  1.0000 0.1279724725
H   H39       1.0  0.35090  0.79230  0.21400  1.0000 0.1221299112
H   H40       1.0  0.99290  0.70170  0.18470  1.0000 0.1113699101
H   H41       1.0  0.72880  0.77770  0.07670  1.0000 0.1440261773
H   H42       1.0  0.72460  0.70170  0.52910  1.0000 0.147340285
H   H43       1.0  0.98700  0.87920  0.45600  1.0000 0.1221299112
H   H44       1.0  0.35580  0.75050  0.41140  1.0000 0.1221299112
H   H45       1.0  0.72160  0.78950  0.16440  1.0000 0.1221299112
H   H46       1.0  0.71410  0.52710  0.91020  1.0000 0.147340285
H   H47       1.0  0.00630  0.68280  0.09700  1.0000 0.147340285
H   H48       1.0  0.00120  0.88260  0.54410  1.0000 0.1440261773
C   C1        1.0  0.34670  0.24359  0.69901  1.0000 0.57823992
C   C2        1.0  0.15390  0.42948  0.69532  1.0000 0.57823992
C   C3        1.0  0.12140  0.23358  0.29449  1.0000 0.0275656892
C   C4        1.0  0.14160  0.03178  0.68383  1.0000 0.57823992
C   C5        1.0  0.14360  0.86574  0.71993  1.0000 -0.1554142065
C   C6        1.0  0.99370  0.10080  0.11639  1.0000 0.1008748973
C   C7        1.0  0.11440  0.04860  0.27569  1.0000 -0.1342200912
C   C8        1.0  0.12360  0.32360  0.32985  1.0000 -0.0577974371
C   C9        1.0  0.62020  0.23510  0.66323  1.0000 0.0755160026
C   C10       1.0  0.14690  0.75779  0.71495  1.0000 0.0716991968
C   C11       1.0  0.15580  0.76020  0.62257  1.0000 -0.1408537649
C   C12       1.0  0.12270  0.31530  0.38517  1.0000 0.442294883
C   C13       1.0  0.11860  0.24230  0.24134  1.0000 0.0043956837
C   C14       1.0  0.06580  0.16560  0.15148  1.0000 -0.0199317409
C   C15       1.0  0.11550  0.25790  0.13506  1.0000 0.0100385917
C   C16       1.0  0.11980  0.13530  0.31105  1.0000 -0.0577974371
C   C17       1.0  0.15550  0.59668  0.66018  1.0000 -0.1496623914
C   C18       1.0  0.15320  0.70421  0.66543  1.0000 0.0716991968
C   C19       1.0  0.09390  0.15080  0.20480  1.0000 -0.0140757613
C   C20       1.0  0.45990  0.23810  0.70317  1.0000 -0.0303841015
C   C21       1.0  0.11940  0.41740  0.31255  1.0000 -0.1408537649
C   C22       1.0  0.14720  0.59800  0.75167  1.0000 -0.1113218121
C   C23       1.0  0.22290  0.26340  0.53798  1.0000 0.1008748973
C   C24       1.0  0.12770  0.12540  0.36681  1.0000 0.442294883
C   C25       1.0  0.94550  0.21613  0.67592  1.0000 0.57823992
C   C26       1.0  0.05240  0.19270  0.99034  1.0000 0.442294883
C   C27       1.0  0.83270  0.21890  0.67116  1.0000 -0.0303841015
C   C28       1.0  0.67280  0.22070  0.71088  1.0000 0.0716991968
C   C29       1.0  0.78050  0.23260  0.62374  1.0000 -0.0998365075
C   C30       1.0  0.13060  0.26980  0.92179  1.0000 0.2055733003
C   C31       1.0  0.15300  0.86410  0.62850  1.0000 -0.1240766175
C   C32       1.0  0.13390  0.21080  0.45428  1.0000 0.2213251091
C   C33       1.0  0.77800  0.21280  0.71378  1.0000 -0.1496623914
C   C34       1.0  0.15310  0.54380  0.70227  1.0000 -0.0199317409
C   C35       1.0  0.14480  0.70170  0.75776  1.0000 -0.1496623914
C   C36       1.0  0.98690  0.11060  0.06341  1.0000 -0.1408537649
C   C37       1.0  0.12620  0.42660  0.26011  1.0000 0.1008748973
C   C38       1.0  0.51380  0.24340  0.66072  1.0000 -0.1496623914
C   C39       1.0  0.14550  0.91762  0.67798  1.0000 -0.0199317409
C   C40       1.0  0.13770  0.34250  0.22479  1.0000 -0.0040141443
C   C41       1.0  0.10120  0.05660  0.22285  1.0000 0.1008748973
C   C42       1.0  0.51220  0.22490  0.75100  1.0000 -0.0998365075
C   C43       1.0  0.61550  0.21640  0.75455  1.0000 -0.1408537649
C   C44       1.0  0.06080  0.28330  0.83733  1.0000 0.1113699101
C   C45       1.0  0.21680  0.23830  0.90193  1.0000 -0.1983272436
C   C46       1.0  0.22020  0.26350  0.48520  1.0000 -0.1983272436
C   C47       1.0  0.05180  0.18810  0.04644  1.0000 -0.0577974371
C   C48       1.0  0.11580  0.26410  0.08159  1.0000 0.0275656892
C   C49       1.0  0.18020  0.34680  0.06498  1.0000 -0.0497441977
C   C50       1.0  0.06550  0.15840  0.52921  1.0000 0.1113699101
C   C51       1.0  0.16280  0.34430  0.17170  1.0000 -0.0199317409
C   C52       1.0  0.67760  0.24050  0.62003  1.0000 -0.1408537649
C   C53       1.0  0.22010  0.23110  0.84930  1.0000 0.1008748973
C   C54       1.0  0.18610  0.35040  0.00963  1.0000 0.4253439628
C   C55       1.0  0.23980  0.42140  0.10061  1.0000 -0.1342200912
C   C56       1.0  0.05160  0.29410  0.88988  1.0000 -0.1983272436
C   C57       1.0  0.05630  0.15570  0.47619  1.0000 -0.2163106516
C   C58       1.0  0.23110  0.42010  0.15344  1.0000 0.0916017167
C   C59       1.0  0.65330  0.75641  0.30099  1.0000 0.57823992
C   C60       1.0  0.84610  0.57052  0.30468  1.0000 0.57823992
C   C61       1.0  0.87860  0.76642  0.70551  1.0000 0.0275656892
C   C62       1.0  0.85840  0.96822  0.31617  1.0000 0.57823992
C   C63       1.0  0.85640  0.13426  0.28007  1.0000 -0.1496623914
C   C64       1.0  0.00630  0.89920  0.88361  1.0000 0.1008748973
C   C65       1.0  0.88560  0.95140  0.72431  1.0000 -0.1342200912
C   C66       1.0  0.87640  0.67640  0.67015  1.0000 -0.0577974371
C   C67       1.0  0.37980  0.76490  0.33677  1.0000 0.0755160026
C   C68       1.0  0.85310  0.24221  0.28505  1.0000 0.0716991968
C   C69       1.0  0.84420  0.23980  0.37743  1.0000 -0.1408537649
C   C70       1.0  0.87730  0.68470  0.61483  1.0000 0.442294883
C   C71       1.0  0.88140  0.75770  0.75866  1.0000 0.0100385917
C   C72       1.0  0.93420  0.83440  0.84852  1.0000 -0.0199317409
C   C73       1.0  0.88450  0.74210  0.86494  1.0000 0.0100385917
C   C74       1.0  0.88020  0.86470  0.68895  1.0000 -0.0577974371
C   C75       1.0  0.84450  0.40332  0.33982  1.0000 -0.1496623914
C   C76       1.0  0.84680  0.29579  0.33457  1.0000 0.0716991968
C   C77       1.0  0.90610  0.84920  0.79520  1.0000 -0.0140757613
C   C78       1.0  0.54010  0.76190  0.29683  1.0000 -0.0303841015
C   C79       1.0  0.88060  0.58260  0.68745  1.0000 -0.1408537649
C   C80       1.0  0.85280  0.40200  0.24833  1.0000 -0.1113218121
C   C81       1.0  0.77710  0.73660  0.46202  1.0000 0.1113699101
C   C82       1.0  0.87230  0.87460  0.63319  1.0000 0.442294883
C   C83       1.0  0.05450  0.78387  0.32408  1.0000 0.57823992
C   C84       1.0  0.94760  0.80730  0.00966  1.0000 0.442294883
C   C85       1.0  0.16730  0.78110  0.32884  1.0000 -0.0303841015
C   C86       1.0  0.32720  0.77930  0.28912  1.0000 0.0716991968
C   C87       1.0  0.21950  0.76740  0.37626  1.0000 -0.0998365075
C   C88       1.0  0.86940  0.73020  0.07821  1.0000 0.2055733003
C   C89       1.0  0.84700  0.13590  0.37150  1.0000 -0.1240766175
C   C90       1.0  0.86610  0.78920  0.54572  1.0000 0.2213251091
C   C91       1.0  0.22200  0.78720  0.28622  1.0000 -0.1496623914
C   C92       1.0  0.84690  0.45620  0.29773  1.0000 -0.0199317409
C   C93       1.0  0.85520  0.29830  0.24224  1.0000 -0.1496623914
C   C94       1.0  0.01310  0.88940  0.93659  1.0000 -0.1408537649
C   C95       1.0  0.87380  0.57340  0.73989  1.0000 0.1008748973
C   C96       1.0  0.48620  0.75660  0.33928  1.0000 -0.1496623914
C   C97       1.0  0.85450  0.08238  0.32202  1.0000 -0.0199317409
C   C98       1.0  0.86230  0.65750  0.77521  1.0000 -0.0040141443
C   C99       1.0  0.89880  0.94340  0.77715  1.0000 0.1008748973
C   C100      1.0  0.48780  0.77510  0.24900  1.0000 -0.0998365075
C   C101      1.0  0.38450  0.78360  0.24545  1.0000 -0.1408537649
C   C102      1.0  0.93920  0.71670  0.16267  1.0000 0.1113699101
C   C103      1.0  0.78320  0.76170  0.09807  1.0000 -0.1983272436
C   C104      1.0  0.77980  0.73650  0.51480  1.0000 -0.1983272436
C   C105      1.0  0.94820  0.81190  0.95356  1.0000 -0.0497441977
C   C106      1.0  0.88420  0.73590  0.91841  1.0000 0.0275656892
C   C107      1.0  0.81980  0.65320  0.93502  1.0000 -0.0497441977
C   C108      1.0  0.93450  0.84160  0.47079  1.0000 0.1113699101
C   C109      1.0  0.83720  0.65570  0.82830  1.0000 -0.0199317409
C   C110      1.0  0.32240  0.75950  0.37997  1.0000 -0.1408537649
C   C111      1.0  0.77990  0.76890  0.15070  1.0000 0.1008748973
C   C112      1.0  0.81390  0.64960  0.99037  1.0000 0.4253439628
C   C113      1.0  0.76020  0.57860  0.89939  1.0000 -0.1342200912
C   C114      1.0  0.94840  0.70590  0.11012  1.0000 -0.1983272436
C   C115      1.0  0.94370  0.84430  0.52381  1.0000 -0.2163106516
C   C116      1.0  0.76890  0.57990  0.84656  1.0000 0.0916017167
N   N1        1.0  0.12592  0.21686  0.40006  1.0000 -0.228935761
N   N2        1.0  0.12220  0.27230  0.97618  1.0000 -0.228935761
N   N3        1.0  0.14586  0.21219  0.55979  1.0000 -0.2163106516
N   N4        1.0  0.14320  0.25237  0.81730  1.0000 -0.2111322858
N   N5        1.0  0.87408  0.78314  0.59994  1.0000 -0.228935761
N   N6        1.0  0.87780  0.72770  0.02382  1.0000 -0.228935761
N   N7        1.0  0.85414  0.78781  0.44021  1.0000 -0.2163106516
N   N8        1.0  0.85680  0.74763  0.18270  1.0000 -0.2111322858
Cl  Cl1       1.0  0.10788  0.54497  0.24144  1.0000 -0.0881003957
Cl  Cl2       1.0  0.31413  0.51422  0.19483  1.0000 -0.0881003957
Cl  Cl3       1.0  0.90118  0.00999  0.13539  1.0000 -0.0696088426
Cl  Cl4       1.0  0.10483  0.94473  0.18148  1.0000 -0.0577974371
Cl  Cl5       1.0  0.89212  0.45503  0.75856  1.0000 -0.0881003957
Cl  Cl6       1.0  0.68587  0.48578  0.80517  1.0000 -0.0881003957
Cl  Cl7       1.0  0.09882  0.99001  0.86461  1.0000 -0.0696088426
Cl  Cl8       1.0  0.89517  0.05527  0.81852  1.0000 -0.0577974371
O   O1        1.0  0.11871  0.38971  0.41714  1.0000 -0.4172931291
O   O2        1.0  0.13460  0.04446  0.38308  1.0000 -0.399307055
O   O3        1.0  0.99704  0.13083  0.95817  1.0000 -0.4106692873
O   O4        1.0  0.24320  0.41710  0.99311  1.0000 -0.4106692873
O   O5        1.0  0.30252  0.24639  0.73930  1.0000 -0.530809892
O   O6        1.0  0.30236  0.24352  0.65434  1.0000 -0.5484029926
O   O7        1.0  0.98987  0.21395  0.72050  1.0000 -0.5484029926
O   O8        1.0  0.99142  0.21858  0.63573  1.0000 -0.530809892
O   O9        1.0  0.15689  0.38441  0.65064  1.0000 -0.530809892
O   O10       1.0  0.15113  0.38570  0.73547  1.0000 -0.5393346228
O   O11       1.0  0.14162  0.07759  0.72861  1.0000 -0.530809892
O   O12       1.0  0.13902  0.07390  0.64302  1.0000 -0.5484029926
O   O13       1.0  0.88129  0.61029  0.58286  1.0000 -0.4172931291
O   O14       1.0  0.86540  0.95554  0.61692  1.0000 -0.399307055
O   O15       1.0  0.00296  0.86917  0.04183  1.0000 -0.4106692873
O   O16       1.0  0.75680  0.58290  0.00689  1.0000 -0.4106692873
O   O17       1.0  0.69748  0.75361  0.26070  1.0000 -0.530809892
O   O18       1.0  0.69764  0.75648  0.34566  1.0000 -0.5484029926
O   O19       1.0  0.01013  0.78605  0.27950  1.0000 -0.5484029926
O   O20       1.0  0.00858  0.78142  0.36427  1.0000 -0.530809892
O   O21       1.0  0.84311  0.61559  0.34936  1.0000 -0.530809892
O   O22       1.0  0.84887  0.61430  0.26453  1.0000 -0.5393346228
O   O23       1.0  0.85838  0.92241  0.27139  1.0000 -0.530809892
O   O24       1.0  0.86098  0.92610  0.35698  1.0000 -0.5484029926
