# DDEC6 charges by PACMAN v1.1 (https://github.com/mtap-research/PACMAN-charge/)
data_2020[Cu][sql]2[FSR]9
_chemical_formula_sum              "Cu4 H68 C88 I4 N12 O4"
_cell_length_a       12.5064
_cell_length_b       13.6759
_cell_length_c       18.1701
_cell_angle_alpha    64.9392
_cell_angle_beta     71.8722
_cell_angle_gamma    65.037

_symmetry_space_group_name_H-M    "P 1"
_symmetry_Int_Tables_number       1

loop_
  _symmetry_equiv_pos_as_xyz
  'x, y, z'

loop_
  _atom_site_type_symbol
  _atom_site_label
  _atom_site_symmetry_multiplicity
  _atom_site_fract_x
  _atom_site_fract_y
  _atom_site_fract_z
  _atom_site_occupancy
  _atom_site_charge
Cu  Cu1       1.0  0.56521  0.55722  0.93905  1.0000 0.186669373
Cu  Cu2       1.0  0.44090  0.06456  0.43832  1.0000 0.1820675889
Cu  Cu3       1.0  0.43479  0.44278  0.06095  1.0000 0.186669373
Cu  Cu4       1.0  0.55910  0.93544  0.56168  1.0000 0.1820675889
H   H1        1.0  0.60599  0.14619  0.29051  1.0000 0.1014403109
H   H2        1.0  0.69908  0.12269  0.16354  1.0000 0.1204317177
H   H3        1.0  0.67555  0.74222  0.84282  1.0000 0.1014403109
H   H4        1.0  0.51996  0.90955  0.21344  1.0000 0.127632203
H   H5        1.0  0.49327  0.67050  0.06713  1.0000 0.1014403109
H   H6        1.0  0.52622  0.67116  0.76954  1.0000 0.0922492314
H   H7        1.0  0.80717  0.94988  0.89489  1.0000 0.1118516261
H   H8        1.0  0.78103  0.09435  0.05632  1.0000 0.1204317177
H   H9        1.0  0.43731  0.93429  0.33915  1.0000 0.1014403109
H   H10       1.0  0.78185  0.39151  0.86315  1.0000 0.1014403109
H   H11       1.0  0.59073  0.65011  0.64070  1.0000 0.1204317177
H   H12       1.0  0.85918  0.36600  0.73604  1.0000 0.127632203
H   H13       1.0  0.54061  0.79660  0.09255  1.0000 0.127632203
H   H14       1.0  0.72755  0.86908  0.86270  1.0000 0.1204317177
H   H15       1.0  0.89481  0.17766  0.97168  1.0000 0.1118516261
H   H16       1.0  0.86381  0.42022  0.40212  1.0000 0.1204317177
H   H17       1.0  0.60223  0.56551  0.55974  1.0000 0.1204317177
H   H18       1.0  0.52063  0.68340  0.44588  1.0000 0.1118516261
H   H19       1.0  0.10003  0.07636  0.73868  1.0000 0.1361568505
H   H20       1.0  0.09702  0.30362  0.58986  1.0000 0.127632203
H   H21       1.0  0.29112  0.18867  0.55978  1.0000 0.1014403109
H   H22       1.0  0.22615  0.19591  0.36080  1.0000 0.1014403109
H   H23       1.0  0.12579  0.36597  0.76132  1.0000 0.1204317177
H   H24       1.0  0.26077  0.31947  0.71818  1.0000 0.1204317177
H   H25       1.0  0.22291  0.26116  0.81488  1.0000 0.1204317177
H   H26       1.0  0.58165  0.49379  0.26773  1.0000 0.1361568505
H   H27       1.0  0.70866  0.41721  0.36326  1.0000 0.1118516261
H   H28       1.0  0.03729  0.25781  0.88328  1.0000 0.1204317177
H   H29       1.0  0.39495  0.76218  0.34935  1.0000 0.1204317177
H   H30       1.0  0.03027  0.31280  0.38287  1.0000 0.127632203
H   H31       1.0  0.95839  0.99573  0.82707  1.0000 0.1118516261
H   H32       1.0  0.25880  0.76766  0.28712  1.0000 0.1204317177
H   H33       1.0  0.26804  0.79787  0.19058  1.0000 0.1204317177
H   H34       1.0  0.33844  0.84327  0.22200  1.0000 0.1118516261
H   H35       1.0  0.39401  0.85381  0.70949  1.0000 0.1014403109
H   H36       1.0  0.30092  0.87731  0.83646  1.0000 0.1204317177
H   H37       1.0  0.32445  0.25778  0.15718  1.0000 0.1014403109
H   H38       1.0  0.48004  0.09045  0.78656  1.0000 0.127632203
H   H39       1.0  0.50673  0.32950  0.93287  1.0000 0.1014403109
H   H40       1.0  0.47378  0.32884  0.23046  1.0000 0.0922492314
H   H41       1.0  0.19283  0.05012  0.10511  1.0000 0.1118516261
H   H42       1.0  0.21897  0.90565  0.94368  1.0000 0.1204317177
H   H43       1.0  0.56269  0.06571  0.66085  1.0000 0.1014403109
H   H44       1.0  0.21815  0.60849  0.13685  1.0000 0.1014403109
H   H45       1.0  0.40927  0.34989  0.35930  1.0000 0.1204317177
H   H46       1.0  0.14082  0.63400  0.26396  1.0000 0.127632203
H   H47       1.0  0.45939  0.20340  0.90745  1.0000 0.127632203
H   H48       1.0  0.27245  0.13092  0.13730  1.0000 0.1204317177
H   H49       1.0  0.10519  0.82234  0.02832  1.0000 0.1118516261
H   H50       1.0  0.13619  0.57978  0.59788  1.0000 0.1204317177
H   H51       1.0  0.39777  0.43449  0.44026  1.0000 0.1204317177
H   H52       1.0  0.47937  0.31660  0.55412  1.0000 0.1118516261
H   H53       1.0  0.89997  0.92364  0.26132  1.0000 0.1361568505
H   H54       1.0  0.90298  0.69638  0.41014  1.0000 0.127632203
H   H55       1.0  0.70888  0.81133  0.44022  1.0000 0.1014403109
H   H56       1.0  0.77385  0.80409  0.63920  1.0000 0.1014403109
H   H57       1.0  0.87421  0.63403  0.23868  1.0000 0.1204317177
H   H58       1.0  0.73923  0.68053  0.28182  1.0000 0.1204317177
H   H59       1.0  0.77709  0.73884  0.18512  1.0000 0.1204317177
H   H60       1.0  0.41835  0.50621  0.73227  1.0000 0.1361568505
H   H61       1.0  0.29134  0.58279  0.63674  1.0000 0.1118516261
H   H62       1.0  0.96271  0.74219  0.11672  1.0000 0.1204317177
H   H63       1.0  0.60505  0.23782  0.65065  1.0000 0.1204317177
H   H64       1.0  0.96973  0.68720  0.61713  1.0000 0.127632203
H   H65       1.0  0.04161  0.00427  0.17293  1.0000 0.1118516261
H   H66       1.0  0.74120  0.23234  0.71288  1.0000 0.1204317177
H   H67       1.0  0.73196  0.20213  0.80942  1.0000 0.1204317177
H   H68       1.0  0.66156  0.15673  0.77800  1.0000 0.1118516261
C   C1        1.0  0.61670  0.01660  0.17250  1.0000 0.0922492314
C   C2        1.0  0.58860  0.09730  0.27460  1.0000 0.0678226181
C   C3        1.0  0.64360  0.08480  0.19800  1.0000 -0.1794257651
C   C4        1.0  0.64880  0.75210  0.89500  1.0000 0.0678226181
C   C5        1.0  0.53900  0.95900  0.22760  1.0000 -0.1794257651
C   C6        1.0  0.54280  0.71050  0.02520  1.0000 0.0632746304
C   C7        1.0  0.67250  0.00140  0.09130  1.0000 0.202327882
C   C8        1.0  0.90780  0.07890  0.90970  1.0000 0.036278328
C   C9        1.0  0.59350  0.60640  0.76330  1.0000 0.0678226181
C   C10       1.0  0.77370  0.96420  0.94550  1.0000 -0.2468476683
C   C11       1.0  0.72900  0.50080  0.67570  1.0000 0.0922492314
C   C12       1.0  0.75870  0.04870  0.04040  1.0000 -0.2213471522
C   C13       1.0  0.49000  0.97450  0.30250  1.0000 0.0678226181
C   C14       1.0  0.64600  0.84540  0.98190  1.0000 0.083747414
C   C15       1.0  0.81370  0.03000  0.96530  1.0000 0.1204317177
C   C16       1.0  0.74230  0.44490  0.81750  1.0000 0.0678226181
C   C17       1.0  0.63090  0.54380  0.41380  1.0000 0.036278328
C   C18       1.0  0.63120  0.59490  0.68550  1.0000 -0.1794257651
C   C19       1.0  0.78780  0.42780  0.74190  1.0000 -0.1689690044
C   C20       1.0  0.68610  0.91980  0.99850  1.0000 0.202327882
C   C21       1.0  0.04100  0.32200  0.48950  1.0000 0.0922492314
C   C22       1.0  0.57160  0.78520  0.04090  1.0000 -0.1689690044
C   C23       1.0  0.68080  0.82780  0.90660  1.0000 -0.1887685535
C   C24       1.0  0.93570  0.15670  0.92410  1.0000 -0.1260199537
C   C25       1.0  0.83560  0.43580  0.45230  1.0000 -0.2468476683
C   C26       1.0  0.68250  0.52190  0.54430  1.0000 -0.2282709321
C   C27       1.0  0.53500  0.64520  0.40880  1.0000 -0.1222400023
C   C28       1.0  0.47720  0.63860  0.29700  1.0000 0.2376106465
C   C29       1.0  0.71630  0.49950  0.47040  1.0000 0.127632203
C   C30       1.0  0.08220  0.17600  0.80170  1.0000 0.2376106465
C   C31       1.0  0.05790  0.09740  0.78610  1.0000 -0.2076192936
C   C32       1.0  0.12110  0.28310  0.54190  1.0000 -0.1689690044
C   C33       1.0  0.23690  0.21390  0.52350  1.0000 0.0632746304
C   C34       1.0  0.19950  0.21820  0.40820  1.0000 0.0678226181
C   C35       1.0  0.19650  0.29760  0.76110  1.0000 -0.240124469
C   C36       1.0  0.76600  0.48040  0.59460  1.0000 0.2093054587
C   C37       1.0  0.91340  0.39500  0.50670  1.0000 0.2093054587
C   C38       1.0  0.57010  0.53370  0.30300  1.0000 -0.2076192936
C   C39       1.0  0.64550  0.48810  0.36030  1.0000 -0.1384134159
C   C40       1.0  0.02080  0.20470  0.87150  1.0000 -0.2213471522
C   C41       1.0  0.45940  0.69230  0.35130  1.0000 -0.2282709321
C   C42       1.0  0.08200  0.28830  0.42070  1.0000 -0.1959715625
C   C43       1.0  0.97330  0.04990  0.83870  1.0000 -0.1384134159
C   C44       1.0  0.31160  0.77960  0.23380  1.0000 -0.240124469
C   C45       1.0  0.38330  0.98340  0.82750  1.0000 0.0922492314
C   C46       1.0  0.41140  0.90270  0.72540  1.0000 0.0678226181
C   C47       1.0  0.35640  0.91520  0.80200  1.0000 -0.1794257651
C   C48       1.0  0.35120  0.24790  0.10500  1.0000 0.0678226181
C   C49       1.0  0.46100  0.04100  0.77240  1.0000 -0.1794257651
C   C50       1.0  0.45720  0.28950  0.97480  1.0000 0.0632746304
C   C51       1.0  0.32750  0.99860  0.90870  1.0000 0.202327882
C   C52       1.0  0.09220  0.92110  0.09030  1.0000 0.036278328
C   C53       1.0  0.40650  0.39360  0.23670  1.0000 0.0678226181
C   C54       1.0  0.22630  0.03580  0.05450  1.0000 -0.240124469
C   C55       1.0  0.27100  0.49920  0.32430  1.0000 0.0922492314
C   C56       1.0  0.24130  0.95130  0.95960  1.0000 -0.2213471522
C   C57       1.0  0.51000  0.02550  0.69750  1.0000 0.0678226181
C   C58       1.0  0.35400  0.15460  0.01810  1.0000 0.083747414
C   C59       1.0  0.18630  0.97000  0.03470  1.0000 0.1204317177
C   C60       1.0  0.25770  0.55510  0.18250  1.0000 0.0678226181
C   C61       1.0  0.36910  0.45620  0.58620  1.0000 0.036278328
C   C62       1.0  0.36880  0.40510  0.31450  1.0000 -0.1794257651
C   C63       1.0  0.21220  0.57220  0.25810  1.0000 -0.1689690044
C   C64       1.0  0.31390  0.08020  0.00150  1.0000 0.202327882
C   C65       1.0  0.95900  0.67800  0.51050  1.0000 0.0922492314
C   C66       1.0  0.42840  0.21480  0.95910  1.0000 -0.1689690044
C   C67       1.0  0.31920  0.17220  0.09340  1.0000 -0.1887685535
C   C68       1.0  0.06430  0.84330  0.07590  1.0000 -0.1260199537
C   C69       1.0  0.16440  0.56420  0.54770  1.0000 -0.2468476683
C   C70       1.0  0.31750  0.47810  0.45570  1.0000 -0.2282709321
C   C71       1.0  0.46500  0.35480  0.59120  1.0000 -0.1222400023
C   C72       1.0  0.52280  0.36140  0.70300  1.0000 0.2376106465
C   C73       1.0  0.28370  0.50050  0.52960  1.0000 0.127632203
C   C74       1.0  0.91780  0.82400  0.19830  1.0000 0.2376106465
C   C75       1.0  0.94210  0.90260  0.21390  1.0000 -0.2076192936
C   C76       1.0  0.87890  0.71690  0.45810  1.0000 -0.1689690044
C   C77       1.0  0.76310  0.78610  0.47650  1.0000 0.0632746304
C   C78       1.0  0.80050  0.78180  0.59180  1.0000 0.0678226181
C   C79       1.0  0.80350  0.70240  0.23890  1.0000 -0.240124469
C   C80       1.0  0.23400  0.51960  0.40540  1.0000 0.2093054587
C   C81       1.0  0.08660  0.60500  0.49330  1.0000 0.2093054587
C   C82       1.0  0.42990  0.46630  0.69700  1.0000 -0.2076192936
C   C83       1.0  0.35450  0.51190  0.63970  1.0000 -0.1384134159
C   C84       1.0  0.97920  0.79530  0.12850  1.0000 -0.2213471522
C   C85       1.0  0.54060  0.30770  0.64870  1.0000 -0.2282709321
C   C86       1.0  0.91800  0.71170  0.57930  1.0000 -0.1959715625
C   C87       1.0  0.02670  0.95010  0.16130  1.0000 -0.1384134159
C   C88       1.0  0.68840  0.22040  0.76620  1.0000 -0.240124469
I   I1        1.0  0.59029  0.13672  0.46471  1.0000 -0.4514021789
I   I2        1.0  0.67007  0.37919  0.05909  1.0000 -0.4514021789
I   I3        1.0  0.40971  0.86328  0.53529  1.0000 -0.4514021789
I   I4        1.0  0.32993  0.62081  0.94091  1.0000 -0.4514021789
N   N1        1.0  0.51220  0.04300  0.32680  1.0000 -0.1887685535
N   N2        1.0  0.58210  0.69090  0.95250  1.0000 -0.1794257651
N   N3        1.0  0.64480  0.53340  0.82890  1.0000 -0.1794257651
N   N4        1.0  0.63620  0.93710  0.07160  1.0000 -0.3378559341
N   N5        1.0  0.27700  0.18040  0.45780  1.0000 -0.1794257651
N   N6        1.0  0.88050  0.41670  0.57830  1.0000 -0.3378559341
N   N7        1.0  0.48780  0.95700  0.67320  1.0000 -0.1887685535
N   N8        1.0  0.41790  0.30910  0.04750  1.0000 -0.1794257651
N   N9        1.0  0.35520  0.46660  0.17110  1.0000 -0.1794257651
N   N10       1.0  0.36380  0.06290  0.92840  1.0000 -0.3378559341
N   N11       1.0  0.72300  0.81960  0.54220  1.0000 -0.1794257651
N   N12       1.0  0.11950  0.58330  0.42170  1.0000 -0.3378559341
O   O1        1.0  0.16740  0.21880  0.74520  1.0000 -0.1473096674
O   O2        1.0  0.41200  0.67850  0.23620  1.0000 -0.1384134159
O   O3        1.0  0.83260  0.78120  0.25480  1.0000 -0.1473096674
O   O4        1.0  0.58800  0.32150  0.76380  1.0000 -0.1384134159
