# DDEC6 charges by PACMAN v1.1 (https://github.com/mtap-research/PACMAN-charge/)
data_2020[Cu][sql]2[FSR]11
_chemical_formula_sum              "Cu8 H160 C192 N16 O56"
_cell_length_a       16.602
_cell_length_b       18.176
_cell_length_c       23.001
_cell_angle_alpha    90
_cell_angle_beta     101.75
_cell_angle_gamma    90

_symmetry_space_group_name_H-M    "P 1"
_symmetry_Int_Tables_number       1

loop_
  _symmetry_equiv_pos_as_xyz
  'x, y, z'

loop_
  _atom_site_type_symbol
  _atom_site_label
  _atom_site_symmetry_multiplicity
  _atom_site_fract_x
  _atom_site_fract_y
  _atom_site_fract_z
  _atom_site_occupancy
  _atom_site_charge
Cu  Cu1       1.0  0.93781  0.27765  0.77197  1.0000 0.6516273738
Cu  Cu2       1.0  0.03118  0.18581  0.74334  1.0000 0.6725202621
Cu  Cu3       1.0  0.56219  0.77765  0.22803  1.0000 0.6516273738
Cu  Cu4       1.0  0.46882  0.68581  0.25666  1.0000 0.6725202621
Cu  Cu5       1.0  0.06219  0.72235  0.22803  1.0000 0.6516273738
Cu  Cu6       1.0  0.96882  0.81419  0.25666  1.0000 0.6725202621
Cu  Cu7       1.0  0.43781  0.22235  0.77197  1.0000 0.6516273738
Cu  Cu8       1.0  0.53118  0.31419  0.74334  1.0000 0.6725202621
H   H1        1.0  0.61134  0.90138  0.37690  1.0000 0.1220471605
H   H2        1.0  0.76173  0.96432  0.62992  1.0000 0.1493880662
H   H3        1.0  0.86990  0.03157  0.67065  1.0000 0.1493880662
H   H4        1.0  0.72456  0.18547  0.70303  1.0000 0.1220471605
H   H5        1.0  0.65595  0.96166  0.55044  1.0000 0.1220471605
H   H6        1.0  0.61660  0.11760  0.66367  1.0000 0.1376134039
H   H7        1.0  0.61880  0.95307  0.46402  1.0000 0.1220471605
H   H8        1.0  0.45942  0.75746  0.41676  1.0000 0.1493880662
H   H9        1.0  0.24304  0.28271  0.80311  1.0000 0.1493880662
H   H10       1.0  0.20595  0.51175  0.86236  1.0000 0.1493880662
H   H11       1.0  0.09913  0.43472  0.84087  1.0000 0.1493880662
H   H12       1.0  0.55326  0.00982  0.68390  1.0000 0.1493880662
H   H13       1.0  0.34871  0.35542  0.82800  1.0000 0.1292109954
H   H14       1.0  0.32918  0.51846  0.93593  1.0000 0.1220471605
H   H15       1.0  0.43602  0.89157  0.55413  1.0000 0.1376134039
H   H16       1.0  0.17932  0.22173  0.70454  1.0000 0.1493880662
H   H17       1.0  0.25000  0.17657  0.68218  1.0000 0.1493880662
H   H18       1.0  0.16364  0.19084  0.63804  1.0000 0.1493880662
H   H19       1.0  0.56314  0.70053  0.06323  1.0000 0.1493880662
H   H20       1.0  0.53760  0.65404  0.97442  1.0000 0.1376134039
H   H21       1.0  0.39980  0.46469  0.79202  1.0000 0.1376134039
H   H22       1.0  0.46387  0.81127  0.50270  1.0000 0.1376134039
H   H23       1.0  0.39990  0.57784  0.10791  1.0000 0.1113143721
H   H24       1.0  0.37632  0.52604  0.01889  1.0000 0.1220471605
H   H25       1.0  0.76042  0.32921  0.86669  1.0000 0.1376134039
H   H26       1.0  0.69714  0.39551  0.86723  1.0000 0.1292109954
H   H27       1.0  0.70231  0.35572  0.80603  1.0000 0.1292109954
H   H28       1.0  0.29404  0.10963  0.67312  1.0000 0.1220471605
H   H29       1.0  0.30736  0.02325  0.68475  1.0000 0.1220471605
H   H30       1.0  0.25257  0.05183  0.62348  1.0000 0.1292109954
H   H31       1.0  0.14073  0.96425  0.67518  1.0000 0.1493880662
H   H32       1.0  0.22286  0.95991  0.72546  1.0000 0.1292109954
H   H33       1.0  0.14179  0.99713  0.73987  1.0000 0.1220471605
H   H34       1.0  0.94761  0.43394  0.78252  1.0000 0.1598795922
H   H35       1.0  0.87966  0.49585  0.78444  1.0000 0.1493880662
H   H36       1.0  0.93827  0.46878  0.84470  1.0000 0.1493880662
H   H37       1.0  0.76901  0.48081  0.90118  1.0000 0.1292109954
H   H38       1.0  0.84688  0.50631  0.87512  1.0000 0.1220471605
H   H39       1.0  0.75578  0.52179  0.83836  1.0000 0.1292109954
H   H40       1.0  0.53761  0.59048  0.90655  1.0000 0.1376134039
H   H41       1.0  0.88866  0.40138  0.62310  1.0000 0.1220471605
H   H42       1.0  0.73827  0.46432  0.37008  1.0000 0.1493880662
H   H43       1.0  0.63010  0.53157  0.32935  1.0000 0.1493880662
H   H44       1.0  0.77544  0.68547  0.29697  1.0000 0.1220471605
H   H45       1.0  0.84405  0.46166  0.44956  1.0000 0.1220471605
H   H46       1.0  0.88340  0.61760  0.33633  1.0000 0.1376134039
H   H47       1.0  0.88120  0.45307  0.53598  1.0000 0.1220471605
H   H48       1.0  0.04058  0.25746  0.58324  1.0000 0.1493880662
H   H49       1.0  0.25696  0.78271  0.19689  1.0000 0.1493880662
H   H50       1.0  0.29405  0.01175  0.13764  1.0000 0.1493880662
H   H51       1.0  0.40087  0.93472  0.15913  1.0000 0.1493880662
H   H52       1.0  0.94674  0.50982  0.31610  1.0000 0.1493880662
H   H53       1.0  0.15129  0.85542  0.17200  1.0000 0.1292109954
H   H54       1.0  0.17082  0.01846  0.06407  1.0000 0.1220471605
H   H55       1.0  0.06398  0.39157  0.44587  1.0000 0.1376134039
H   H56       1.0  0.32068  0.72173  0.29546  1.0000 0.1493880662
H   H57       1.0  0.25000  0.67657  0.31782  1.0000 0.1493880662
H   H58       1.0  0.33636  0.69084  0.36196  1.0000 0.1493880662
H   H59       1.0  0.93686  0.20053  0.93677  1.0000 0.1493880662
H   H60       1.0  0.96240  0.15404  0.02558  1.0000 0.1376134039
H   H61       1.0  0.10020  0.96469  0.20798  1.0000 0.1376134039
H   H62       1.0  0.03613  0.31127  0.49730  1.0000 0.1376134039
H   H63       1.0  0.10010  0.07784  0.89209  1.0000 0.1113143721
H   H64       1.0  0.12368  0.02604  0.98111  1.0000 0.1292109954
H   H65       1.0  0.73958  0.82921  0.13331  1.0000 0.1376134039
H   H66       1.0  0.80286  0.89551  0.13277  1.0000 0.1292109954
H   H67       1.0  0.79769  0.85572  0.19397  1.0000 0.1292109954
H   H68       1.0  0.20596  0.60963  0.32688  1.0000 0.1220471605
H   H69       1.0  0.19264  0.52325  0.31525  1.0000 0.1220471605
H   H70       1.0  0.24743  0.55183  0.37652  1.0000 0.1292109954
H   H71       1.0  0.35927  0.46425  0.32482  1.0000 0.1493880662
H   H72       1.0  0.27714  0.45991  0.27454  1.0000 0.1292109954
H   H73       1.0  0.35821  0.49713  0.26013  1.0000 0.1220471605
H   H74       1.0  0.55239  0.93394  0.21748  1.0000 0.1598795922
H   H75       1.0  0.62034  0.99585  0.21556  1.0000 0.1493880662
H   H76       1.0  0.56173  0.96878  0.15530  1.0000 0.1493880662
H   H77       1.0  0.73099  0.98081  0.09882  1.0000 0.1292109954
H   H78       1.0  0.65312  0.00631  0.12488  1.0000 0.1220471605
H   H79       1.0  0.74422  0.02179  0.16164  1.0000 0.1292109954
H   H80       1.0  0.96239  0.09048  0.09345  1.0000 0.1376134039
H   H81       1.0  0.38866  0.09862  0.62310  1.0000 0.1220471605
H   H82       1.0  0.23827  0.03568  0.37008  1.0000 0.1493880662
H   H83       1.0  0.13010  0.96843  0.32935  1.0000 0.1493880662
H   H84       1.0  0.27544  0.81453  0.29697  1.0000 0.1220471605
H   H85       1.0  0.34405  0.03834  0.44956  1.0000 0.1220471605
H   H86       1.0  0.38340  0.88240  0.33633  1.0000 0.1376134039
H   H87       1.0  0.38120  0.04693  0.53598  1.0000 0.1220471605
H   H88       1.0  0.54058  0.24254  0.58324  1.0000 0.1493880662
H   H89       1.0  0.75696  0.71729  0.19689  1.0000 0.1493880662
H   H90       1.0  0.79405  0.48825  0.13764  1.0000 0.1493880662
H   H91       1.0  0.90087  0.56528  0.15913  1.0000 0.1493880662
H   H92       1.0  0.44674  0.99018  0.31610  1.0000 0.1493880662
H   H93       1.0  0.65129  0.64458  0.17200  1.0000 0.1292109954
H   H94       1.0  0.67082  0.48154  0.06407  1.0000 0.1220471605
H   H95       1.0  0.56398  0.10843  0.44587  1.0000 0.1376134039
H   H96       1.0  0.82068  0.77827  0.29546  1.0000 0.1493880662
H   H97       1.0  0.75000  0.82343  0.31782  1.0000 0.1493880662
H   H98       1.0  0.83636  0.80916  0.36196  1.0000 0.1493880662
H   H99       1.0  0.43686  0.29947  0.93677  1.0000 0.1493880662
H   H100      1.0  0.46240  0.34596  0.02558  1.0000 0.1376134039
H   H101      1.0  0.60020  0.53531  0.20798  1.0000 0.1376134039
H   H102      1.0  0.53613  0.18873  0.49730  1.0000 0.1376134039
H   H103      1.0  0.60010  0.42216  0.89209  1.0000 0.1113143721
H   H104      1.0  0.62368  0.47396  0.98111  1.0000 0.1220471605
H   H105      1.0  0.23958  0.67079  0.13331  1.0000 0.1376134039
H   H106      1.0  0.30286  0.60449  0.13277  1.0000 0.1292109954
H   H107      1.0  0.29769  0.64428  0.19397  1.0000 0.1292109954
H   H108      1.0  0.70596  0.89037  0.32688  1.0000 0.1220471605
H   H109      1.0  0.69264  0.97675  0.31525  1.0000 0.1220471605
H   H110      1.0  0.74743  0.94817  0.37652  1.0000 0.1292109954
H   H111      1.0  0.85927  0.03575  0.32482  1.0000 0.1493880662
H   H112      1.0  0.77714  0.04009  0.27454  1.0000 0.1292109954
H   H113      1.0  0.85821  0.00287  0.26013  1.0000 0.1220471605
H   H114      1.0  0.05239  0.56606  0.21748  1.0000 0.1598795922
H   H115      1.0  0.12034  0.50415  0.21556  1.0000 0.1493880662
H   H116      1.0  0.06173  0.53122  0.15530  1.0000 0.1493880662
H   H117      1.0  0.23099  0.51919  0.09882  1.0000 0.1292109954
H   H118      1.0  0.15312  0.49369  0.12488  1.0000 0.1220471605
H   H119      1.0  0.24422  0.47821  0.16164  1.0000 0.1292109954
H   H120      1.0  0.46239  0.40952  0.09345  1.0000 0.1376134039
H   H121      1.0  0.11134  0.59862  0.37690  1.0000 0.1220471605
H   H122      1.0  0.26173  0.53568  0.62992  1.0000 0.1493880662
H   H123      1.0  0.36990  0.46843  0.67065  1.0000 0.1493880662
H   H124      1.0  0.22456  0.31453  0.70303  1.0000 0.1220471605
H   H125      1.0  0.15595  0.53834  0.55044  1.0000 0.1220471605
H   H126      1.0  0.11660  0.38240  0.66367  1.0000 0.1376134039
H   H127      1.0  0.11880  0.54693  0.46402  1.0000 0.1220471605
H   H128      1.0  0.95942  0.74254  0.41676  1.0000 0.1493880662
H   H129      1.0  0.74304  0.21729  0.80311  1.0000 0.1493880662
H   H130      1.0  0.70595  0.98825  0.86236  1.0000 0.1493880662
H   H131      1.0  0.59913  0.06528  0.84087  1.0000 0.1493880662
H   H132      1.0  0.05326  0.49018  0.68390  1.0000 0.1493880662
H   H133      1.0  0.84871  0.14458  0.82800  1.0000 0.1292109954
H   H134      1.0  0.82918  0.98154  0.93593  1.0000 0.1220471605
H   H135      1.0  0.93602  0.60843  0.55413  1.0000 0.1376134039
H   H136      1.0  0.67932  0.27827  0.70454  1.0000 0.1493880662
H   H137      1.0  0.75000  0.32343  0.68218  1.0000 0.1493880662
H   H138      1.0  0.66364  0.30916  0.63804  1.0000 0.1493880662
H   H139      1.0  0.06314  0.79947  0.06323  1.0000 0.1493880662
H   H140      1.0  0.03760  0.84596  0.97442  1.0000 0.1376134039
H   H141      1.0  0.89980  0.03531  0.79202  1.0000 0.1376134039
H   H142      1.0  0.96387  0.68873  0.50270  1.0000 0.1376134039
H   H143      1.0  0.89990  0.92216  0.10791  1.0000 0.1113143721
H   H144      1.0  0.87632  0.97396  0.01889  1.0000 0.1220471605
H   H145      1.0  0.26042  0.17079  0.86669  1.0000 0.1376134039
H   H146      1.0  0.19714  0.10449  0.86723  1.0000 0.1292109954
H   H147      1.0  0.20231  0.14428  0.80603  1.0000 0.1292109954
H   H148      1.0  0.79404  0.39037  0.67312  1.0000 0.1220471605
H   H149      1.0  0.80736  0.47675  0.68475  1.0000 0.1220471605
H   H150      1.0  0.75257  0.44817  0.62348  1.0000 0.1292109954
H   H151      1.0  0.64073  0.53575  0.67518  1.0000 0.1493880662
H   H152      1.0  0.72286  0.54009  0.72546  1.0000 0.1292109954
H   H153      1.0  0.64179  0.50287  0.73987  1.0000 0.1220471605
H   H154      1.0  0.44761  0.06606  0.78252  1.0000 0.1598795922
H   H155      1.0  0.37966  0.00415  0.78444  1.0000 0.1493880662
H   H156      1.0  0.43827  0.03122  0.84470  1.0000 0.1493880662
H   H157      1.0  0.26901  0.01919  0.90118  1.0000 0.1292109954
H   H158      1.0  0.34688  0.99369  0.87512  1.0000 0.1220471605
H   H159      1.0  0.25578  0.97821  0.83836  1.0000 0.1292109954
H   H160      1.0  0.03761  0.90952  0.90655  1.0000 0.1376134039
C   C1        1.0  0.57970  0.88230  0.40350  1.0000 -0.1208869098
C   C2        1.0  0.75340  0.01120  0.64600  1.0000 -0.1337899184
C   C3        1.0  0.81620  0.05040  0.66940  1.0000 -0.0902902959
C   C4        1.0  0.73310  0.13810  0.68800  1.0000 -0.0813884479
C   C5        1.0  0.49770  0.67570  0.14840  1.0000 0.4513065935
C   C6        1.0  0.80770  0.11490  0.69120  1.0000 -0.0902902959
C   C7        1.0  0.61040  0.95870  0.56960  1.0000 -0.2431445299
C   C8        1.0  0.87200  0.15620  0.71630  1.0000 0.4405879201
C   C9        1.0  0.67960  0.03420  0.64410  1.0000 0.0215301071
C   C10       1.0  0.09510  0.30870  0.79660  1.0000 0.4670132784
C   C11       1.0  0.52720  0.79050  0.33470  1.0000 0.4670132784
C   C12       1.0  0.54170  0.88840  0.49170  1.0000 0.0215301071
C   C13       1.0  0.67040  0.09890  0.66510  1.0000 -0.1444575368
C   C14       1.0  0.58360  0.91190  0.45370  1.0000 -0.1337899184
C   C15       1.0  0.49240  0.80020  0.42610  1.0000 -0.0902902959
C   C16       1.0  0.61300  0.99320  0.62050  1.0000 0.0752052488
C   C17       1.0  0.53120  0.82430  0.38800  1.0000 -0.0902902959
C   C18       1.0  0.23510  0.33160  0.81540  1.0000 -0.0985769248
C   C19       1.0  0.16120  0.35460  0.81630  1.0000 -0.0813884479
C   C20       1.0  0.48250  0.64650  0.09230  1.0000 -0.0813884479
C   C21       1.0  0.21420  0.46270  0.85060  1.0000 -0.1481990246
C   C22       1.0  0.15210  0.41890  0.83640  1.0000 -0.0985769248
C   C23       1.0  0.55200  0.98730  0.64650  1.0000 -0.2126614128
C   C24       1.0  0.29570  0.37320  0.83030  1.0000 -0.1337899184
C   C25       1.0  0.36920  0.51950  0.91170  1.0000 -0.1881436287
C   C26       1.0  0.28870  0.44000  0.84900  1.0000 0.0107595057
C   C27       1.0  0.35470  0.48430  0.86430  1.0000 0.0707145858
C   C28       1.0  0.48460  0.91770  0.57140  1.0000 -0.2126614128
C   C29       1.0  0.19050  0.18110  0.67930  1.0000 -0.6527164756
C   C30       1.0  0.45300  0.59000  0.98600  1.0000 0.0401858057
C   C31       1.0  0.15870  0.11300  0.69900  1.0000 0.3987507941
C   C32       1.0  0.43530  0.55750  0.93000  1.0000 0.0707145858
C   C33       1.0  0.52090  0.66460  0.05360  1.0000 -0.0813884479
C   C34       1.0  0.54410  0.91960  0.54490  1.0000 0.0707145858
C   C35       1.0  0.50630  0.63740  0.00210  1.0000 -0.1337899184
C   C36       1.0  0.40800  0.49000  0.82890  1.0000 -0.2126614128
C   C37       1.0  0.47000  0.53020  0.84610  1.0000 0.0465377827
C   C38       1.0  0.49550  0.83070  0.47620  1.0000 -0.1481990246
C   C39       1.0  0.42900  0.59460  0.07890  1.0000 -0.1114903307
C   C40       1.0  0.41450  0.56540  0.02760  1.0000 -0.1627069666
C   C41       1.0  0.73400  0.37190  0.84460  1.0000 -0.3136514305
C   C42       1.0  0.26830  0.06100  0.66630  1.0000 -0.3528432837
C   C43       1.0  0.84900  0.39660  0.81170  1.0000 0.390730639
C   C44       1.0  0.17430  0.98970  0.70920  1.0000 -0.3887426115
C   C45       1.0  0.90850  0.45340  0.80530  1.0000 -0.6297078906
C   C46       1.0  0.79060  0.48710  0.86490  1.0000 -0.3528432837
C   C47       1.0  0.48810  0.56310  0.89530  1.0000 -0.2126614128
C   C48       1.0  0.48880  0.95000  0.62060  1.0000 0.0401858057
C   C49       1.0  0.92030  0.38230  0.59650  1.0000 -0.1208869098
C   C50       1.0  0.74660  0.51120  0.35400  1.0000 -0.1337899184
C   C51       1.0  0.68380  0.55040  0.33060  1.0000 -0.0902902959
C   C52       1.0  0.76690  0.63810  0.31200  1.0000 -0.0813884479
C   C53       1.0  0.00230  0.17570  0.85160  1.0000 0.4513065935
C   C54       1.0  0.69230  0.61490  0.30880  1.0000 -0.0902902959
C   C55       1.0  0.88960  0.45870  0.43040  1.0000 -0.2431445299
C   C56       1.0  0.62800  0.65620  0.28370  1.0000 0.4405879201
C   C57       1.0  0.82040  0.53420  0.35590  1.0000 0.0215301071
C   C58       1.0  0.40490  0.80870  0.20340  1.0000 0.4670132784
C   C59       1.0  0.97280  0.29050  0.66530  1.0000 0.4670132784
C   C60       1.0  0.95830  0.38840  0.50830  1.0000 0.0215301071
C   C61       1.0  0.82960  0.59890  0.33490  1.0000 -0.1444575368
C   C62       1.0  0.91640  0.41190  0.54630  1.0000 -0.1337899184
C   C63       1.0  0.00760  0.30020  0.57390  1.0000 -0.0902902959
C   C64       1.0  0.88700  0.49320  0.37950  1.0000 0.0752052488
C   C65       1.0  0.96880  0.32430  0.61200  1.0000 -0.0902902959
C   C66       1.0  0.26490  0.83160  0.18460  1.0000 -0.0985769248
C   C67       1.0  0.33880  0.85460  0.18370  1.0000 -0.0813884479
C   C68       1.0  0.01750  0.14650  0.90770  1.0000 -0.0813884479
C   C69       1.0  0.28580  0.96270  0.14940  1.0000 -0.1481990246
C   C70       1.0  0.34790  0.91890  0.16360  1.0000 -0.0985769248
C   C71       1.0  0.94800  0.48730  0.35350  1.0000 -0.2184330417
C   C72       1.0  0.20430  0.87320  0.16970  1.0000 -0.1337899184
C   C73       1.0  0.13080  0.01950  0.08830  1.0000 -0.1881436287
C   C74       1.0  0.21130  0.94000  0.15100  1.0000 0.0215301071
C   C75       1.0  0.14530  0.98430  0.13570  1.0000 0.0707145858
C   C76       1.0  0.01540  0.41770  0.42860  1.0000 -0.2126614128
C   C77       1.0  0.30950  0.68110  0.32070  1.0000 -0.6527164756
C   C78       1.0  0.04700  0.09000  0.01400  1.0000 0.0465377827
C   C79       1.0  0.34130  0.61300  0.30100  1.0000 0.3987507941
C   C80       1.0  0.06470  0.05750  0.07000  1.0000 0.0707145858
C   C81       1.0  0.97910  0.16460  0.94640  1.0000 -0.0813884479
C   C82       1.0  0.95590  0.41960  0.45510  1.0000 0.0707145858
C   C83       1.0  0.99370  0.13740  0.99790  1.0000 -0.1337899184
C   C84       1.0  0.09200  0.99000  0.17110  1.0000 -0.2126614128
C   C85       1.0  0.03000  0.03020  0.15390  1.0000 0.0465377827
C   C86       1.0  0.00450  0.33070  0.52380  1.0000 -0.1481990246
C   C87       1.0  0.07100  0.09460  0.92110  1.0000 -0.1114903307
C   C88       1.0  0.08550  0.06540  0.97240  1.0000 -0.1627069666
C   C89       1.0  0.76600  0.87190  0.15540  1.0000 -0.3136514305
C   C90       1.0  0.23170  0.56100  0.33370  1.0000 -0.3528432837
C   C91       1.0  0.65100  0.89660  0.18830  1.0000 0.390730639
C   C92       1.0  0.32570  0.48970  0.29080  1.0000 -0.3887426115
C   C93       1.0  0.59150  0.95340  0.19470  1.0000 -0.6297078906
C   C94       1.0  0.70940  0.98710  0.13510  1.0000 -0.3528432837
C   C95       1.0  0.01190  0.06310  0.10470  1.0000 -0.2126614128
C   C96       1.0  0.01120  0.45000  0.37940  1.0000 0.0401858057
C   C97       1.0  0.42030  0.11770  0.59650  1.0000 -0.1208869098
C   C98       1.0  0.24660  0.98880  0.35400  1.0000 -0.1337899184
C   C99       1.0  0.18380  0.94960  0.33060  1.0000 -0.0902902959
C   C100      1.0  0.26690  0.86190  0.31200  1.0000 -0.0813884479
C   C101      1.0  0.50230  0.32430  0.85160  1.0000 0.4513065935
C   C102      1.0  0.19230  0.88510  0.30880  1.0000 -0.0902902959
C   C103      1.0  0.38960  0.04130  0.43040  1.0000 -0.2431445299
C   C104      1.0  0.12800  0.84380  0.28370  1.0000 0.4405879201
C   C105      1.0  0.32040  0.96580  0.35590  1.0000 0.0215301071
C   C106      1.0  0.90490  0.69130  0.20340  1.0000 0.4670132784
C   C107      1.0  0.47280  0.20950  0.66530  1.0000 0.4670132784
C   C108      1.0  0.45830  0.11160  0.50830  1.0000 0.0215301071
C   C109      1.0  0.32960  0.90110  0.33490  1.0000 -0.1444575368
C   C110      1.0  0.41640  0.08810  0.54630  1.0000 -0.1337899184
C   C111      1.0  0.50760  0.19980  0.57390  1.0000 -0.0902902959
C   C112      1.0  0.38700  0.00680  0.37950  1.0000 0.0752052488
C   C113      1.0  0.46880  0.17570  0.61200  1.0000 -0.0902902959
C   C114      1.0  0.76490  0.66840  0.18460  1.0000 -0.0985769248
C   C115      1.0  0.83880  0.64540  0.18370  1.0000 -0.0813884479
C   C116      1.0  0.51750  0.35350  0.90770  1.0000 -0.0813884479
C   C117      1.0  0.78580  0.53730  0.14940  1.0000 -0.1481990246
C   C118      1.0  0.84790  0.58110  0.16360  1.0000 -0.0985769248
C   C119      1.0  0.44800  0.01270  0.35350  1.0000 -0.2184330417
C   C120      1.0  0.70430  0.62680  0.16970  1.0000 -0.1337899184
C   C121      1.0  0.63080  0.48050  0.08830  1.0000 -0.1881436287
C   C122      1.0  0.71130  0.56000  0.15100  1.0000 0.0107595057
C   C123      1.0  0.64530  0.51570  0.13570  1.0000 0.0707145858
C   C124      1.0  0.51540  0.08230  0.42860  1.0000 -0.2126614128
C   C125      1.0  0.80950  0.81890  0.32070  1.0000 -0.6527164756
C   C126      1.0  0.54700  0.41000  0.01400  1.0000 0.0465377827
C   C127      1.0  0.84130  0.88700  0.30100  1.0000 0.3987507941
C   C128      1.0  0.56470  0.44250  0.07000  1.0000 0.0707145858
C   C129      1.0  0.47910  0.33540  0.94640  1.0000 -0.0813884479
C   C130      1.0  0.45590  0.08040  0.45510  1.0000 0.0707145858
C   C131      1.0  0.49370  0.36260  0.99790  1.0000 -0.1337899184
C   C132      1.0  0.59200  0.51000  0.17110  1.0000 -0.2126614128
C   C133      1.0  0.53000  0.46980  0.15390  1.0000 0.0465377827
C   C134      1.0  0.50450  0.16930  0.52380  1.0000 -0.1481990246
C   C135      1.0  0.57100  0.40540  0.92110  1.0000 -0.1114903307
C   C136      1.0  0.58550  0.43460  0.97240  1.0000 -0.1627069666
C   C137      1.0  0.26600  0.62810  0.15540  1.0000 -0.3136514305
C   C138      1.0  0.73170  0.93900  0.33370  1.0000 -0.3528432837
C   C139      1.0  0.15100  0.60340  0.18830  1.0000 0.390730639
C   C140      1.0  0.82570  0.01030  0.29080  1.0000 -0.3887426115
C   C141      1.0  0.09150  0.54660  0.19470  1.0000 -0.6297078906
C   C142      1.0  0.20940  0.51290  0.13510  1.0000 -0.3528432837
C   C143      1.0  0.51190  0.43690  0.10470  1.0000 -0.2126614128
C   C144      1.0  0.51120  0.05000  0.37940  1.0000 0.0401858057
C   C145      1.0  0.07970  0.61770  0.40350  1.0000 -0.1208869098
C   C146      1.0  0.25340  0.48880  0.64600  1.0000 -0.1337899184
C   C147      1.0  0.31620  0.44960  0.66940  1.0000 -0.0902902959
C   C148      1.0  0.23310  0.36190  0.68800  1.0000 -0.0813884479
C   C149      1.0  0.99770  0.82430  0.14840  1.0000 0.4513065935
C   C150      1.0  0.30770  0.38510  0.69120  1.0000 -0.0902902959
C   C151      1.0  0.11040  0.54130  0.56960  1.0000 -0.2431445299
C   C152      1.0  0.37200  0.34380  0.71630  1.0000 0.4405879201
C   C153      1.0  0.17960  0.46580  0.64410  1.0000 0.0215301071
C   C154      1.0  0.59510  0.19130  0.79660  1.0000 0.4670132784
C   C155      1.0  0.02720  0.70950  0.33470  1.0000 0.4670132784
C   C156      1.0  0.04170  0.61160  0.49170  1.0000 0.0215301071
C   C157      1.0  0.17040  0.40110  0.66510  1.0000 -0.1444575368
C   C158      1.0  0.08360  0.58810  0.45370  1.0000 -0.1337899184
C   C159      1.0  0.99240  0.69980  0.42610  1.0000 -0.0902902959
C   C160      1.0  0.11300  0.50680  0.62050  1.0000 0.0752052488
C   C161      1.0  0.03120  0.67570  0.38800  1.0000 -0.0902902959
C   C162      1.0  0.73510  0.16840  0.81540  1.0000 -0.0985769248
C   C163      1.0  0.66120  0.14540  0.81630  1.0000 -0.0813884479
C   C164      1.0  0.98250  0.85350  0.09230  1.0000 -0.0813884479
C   C165      1.0  0.71420  0.03730  0.85060  1.0000 -0.1481990246
C   C166      1.0  0.65210  0.08110  0.83640  1.0000 -0.0985769248
C   C167      1.0  0.05200  0.51270  0.64650  1.0000 -0.2184330417
C   C168      1.0  0.79570  0.12680  0.83030  1.0000 -0.1337899184
C   C169      1.0  0.86920  0.98050  0.91170  1.0000 -0.1881436287
C   C170      1.0  0.78870  0.06000  0.84900  1.0000 0.0107595057
C   C171      1.0  0.85470  0.01570  0.86430  1.0000 0.0707145858
C   C172      1.0  0.98460  0.58230  0.57140  1.0000 -0.2126614128
C   C173      1.0  0.69050  0.31890  0.67930  1.0000 -0.6527164756
C   C174      1.0  0.95300  0.91000  0.98600  1.0000 0.0401858057
C   C175      1.0  0.65870  0.38700  0.69900  1.0000 0.3987507941
C   C176      1.0  0.93530  0.94250  0.93000  1.0000 0.0707145858
C   C177      1.0  0.02090  0.83540  0.05360  1.0000 -0.0813884479
C   C178      1.0  0.04410  0.58040  0.54490  1.0000 0.0707145858
C   C179      1.0  0.00630  0.86260  0.00210  1.0000 -0.1337899184
C   C180      1.0  0.90800  0.01000  0.82890  1.0000 -0.2126614128
C   C181      1.0  0.97000  0.96980  0.84610  1.0000 0.0465377827
C   C182      1.0  0.99550  0.66930  0.47620  1.0000 -0.1481990246
C   C183      1.0  0.92900  0.90540  0.07890  1.0000 -0.1114903307
C   C184      1.0  0.91450  0.93460  0.02760  1.0000 -0.1627069666
C   C185      1.0  0.23400  0.12810  0.84460  1.0000 -0.3136514305
C   C186      1.0  0.76830  0.43900  0.66630  1.0000 -0.3528432837
C   C187      1.0  0.34900  0.10340  0.81170  1.0000 0.390730639
C   C188      1.0  0.67430  0.51030  0.70920  1.0000 -0.3887426115
C   C189      1.0  0.40850  0.04660  0.80530  1.0000 -0.6297078906
C   C190      1.0  0.29060  0.01290  0.86490  1.0000 -0.3528432837
C   C191      1.0  0.98810  0.93690  0.89530  1.0000 -0.2126614128
C   C192      1.0  0.98880  0.55000  0.62060  1.0000 0.0401858057
N   N1        1.0  0.19950  0.05870  0.69080  1.0000 0.0215301071
N   N2        1.0  0.79090  0.41920  0.83630  1.0000 0.0107595057
N   N3        1.0  0.52650  0.53510  0.80960  1.0000 0.4670132784
N   N4        1.0  0.42520  0.94740  0.64860  1.0000 0.4316454651
N   N5        1.0  0.30050  0.55870  0.30920  1.0000 0.0215301071
N   N6        1.0  0.70910  0.91920  0.16370  1.0000 0.0107595057
N   N7        1.0  0.97350  0.03510  0.19040  1.0000 0.461727214
N   N8        1.0  0.07480  0.44740  0.35140  1.0000 0.4316454651
N   N9        1.0  0.80050  0.94130  0.30920  1.0000 0.0215301071
N   N10       1.0  0.20910  0.58080  0.16370  1.0000 0.0107595057
N   N11       1.0  0.47350  0.46490  0.19040  1.0000 0.461727214
N   N12       1.0  0.57480  0.05260  0.35140  1.0000 0.4316454651
N   N13       1.0  0.69950  0.44130  0.69080  1.0000 0.0215301071
N   N14       1.0  0.29090  0.08080  0.83630  1.0000 0.0107595057
N   N15       1.0  0.02650  0.96490  0.80960  1.0000 0.461727214
N   N16       1.0  0.92520  0.55260  0.64860  1.0000 0.4316454651
O   O1        1.0  0.10860  0.25400  0.77422  1.0000 -0.3887426115
O   O2        1.0  0.48890  0.73720  0.32602  1.0000 -0.3697399426
O   O3        1.0  0.03090  0.32950  0.80240  1.0000 -0.3800814567
O   O4        1.0  0.93800  0.13250  0.71716  1.0000 -0.3697399426
O   O5        1.0  0.85940  0.21360  0.73553  1.0000 -0.3697399426
O   O6        1.0  0.54440  0.72470  0.15920  1.0000 -0.3887426115
O   O7        1.0  0.85460  0.33960  0.79710  1.0000 -0.3414816587
O   O8        1.0  0.46160  0.64950  0.18260  1.0000 -0.3887426115
O   O9        1.0  0.10510  0.11140  0.71980  1.0000 -0.3219895838
O   O10       1.0  0.56130  0.81930  0.30060  1.0000 -0.3800814567
O   O11       1.0  0.50300  0.52310  0.76030  1.0000 -0.2184330417
O   O12       1.0  0.43180  0.96800  0.69520  1.0000 -0.2285295902
O   O13       1.0  0.36390  0.92590  0.62100  1.0000 -0.2027011505
O   O14       1.0  0.59110  0.55020  0.83040  1.0000 -0.2184330417
O   O15       1.0  0.39140  0.75400  0.22578  1.0000 -0.3887426115
O   O16       1.0  0.01110  0.23720  0.67398  1.0000 -0.3697399426
O   O17       1.0  0.46910  0.82950  0.19760  1.0000 -0.3800814567
O   O18       1.0  0.56200  0.63250  0.28284  1.0000 -0.3697399426
O   O19       1.0  0.64060  0.71360  0.26447  1.0000 -0.3697399426
O   O20       1.0  0.95560  0.22470  0.84080  1.0000 -0.3887426115
O   O21       1.0  0.64540  0.83960  0.20290  1.0000 -0.3414816587
O   O22       1.0  0.03840  0.14950  0.81740  1.0000 -0.3800814567
O   O23       1.0  0.39490  0.61140  0.28020  1.0000 -0.3219895838
O   O24       1.0  0.93870  0.31930  0.69940  1.0000 -0.3800814567
O   O25       1.0  0.99700  0.02310  0.23970  1.0000 -0.2184330417
O   O26       1.0  0.06820  0.46800  0.30480  1.0000 -0.2285295902
O   O27       1.0  0.13610  0.42590  0.37900  1.0000 -0.2027011505
O   O28       1.0  0.90890  0.05020  0.16960  1.0000 -0.2184330417
O   O29       1.0  0.89140  0.74600  0.22578  1.0000 -0.3887426115
O   O30       1.0  0.51110  0.26280  0.67398  1.0000 -0.3697399426
O   O31       1.0  0.96910  0.67050  0.19760  1.0000 -0.3800814567
O   O32       1.0  0.06200  0.86750  0.28284  1.0000 -0.3697399426
O   O33       1.0  0.14060  0.78640  0.26447  1.0000 -0.3697399426
O   O34       1.0  0.45560  0.27530  0.84080  1.0000 -0.3887426115
O   O35       1.0  0.14540  0.66040  0.20290  1.0000 -0.3414816587
O   O36       1.0  0.53840  0.35050  0.81740  1.0000 -0.3800814567
O   O37       1.0  0.89490  0.88860  0.28020  1.0000 -0.3219895838
O   O38       1.0  0.43870  0.18070  0.69940  1.0000 -0.3800814567
O   O39       1.0  0.49700  0.47690  0.23970  1.0000 -0.2184330417
O   O40       1.0  0.56820  0.03200  0.30480  1.0000 -0.2285295902
O   O41       1.0  0.63610  0.07410  0.37900  1.0000 -0.2027011505
O   O42       1.0  0.40890  0.44980  0.16960  1.0000 -0.2184330417
O   O43       1.0  0.60860  0.24600  0.77422  1.0000 -0.3887426115
O   O44       1.0  0.98890  0.76280  0.32602  1.0000 -0.3697399426
O   O45       1.0  0.53090  0.17050  0.80240  1.0000 -0.3800814567
O   O46       1.0  0.43800  0.36750  0.71716  1.0000 -0.3697399426
O   O47       1.0  0.35940  0.28640  0.73553  1.0000 -0.3697399426
O   O48       1.0  0.04440  0.77530  0.15920  1.0000 -0.3887426115
O   O49       1.0  0.35460  0.16040  0.79710  1.0000 -0.3414816587
O   O50       1.0  0.96160  0.85050  0.18260  1.0000 -0.3887426115
O   O51       1.0  0.60510  0.38860  0.71980  1.0000 -0.3219895838
O   O52       1.0  0.06130  0.68070  0.30060  1.0000 -0.3800814567
O   O53       1.0  0.00300  0.97690  0.76030  1.0000 -0.2126614128
O   O54       1.0  0.93180  0.53200  0.69520  1.0000 -0.2285295902
O   O55       1.0  0.86390  0.57410  0.62100  1.0000 -0.2027011505
O   O56       1.0  0.09110  0.94980  0.83040  1.0000 -0.2184330417
