# DDEC6 charges by PACMAN v1.1 (https://github.com/mtap-research/PACMAN-charge/)
data_2020[Cu][nan]3[FSR]6
_chemical_formula_sum              "Cu6 H264 C372 N24"
_cell_length_a       26.14
_cell_length_b       26.14
_cell_length_c       18.09
_cell_angle_alpha    90
_cell_angle_beta     90
_cell_angle_gamma    120

_symmetry_space_group_name_H-M    "P 1"
_symmetry_Int_Tables_number       1

loop_
  _symmetry_equiv_pos_as_xyz
  'x, y, z'

loop_
  _atom_site_type_symbol
  _atom_site_label
  _atom_site_symmetry_multiplicity
  _atom_site_fract_x
  _atom_site_fract_y
  _atom_site_fract_z
  _atom_site_occupancy
  _atom_site_charge
Cu  Cu1       1.0  0.33161  0.33161  0.00000  1.0000 0.1903572375
Cu  Cu2       1.0  1.00000  0.66839  0.00000  1.0000 0.1903572375
Cu  Cu3       1.0  0.66839  0.00000  0.00000  1.0000 0.1903572375
Cu  Cu4       1.0  0.66839  0.66839  0.00000  1.0000 0.1903572375
Cu  Cu5       1.0  0.00000  0.33161  0.00000  1.0000 0.1903572375
Cu  Cu6       1.0  0.33161  0.00000  0.00000  1.0000 0.1903572375
H   H1        1.0  0.22177  0.25161  0.91345  1.0000 0.0987889646
H   H2        1.0  0.36738  0.24779  0.95313  1.0000 0.0936436643
H   H3        1.0  0.18921  0.17078  0.83648  1.0000 0.1385698598
H   H4        1.0  0.33697  0.16686  0.87513  1.0000 0.1312325306
H   H5        1.0  0.14956  0.02748  0.65013  1.0000 0.1193558097
H   H6        1.0  0.29081  0.02027  0.72535  1.0000 0.1095925901
H   H7        1.0  0.13148  0.95445  0.56720  1.0000 0.1193558097
H   H8        1.0  0.27021  0.94424  0.64728  1.0000 0.1193558097
H   H9        1.0  0.20565  0.84416  0.62697  1.0000 0.0936436643
H   H10       1.0  0.13745  0.82612  0.63058  1.0000 0.0987889646
H   H11       1.0  0.09650  0.86207  0.53246  1.0000 0.0987889646
H   H12       1.0  0.27113  0.91106  0.52633  1.0000 0.0987889646
H   H13       1.0  0.24435  0.93438  0.46370  1.0000 0.1095925901
H   H14       1.0  0.19640  0.75885  0.46985  1.0000 0.0936436643
H   H15       1.0  0.14767  0.76738  0.69957  1.0000 0.1095925901
H   H16       1.0  0.13565  0.67449  0.51664  1.0000 0.1193558097
H   H17       1.0  0.12300  0.68612  0.77330  1.0000 0.1095925901
H   H18       1.0  0.11285  0.59206  0.58850  1.0000 0.1193558097
H   H19       1.0  0.10560  0.54335  0.92252  1.0000 0.1312325306
H   H20       1.0  0.03162  0.42752  0.75801  1.0000 0.1385698598
H   H21       1.0  0.08048  0.46221  0.00464  1.0000 0.0987889646
H   H22       1.0  0.99526  0.35141  0.84421  1.0000 0.0987889646
H   H23       1.0  0.02984  0.77823  0.91345  1.0000 0.0987889646
H   H24       1.0  0.88041  0.63262  0.95313  1.0000 0.0936436643
H   H25       1.0  0.98157  0.81079  0.83648  1.0000 0.1385698598
H   H26       1.0  0.82989  0.66303  0.87513  1.0000 0.1312325306
H   H27       1.0  0.87792  0.85044  0.65013  1.0000 0.1193558097
H   H28       1.0  0.72946  0.70919  0.72535  1.0000 0.1095925901
H   H29       1.0  0.82297  0.86852  0.56720  1.0000 0.1193558097
H   H30       1.0  0.67403  0.72979  0.64728  1.0000 0.1193558097
H   H31       1.0  0.63851  0.79435  0.62697  1.0000 0.0936436643
H   H32       1.0  0.68867  0.86255  0.63058  1.0000 0.0987889646
H   H33       1.0  0.76557  0.90350  0.53246  1.0000 0.0987889646
H   H34       1.0  0.63993  0.72887  0.52633  1.0000 0.0987889646
H   H35       1.0  0.69003  0.75565  0.46370  1.0000 0.1095925901
H   H36       1.0  0.56245  0.80360  0.46985  1.0000 0.0936436643
H   H37       1.0  0.61971  0.85233  0.69957  1.0000 0.1095925901
H   H38       1.0  0.53884  0.86435  0.51664  1.0000 0.1193558097
H   H39       1.0  0.56312  0.87700  0.77330  1.0000 0.1095925901
H   H40       1.0  0.47921  0.88715  0.58850  1.0000 0.1193558097
H   H41       1.0  0.43775  0.89440  0.92252  1.0000 0.1312325306
H   H42       1.0  0.39590  0.96838  0.75801  1.0000 0.1385698598
H   H43       1.0  0.38173  0.91952  0.00464  1.0000 0.0987889646
H   H44       1.0  0.35615  0.00474  0.84421  1.0000 0.0987889646
H   H45       1.0  0.74839  0.97016  0.91345  1.0000 0.0987889646
H   H46       1.0  0.75221  0.11959  0.95313  1.0000 0.0936436643
H   H47       1.0  0.82922  0.01843  0.83648  1.0000 0.1385698598
H   H48       1.0  0.83314  0.17011  0.87513  1.0000 0.1312325306
H   H49       1.0  0.97252  0.12208  0.65013  1.0000 0.1193558097
H   H50       1.0  0.97973  0.27054  0.72535  1.0000 0.1095925901
H   H51       1.0  0.04555  0.17703  0.56720  1.0000 0.1193558097
H   H52       1.0  0.05576  0.32597  0.64728  1.0000 0.1193558097
H   H53       1.0  0.15584  0.36149  0.62697  1.0000 0.0936436643
H   H54       1.0  0.17388  0.31133  0.63058  1.0000 0.0987889646
H   H55       1.0  0.13793  0.23443  0.53246  1.0000 0.0987889646
H   H56       1.0  0.08894  0.36007  0.52633  1.0000 0.0987889646
H   H57       1.0  0.06562  0.30997  0.46370  1.0000 0.1095925901
H   H58       1.0  0.24115  0.43755  0.46985  1.0000 0.0936436643
H   H59       1.0  0.23262  0.38029  0.69957  1.0000 0.1095925901
H   H60       1.0  0.32551  0.46116  0.51664  1.0000 0.1193558097
H   H61       1.0  0.31388  0.43688  0.77330  1.0000 0.1095925901
H   H62       1.0  0.40794  0.52079  0.58850  1.0000 0.1193558097
H   H63       1.0  0.45665  0.56225  0.92252  1.0000 0.1312325306
H   H64       1.0  0.57248  0.60410  0.75801  1.0000 0.1385698598
H   H65       1.0  0.53779  0.61827  0.00464  1.0000 0.0987889646
H   H66       1.0  0.64859  0.64385  0.84421  1.0000 0.0987889646
H   H67       1.0  0.77823  0.74839  0.91345  1.0000 0.0987889646
H   H68       1.0  0.63262  0.75221  0.95313  1.0000 0.0936436643
H   H69       1.0  0.81079  0.82922  0.83648  1.0000 0.1385698598
H   H70       1.0  0.66303  0.83314  0.87513  1.0000 0.1312325306
H   H71       1.0  0.85044  0.97252  0.65013  1.0000 0.1193558097
H   H72       1.0  0.70919  0.97973  0.72535  1.0000 0.1095925901
H   H73       1.0  0.86852  0.04555  0.56720  1.0000 0.1193558097
H   H74       1.0  0.72979  0.05576  0.64728  1.0000 0.1193558097
H   H75       1.0  0.79435  0.15584  0.62697  1.0000 0.0936436643
H   H76       1.0  0.86255  0.17388  0.63058  1.0000 0.0987889646
H   H77       1.0  0.90350  0.13793  0.53246  1.0000 0.0987889646
H   H78       1.0  0.72887  0.08894  0.52633  1.0000 0.0987889646
H   H79       1.0  0.75565  0.06562  0.46370  1.0000 0.1095925901
H   H80       1.0  0.80360  0.24115  0.46985  1.0000 0.0936436643
H   H81       1.0  0.85233  0.23262  0.69957  1.0000 0.1095925901
H   H82       1.0  0.86435  0.32551  0.51664  1.0000 0.1193558097
H   H83       1.0  0.87700  0.31388  0.77330  1.0000 0.1095925901
H   H84       1.0  0.88715  0.40794  0.58850  1.0000 0.1193558097
H   H85       1.0  0.89440  0.45665  0.92252  1.0000 0.1312325306
H   H86       1.0  0.96838  0.57248  0.75801  1.0000 0.1385698598
H   H87       1.0  0.91952  0.53779  0.00464  1.0000 0.0987889646
H   H88       1.0  0.00474  0.64859  0.84421  1.0000 0.0987889646
H   H89       1.0  0.97016  0.22177  0.91345  1.0000 0.0987889646
H   H90       1.0  0.11959  0.36738  0.95313  1.0000 0.0936436643
H   H91       1.0  0.01843  0.18921  0.83648  1.0000 0.1385698598
H   H92       1.0  0.17011  0.33697  0.87513  1.0000 0.1312325306
H   H93       1.0  0.12208  0.14956  0.65013  1.0000 0.1193558097
H   H94       1.0  0.27054  0.29081  0.72535  1.0000 0.1095925901
H   H95       1.0  0.17703  0.13148  0.56720  1.0000 0.1193558097
H   H96       1.0  0.32597  0.27021  0.64728  1.0000 0.1193558097
H   H97       1.0  0.36149  0.20565  0.62697  1.0000 0.0936436643
H   H98       1.0  0.31133  0.13745  0.63058  1.0000 0.0987889646
H   H99       1.0  0.23443  0.09650  0.53246  1.0000 0.0987889646
H   H100      1.0  0.36007  0.27113  0.52633  1.0000 0.0987889646
H   H101      1.0  0.30997  0.24435  0.46370  1.0000 0.1095925901
H   H102      1.0  0.43755  0.19640  0.46985  1.0000 0.0936436643
H   H103      1.0  0.38029  0.14767  0.69957  1.0000 0.1095925901
H   H104      1.0  0.46116  0.13565  0.51664  1.0000 0.1193558097
H   H105      1.0  0.43688  0.12300  0.77330  1.0000 0.1095925901
H   H106      1.0  0.52079  0.11285  0.58850  1.0000 0.1193558097
H   H107      1.0  0.56225  0.10560  0.92252  1.0000 0.1312325306
H   H108      1.0  0.60410  0.03162  0.75801  1.0000 0.1385698598
H   H109      1.0  0.61827  0.08048  0.00464  1.0000 0.0987889646
H   H110      1.0  0.64385  0.99526  0.84421  1.0000 0.0987889646
H   H111      1.0  0.25161  0.02984  0.91345  1.0000 0.0987889646
H   H112      1.0  0.24779  0.88041  0.95313  1.0000 0.0936436643
H   H113      1.0  0.17078  0.98157  0.83648  1.0000 0.1385698598
H   H114      1.0  0.16686  0.82989  0.87513  1.0000 0.1312325306
H   H115      1.0  0.02748  0.87792  0.65013  1.0000 0.1193558097
H   H116      1.0  0.02027  0.72946  0.72535  1.0000 0.1095925901
H   H117      1.0  0.95445  0.82297  0.56720  1.0000 0.1193558097
H   H118      1.0  0.94424  0.67403  0.64728  1.0000 0.1193558097
H   H119      1.0  0.84416  0.63851  0.62697  1.0000 0.0936436643
H   H120      1.0  0.82612  0.68867  0.63058  1.0000 0.0987889646
H   H121      1.0  0.86207  0.76557  0.53246  1.0000 0.0987889646
H   H122      1.0  0.91106  0.63993  0.52633  1.0000 0.0987889646
H   H123      1.0  0.93438  0.69003  0.46370  1.0000 0.1095925901
H   H124      1.0  0.75885  0.56245  0.46985  1.0000 0.0936436643
H   H125      1.0  0.76738  0.61971  0.69957  1.0000 0.1095925901
H   H126      1.0  0.67449  0.53884  0.51664  1.0000 0.1193558097
H   H127      1.0  0.68612  0.56312  0.77330  1.0000 0.1095925901
H   H128      1.0  0.59206  0.47921  0.58850  1.0000 0.1193558097
H   H129      1.0  0.54335  0.43775  0.92252  1.0000 0.1312325306
H   H130      1.0  0.42752  0.39590  0.75801  1.0000 0.1385698598
H   H131      1.0  0.46221  0.38173  0.00464  1.0000 0.0987889646
H   H132      1.0  0.35141  0.35615  0.84421  1.0000 0.0987889646
H   H133      1.0  0.97016  0.74839  0.08655  1.0000 0.0987889646
H   H134      1.0  0.11959  0.75221  0.04687  1.0000 0.0936436643
H   H135      1.0  0.01843  0.82922  0.16352  1.0000 0.1385698598
H   H136      1.0  0.17011  0.83314  0.12487  1.0000 0.1312325306
H   H137      1.0  0.12208  0.97252  0.34987  1.0000 0.1193558097
H   H138      1.0  0.27054  0.97973  0.27465  1.0000 0.1095925901
H   H139      1.0  0.17703  0.04555  0.43280  1.0000 0.1193558097
H   H140      1.0  0.32597  0.05576  0.35272  1.0000 0.1193558097
H   H141      1.0  0.36149  0.15584  0.37303  1.0000 0.0936436643
H   H142      1.0  0.31133  0.17388  0.36942  1.0000 0.0987889646
H   H143      1.0  0.23443  0.13793  0.46754  1.0000 0.0987889646
H   H144      1.0  0.36007  0.08894  0.47367  1.0000 0.0987889646
H   H145      1.0  0.30997  0.06562  0.53630  1.0000 0.1095925901
H   H146      1.0  0.43755  0.24115  0.53015  1.0000 0.0936436643
H   H147      1.0  0.38029  0.23262  0.30043  1.0000 0.1095925901
H   H148      1.0  0.46116  0.32551  0.48336  1.0000 0.1193558097
H   H149      1.0  0.43688  0.31388  0.22670  1.0000 0.1095925901
H   H150      1.0  0.52079  0.40794  0.41150  1.0000 0.1193558097
H   H151      1.0  0.56225  0.45665  0.07748  1.0000 0.1312325306
H   H152      1.0  0.60410  0.57248  0.24199  1.0000 0.1385698598
H   H153      1.0  0.61827  0.53779  0.99536  1.0000 0.0987889646
H   H154      1.0  0.64385  0.64859  0.15579  1.0000 0.0987889646
H   H155      1.0  0.25161  0.22177  0.08655  1.0000 0.0987889646
H   H156      1.0  0.24779  0.36738  0.04687  1.0000 0.0936436643
H   H157      1.0  0.17078  0.18921  0.16352  1.0000 0.1385698598
H   H158      1.0  0.16686  0.33697  0.12487  1.0000 0.1312325306
H   H159      1.0  0.02748  0.14956  0.34987  1.0000 0.1193558097
H   H160      1.0  0.02027  0.29081  0.27465  1.0000 0.1095925901
H   H161      1.0  0.95445  0.13148  0.43280  1.0000 0.1193558097
H   H162      1.0  0.94424  0.27021  0.35272  1.0000 0.1193558097
H   H163      1.0  0.84416  0.20565  0.37303  1.0000 0.0936436643
H   H164      1.0  0.82612  0.13745  0.36942  1.0000 0.0987889646
H   H165      1.0  0.86207  0.09650  0.46754  1.0000 0.0987889646
H   H166      1.0  0.91106  0.27113  0.47367  1.0000 0.0987889646
H   H167      1.0  0.93438  0.24435  0.53630  1.0000 0.1095925901
H   H168      1.0  0.75885  0.19640  0.53015  1.0000 0.0936436643
H   H169      1.0  0.76738  0.14767  0.30043  1.0000 0.1095925901
H   H170      1.0  0.67449  0.13565  0.48336  1.0000 0.1193558097
H   H171      1.0  0.68612  0.12300  0.22670  1.0000 0.1095925901
H   H172      1.0  0.59206  0.11285  0.41150  1.0000 0.1193558097
H   H173      1.0  0.54335  0.10560  0.07748  1.0000 0.1312325306
H   H174      1.0  0.42752  0.03162  0.24199  1.0000 0.1385698598
H   H175      1.0  0.46221  0.08048  0.99536  1.0000 0.0987889646
H   H176      1.0  0.35141  0.99526  0.15579  1.0000 0.0987889646
H   H177      1.0  0.77823  0.02984  0.08655  1.0000 0.0987889646
H   H178      1.0  0.63262  0.88041  0.04687  1.0000 0.0936436643
H   H179      1.0  0.81079  0.98157  0.16352  1.0000 0.1385698598
H   H180      1.0  0.66303  0.82989  0.12487  1.0000 0.1312325306
H   H181      1.0  0.85044  0.87792  0.34987  1.0000 0.1193558097
H   H182      1.0  0.70919  0.72946  0.27465  1.0000 0.1095925901
H   H183      1.0  0.86852  0.82297  0.43280  1.0000 0.1193558097
H   H184      1.0  0.72979  0.67403  0.35272  1.0000 0.1193558097
H   H185      1.0  0.79435  0.63851  0.37303  1.0000 0.0936436643
H   H186      1.0  0.86255  0.68867  0.36942  1.0000 0.0987889646
H   H187      1.0  0.90350  0.76557  0.46754  1.0000 0.0987889646
H   H188      1.0  0.72887  0.63993  0.47367  1.0000 0.0987889646
H   H189      1.0  0.75565  0.69003  0.53630  1.0000 0.1095925901
H   H190      1.0  0.80360  0.56245  0.53015  1.0000 0.0936436643
H   H191      1.0  0.85233  0.61971  0.30043  1.0000 0.1095925901
H   H192      1.0  0.86435  0.53884  0.48336  1.0000 0.1193558097
H   H193      1.0  0.87700  0.56312  0.22670  1.0000 0.1095925901
H   H194      1.0  0.88715  0.47921  0.41150  1.0000 0.1193558097
H   H195      1.0  0.89440  0.43775  0.07748  1.0000 0.1312325306
H   H196      1.0  0.96838  0.39590  0.24199  1.0000 0.1385698598
H   H197      1.0  0.91952  0.38173  0.99536  1.0000 0.0987889646
H   H198      1.0  0.00474  0.35615  0.15579  1.0000 0.0987889646
H   H199      1.0  0.02984  0.25161  0.08655  1.0000 0.0987889646
H   H200      1.0  0.88041  0.24779  0.04687  1.0000 0.0936436643
H   H201      1.0  0.98157  0.17078  0.16352  1.0000 0.1385698598
H   H202      1.0  0.82989  0.16686  0.12487  1.0000 0.1312325306
H   H203      1.0  0.87792  0.02748  0.34987  1.0000 0.1193558097
H   H204      1.0  0.72946  0.02027  0.27465  1.0000 0.1095925901
H   H205      1.0  0.82297  0.95445  0.43280  1.0000 0.1193558097
H   H206      1.0  0.67403  0.94424  0.35272  1.0000 0.1193558097
H   H207      1.0  0.63851  0.84416  0.37303  1.0000 0.0936436643
H   H208      1.0  0.68867  0.82612  0.36942  1.0000 0.0987889646
H   H209      1.0  0.76557  0.86207  0.46754  1.0000 0.0987889646
H   H210      1.0  0.63993  0.91106  0.47367  1.0000 0.0987889646
H   H211      1.0  0.69003  0.93438  0.53630  1.0000 0.1095925901
H   H212      1.0  0.56245  0.75885  0.53015  1.0000 0.0936436643
H   H213      1.0  0.61971  0.76738  0.30043  1.0000 0.1095925901
H   H214      1.0  0.53884  0.67449  0.48336  1.0000 0.1193558097
H   H215      1.0  0.56312  0.68612  0.22670  1.0000 0.1095925901
H   H216      1.0  0.47921  0.59206  0.41150  1.0000 0.1193558097
H   H217      1.0  0.43775  0.54335  0.07748  1.0000 0.1312325306
H   H218      1.0  0.39590  0.42752  0.24199  1.0000 0.1385698598
H   H219      1.0  0.38173  0.46221  0.99536  1.0000 0.0987889646
H   H220      1.0  0.35615  0.35141  0.15579  1.0000 0.0987889646
H   H221      1.0  0.74839  0.77823  0.08655  1.0000 0.0987889646
H   H222      1.0  0.75221  0.63262  0.04687  1.0000 0.0936436643
H   H223      1.0  0.82922  0.81079  0.16352  1.0000 0.1385698598
H   H224      1.0  0.83314  0.66303  0.12487  1.0000 0.1312325306
H   H225      1.0  0.97252  0.85044  0.34987  1.0000 0.1193558097
H   H226      1.0  0.97973  0.70919  0.27465  1.0000 0.1095925901
H   H227      1.0  0.04555  0.86852  0.43280  1.0000 0.1193558097
H   H228      1.0  0.05576  0.72979  0.35272  1.0000 0.1193558097
H   H229      1.0  0.15584  0.79435  0.37303  1.0000 0.0936436643
H   H230      1.0  0.17388  0.86255  0.36942  1.0000 0.0987889646
H   H231      1.0  0.13793  0.90350  0.46754  1.0000 0.0987889646
H   H232      1.0  0.08894  0.72887  0.47367  1.0000 0.0987889646
H   H233      1.0  0.06562  0.75565  0.53630  1.0000 0.1095925901
H   H234      1.0  0.24115  0.80360  0.53015  1.0000 0.0936436643
H   H235      1.0  0.23262  0.85233  0.30043  1.0000 0.1095925901
H   H236      1.0  0.32551  0.86435  0.48336  1.0000 0.1193558097
H   H237      1.0  0.31388  0.87700  0.22670  1.0000 0.1095925901
H   H238      1.0  0.40794  0.88715  0.41150  1.0000 0.1193558097
H   H239      1.0  0.45665  0.89440  0.07748  1.0000 0.1312325306
H   H240      1.0  0.57248  0.96838  0.24199  1.0000 0.1385698598
H   H241      1.0  0.53779  0.91952  0.99536  1.0000 0.0987889646
H   H242      1.0  0.64859  0.00474  0.15579  1.0000 0.0987889646
H   H243      1.0  0.22177  0.97016  0.08655  1.0000 0.0987889646
H   H244      1.0  0.36738  0.11959  0.04687  1.0000 0.0936436643
H   H245      1.0  0.18921  0.01843  0.16352  1.0000 0.1385698598
H   H246      1.0  0.33697  0.17011  0.12487  1.0000 0.1312325306
H   H247      1.0  0.14956  0.12208  0.34987  1.0000 0.1193558097
H   H248      1.0  0.29081  0.27054  0.27465  1.0000 0.1095925901
H   H249      1.0  0.13148  0.17703  0.43280  1.0000 0.1193558097
H   H250      1.0  0.27021  0.32597  0.35272  1.0000 0.1193558097
H   H251      1.0  0.20565  0.36149  0.37303  1.0000 0.0936436643
H   H252      1.0  0.13745  0.31133  0.36942  1.0000 0.0987889646
H   H253      1.0  0.09650  0.23443  0.46754  1.0000 0.0987889646
H   H254      1.0  0.27113  0.36007  0.47367  1.0000 0.0987889646
H   H255      1.0  0.24435  0.30997  0.53630  1.0000 0.1095925901
H   H256      1.0  0.19640  0.43755  0.53015  1.0000 0.0936436643
H   H257      1.0  0.14767  0.38029  0.30043  1.0000 0.1095925901
H   H258      1.0  0.13565  0.46116  0.48336  1.0000 0.1193558097
H   H259      1.0  0.12300  0.43688  0.22670  1.0000 0.1095925901
H   H260      1.0  0.11285  0.52079  0.41150  1.0000 0.1193558097
H   H261      1.0  0.10560  0.56225  0.07748  1.0000 0.1312325306
H   H262      1.0  0.03162  0.60410  0.24199  1.0000 0.1385698598
H   H263      1.0  0.08048  0.61827  0.99536  1.0000 0.0987889646
H   H264      1.0  0.99526  0.64385  0.15579  1.0000 0.0987889646
C   C1        1.0  0.24590  0.23440  0.90600  1.0000 0.0318605605
C   C2        1.0  0.33030  0.23210  0.92880  1.0000 0.0516142995
C   C3        1.0  0.22700  0.18670  0.85900  1.0000 -0.1934513368
C   C4        1.0  0.31270  0.18410  0.88140  1.0000 -0.2120591507
C   C5        1.0  0.26030  0.16170  0.84410  1.0000 0.1557603721
C   C6        1.0  0.24550  0.11620  0.79370  1.0000 -0.107512569
C   C7        1.0  0.23670  0.07880  0.74750  1.0000 -0.0931071881
C   C8        1.0  0.22410  0.03150  0.69680  1.0000 0.0987889646
C   C9        1.0  0.17460  0.01090  0.64840  1.0000 -0.1425299191
C   C10       1.0  0.25760  0.00630  0.69350  1.0000 -0.1277472817
C   C11       1.0  0.16390  0.96730  0.60020  1.0000 -0.1504702897
C   C12       1.0  0.24590  0.96170  0.64670  1.0000 -0.1504702897
C   C13       1.0  0.19790  0.94040  0.59670  1.0000 0.0516142995
C   C14       1.0  0.18330  0.88730  0.54710  1.0000 0.1685346074
C   C15       1.0  0.17040  0.83430  0.59660  1.0000 -0.3061986253
C   C16       1.0  0.23560  0.90050  0.49610  1.0000 -0.3035913835
C   C17       1.0  0.15420  0.77950  0.55140  1.0000 0.1685346074
C   C18       1.0  0.14210  0.72590  0.60030  1.0000 0.0516142995
C   C19       1.0  0.13970  0.73100  0.67790  1.0000 -0.1576179656
C   C20       1.0  0.13300  0.67640  0.56880  1.0000 -0.1425299191
C   C21       1.0  0.12590  0.68300  0.72130  1.0000 -0.1576179656
C   C22       1.0  0.11970  0.62760  0.61170  1.0000 -0.1504702897
C   C23       1.0  0.11600  0.62970  0.69160  1.0000 0.1193558097
C   C24       1.0  0.10280  0.58150  0.73930  1.0000 -0.080357577
C   C25       1.0  0.08950  0.54250  0.78300  1.0000 -0.0991021015
C   C26       1.0  0.07010  0.49400  0.83090  1.0000 0.1538274184
C   C27       1.0  0.08410  0.50390  0.90460  1.0000 -0.2200068266
C   C28       1.0  0.03930  0.43660  0.80910  1.0000 -0.2120591507
C   C29       1.0  0.06680  0.45550  0.95500  1.0000 0.0430524589
C   C30       1.0  0.01880  0.39100  0.86060  1.0000 0.0767182392
C   C31       1.0  0.98850  0.75410  0.90600  1.0000 0.0318605605
C   C32       1.0  0.90180  0.66970  0.92880  1.0000 0.0516142995
C   C33       1.0  0.95970  0.77300  0.85900  1.0000 -0.1934513368
C   C34       1.0  0.87140  0.68730  0.88140  1.0000 -0.2120591507
C   C35       1.0  0.90140  0.73970  0.84410  1.0000 0.1557603721
C   C36       1.0  0.87070  0.75450  0.79370  1.0000 -0.107512569
C   C37       1.0  0.84210  0.76330  0.74750  1.0000 -0.0931071881
C   C38       1.0  0.80740  0.77590  0.69680  1.0000 0.0987889646
C   C39       1.0  0.83630  0.82540  0.64840  1.0000 -0.1425299191
C   C40       1.0  0.74870  0.74240  0.69350  1.0000 -0.1277472817
C   C41       1.0  0.80340  0.83610  0.60020  1.0000 -0.1504702897
C   C42       1.0  0.71580  0.75410  0.64670  1.0000 -0.1504702897
C   C43       1.0  0.74250  0.80210  0.59670  1.0000 0.0516142995
C   C44       1.0  0.70400  0.81670  0.54710  1.0000 0.1685346074
C   C45       1.0  0.66390  0.82960  0.59660  1.0000 -0.3035913835
C   C46       1.0  0.66490  0.76440  0.49610  1.0000 -0.3035913835
C   C47       1.0  0.62530  0.84580  0.55140  1.0000 0.1685346074
C   C48       1.0  0.58380  0.85790  0.60030  1.0000 0.0516142995
C   C49       1.0  0.59130  0.86030  0.67790  1.0000 -0.1576179656
C   C50       1.0  0.54340  0.86700  0.56880  1.0000 -0.1425299191
C   C51       1.0  0.55710  0.87410  0.72130  1.0000 -0.1576179656
C   C52       1.0  0.50790  0.88030  0.61170  1.0000 -0.1504702897
C   C53       1.0  0.51370  0.88400  0.69160  1.0000 0.1193558097
C   C54       1.0  0.47870  0.89720  0.73930  1.0000 -0.080357577
C   C55       1.0  0.45300  0.91050  0.78300  1.0000 -0.0991021015
C   C56       1.0  0.42390  0.92990  0.83090  1.0000 0.1538274184
C   C57       1.0  0.41980  0.91590  0.90460  1.0000 -0.2200068266
C   C58       1.0  0.39730  0.96070  0.80910  1.0000 -0.2120591507
C   C59       1.0  0.38870  0.93320  0.95500  1.0000 0.0430524589
C   C60       1.0  0.37220  0.98120  0.86060  1.0000 0.0767182392
C   C61       1.0  0.76560  0.01150  0.90600  1.0000 0.0318605605
C   C62       1.0  0.76790  0.09820  0.92880  1.0000 0.0516142995
C   C63       1.0  0.81330  0.04030  0.85900  1.0000 -0.1934513368
C   C64       1.0  0.81590  0.12860  0.88140  1.0000 -0.2120591507
C   C65       1.0  0.83830  0.09860  0.84410  1.0000 0.1557603721
C   C66       1.0  0.88380  0.12930  0.79370  1.0000 -0.107512569
C   C67       1.0  0.92120  0.15790  0.74750  1.0000 -0.0931071881
C   C68       1.0  0.96850  0.19260  0.69680  1.0000 0.0987889646
C   C69       1.0  0.98910  0.16370  0.64840  1.0000 -0.1425299191
C   C70       1.0  0.99370  0.25130  0.69350  1.0000 -0.1277472817
C   C71       1.0  0.03270  0.19660  0.60020  1.0000 -0.1504702897
C   C72       1.0  0.03830  0.28420  0.64670  1.0000 -0.1504702897
C   C73       1.0  0.05960  0.25750  0.59670  1.0000 0.0516142995
C   C74       1.0  0.11270  0.29600  0.54710  1.0000 0.1685346074
C   C75       1.0  0.16570  0.33610  0.59660  1.0000 -0.3061986253
C   C76       1.0  0.09950  0.33510  0.49610  1.0000 -0.3035913835
C   C77       1.0  0.22050  0.37470  0.55140  1.0000 0.1685346074
C   C78       1.0  0.27410  0.41620  0.60030  1.0000 0.0516142995
C   C79       1.0  0.26900  0.40870  0.67790  1.0000 -0.1576179656
C   C80       1.0  0.32360  0.45660  0.56880  1.0000 -0.1425299191
C   C81       1.0  0.31700  0.44290  0.72130  1.0000 -0.1576179656
C   C82       1.0  0.37240  0.49210  0.61170  1.0000 -0.1504702897
C   C83       1.0  0.37030  0.48630  0.69160  1.0000 0.1193558097
C   C84       1.0  0.41850  0.52130  0.73930  1.0000 -0.080357577
C   C85       1.0  0.45750  0.54700  0.78300  1.0000 -0.0991021015
C   C86       1.0  0.50600  0.57610  0.83090  1.0000 0.1538274184
C   C87       1.0  0.49610  0.58020  0.90460  1.0000 -0.2200068266
C   C88       1.0  0.56340  0.60270  0.80910  1.0000 -0.2120591507
C   C89       1.0  0.54450  0.61130  0.95500  1.0000 0.0430524589
C   C90       1.0  0.60900  0.62780  0.86060  1.0000 0.0767182392
C   C91       1.0  0.75410  0.76560  0.90600  1.0000 0.0318605605
C   C92       1.0  0.66970  0.76790  0.92880  1.0000 0.0516142995
C   C93       1.0  0.77300  0.81330  0.85900  1.0000 -0.1934513368
C   C94       1.0  0.68730  0.81590  0.88140  1.0000 -0.2120591507
C   C95       1.0  0.73970  0.83830  0.84410  1.0000 0.1557603721
C   C96       1.0  0.75450  0.88380  0.79370  1.0000 -0.107512569
C   C97       1.0  0.76330  0.92120  0.74750  1.0000 -0.0931071881
C   C98       1.0  0.77590  0.96850  0.69680  1.0000 0.0987889646
C   C99       1.0  0.82540  0.98910  0.64840  1.0000 -0.1425299191
C   C100      1.0  0.74240  0.99370  0.69350  1.0000 -0.1277472817
C   C101      1.0  0.83610  0.03270  0.60020  1.0000 -0.1504702897
C   C102      1.0  0.75410  0.03830  0.64670  1.0000 -0.1504702897
C   C103      1.0  0.80210  0.05960  0.59670  1.0000 0.0516142995
C   C104      1.0  0.81670  0.11270  0.54710  1.0000 0.1685346074
C   C105      1.0  0.82960  0.16570  0.59660  1.0000 -0.3035913835
C   C106      1.0  0.76440  0.09950  0.49610  1.0000 -0.3035913835
C   C107      1.0  0.84580  0.22050  0.55140  1.0000 0.1685346074
C   C108      1.0  0.85790  0.27410  0.60030  1.0000 0.0516142995
C   C109      1.0  0.86030  0.26900  0.67790  1.0000 -0.1576179656
C   C110      1.0  0.86700  0.32360  0.56880  1.0000 -0.1425299191
C   C111      1.0  0.87410  0.31700  0.72130  1.0000 -0.1576179656
C   C112      1.0  0.88030  0.37240  0.61170  1.0000 -0.1504702897
C   C113      1.0  0.88400  0.37030  0.69160  1.0000 0.1193558097
C   C114      1.0  0.89720  0.41850  0.73930  1.0000 -0.080357577
C   C115      1.0  0.91050  0.45750  0.78300  1.0000 -0.0991021015
C   C116      1.0  0.92990  0.50600  0.83090  1.0000 0.1538274184
C   C117      1.0  0.91590  0.49610  0.90460  1.0000 -0.2200068266
C   C118      1.0  0.96070  0.56340  0.80910  1.0000 -0.2120591507
C   C119      1.0  0.93320  0.54450  0.95500  1.0000 0.0430524589
C   C120      1.0  0.98120  0.60900  0.86060  1.0000 0.0767182392
C   C121      1.0  0.01150  0.24590  0.90600  1.0000 0.0318605605
C   C122      1.0  0.09820  0.33030  0.92880  1.0000 0.0516142995
C   C123      1.0  0.04030  0.22700  0.85900  1.0000 -0.1934513368
C   C124      1.0  0.12860  0.31270  0.88140  1.0000 -0.2120591507
C   C125      1.0  0.09860  0.26030  0.84410  1.0000 0.1557603721
C   C126      1.0  0.12930  0.24550  0.79370  1.0000 -0.107512569
C   C127      1.0  0.15790  0.23670  0.74750  1.0000 -0.0931071881
C   C128      1.0  0.19260  0.22410  0.69680  1.0000 0.0987889646
C   C129      1.0  0.16370  0.17460  0.64840  1.0000 -0.1425299191
C   C130      1.0  0.25130  0.25760  0.69350  1.0000 -0.1277472817
C   C131      1.0  0.19660  0.16390  0.60020  1.0000 -0.1504702897
C   C132      1.0  0.28420  0.24590  0.64670  1.0000 -0.1504702897
C   C133      1.0  0.25750  0.19790  0.59670  1.0000 0.0516142995
C   C134      1.0  0.29600  0.18330  0.54710  1.0000 0.1685346074
C   C135      1.0  0.33610  0.17040  0.59660  1.0000 -0.3035913835
C   C136      1.0  0.33510  0.23560  0.49610  1.0000 -0.3035913835
C   C137      1.0  0.37470  0.15420  0.55140  1.0000 0.1685346074
C   C138      1.0  0.41620  0.14210  0.60030  1.0000 0.0516142995
C   C139      1.0  0.40870  0.13970  0.67790  1.0000 -0.1576179656
C   C140      1.0  0.45660  0.13300  0.56880  1.0000 -0.1425299191
C   C141      1.0  0.44290  0.12590  0.72130  1.0000 -0.1576179656
C   C142      1.0  0.49210  0.11970  0.61170  1.0000 -0.1504702897
C   C143      1.0  0.48630  0.11600  0.69160  1.0000 0.1193558097
C   C144      1.0  0.52130  0.10280  0.73930  1.0000 -0.080357577
C   C145      1.0  0.54700  0.08950  0.78300  1.0000 -0.0991021015
C   C146      1.0  0.57610  0.07010  0.83090  1.0000 0.1538274184
C   C147      1.0  0.58020  0.08410  0.90460  1.0000 -0.2200068266
C   C148      1.0  0.60270  0.03930  0.80910  1.0000 -0.2120591507
C   C149      1.0  0.61130  0.06680  0.95500  1.0000 0.0430524589
C   C150      1.0  0.62780  0.01880  0.86060  1.0000 0.0767182392
C   C151      1.0  0.23440  0.98850  0.90600  1.0000 0.0318605605
C   C152      1.0  0.23210  0.90180  0.92880  1.0000 0.0516142995
C   C153      1.0  0.18670  0.95970  0.85900  1.0000 -0.1934513368
C   C154      1.0  0.18410  0.87140  0.88140  1.0000 -0.2120591507
C   C155      1.0  0.16170  0.90140  0.84410  1.0000 0.1557603721
C   C156      1.0  0.11620  0.87070  0.79370  1.0000 -0.107512569
C   C157      1.0  0.07880  0.84210  0.74750  1.0000 -0.0931071881
C   C158      1.0  0.03150  0.80740  0.69680  1.0000 0.0987889646
C   C159      1.0  0.01090  0.83630  0.64840  1.0000 -0.1425299191
C   C160      1.0  0.00630  0.74870  0.69350  1.0000 -0.1277472817
C   C161      1.0  0.96730  0.80340  0.60020  1.0000 -0.1504702897
C   C162      1.0  0.96170  0.71580  0.64670  1.0000 -0.1504702897
C   C163      1.0  0.94040  0.74250  0.59670  1.0000 0.0516142995
C   C164      1.0  0.88730  0.70400  0.54710  1.0000 0.1685346074
C   C165      1.0  0.83430  0.66390  0.59660  1.0000 -0.3035913835
C   C166      1.0  0.90050  0.66490  0.49610  1.0000 -0.3035913835
C   C167      1.0  0.77950  0.62530  0.55140  1.0000 0.1685346074
C   C168      1.0  0.72590  0.58380  0.60030  1.0000 0.0516142995
C   C169      1.0  0.73100  0.59130  0.67790  1.0000 -0.1576179656
C   C170      1.0  0.67640  0.54340  0.56880  1.0000 -0.1425299191
C   C171      1.0  0.68300  0.55710  0.72130  1.0000 -0.1576179656
C   C172      1.0  0.62760  0.50790  0.61170  1.0000 -0.1504702897
C   C173      1.0  0.62970  0.51370  0.69160  1.0000 0.1193558097
C   C174      1.0  0.58150  0.47870  0.73930  1.0000 -0.080357577
C   C175      1.0  0.54250  0.45300  0.78300  1.0000 -0.0991021015
C   C176      1.0  0.49400  0.42390  0.83090  1.0000 0.1538274184
C   C177      1.0  0.50390  0.41980  0.90460  1.0000 -0.2200068266
C   C178      1.0  0.43660  0.39730  0.80910  1.0000 -0.2120591507
C   C179      1.0  0.45550  0.38870  0.95500  1.0000 0.0430524589
C   C180      1.0  0.39100  0.37220  0.86060  1.0000 0.0767182392
C   C181      1.0  0.01150  0.76560  0.09400  1.0000 0.0318605605
C   C182      1.0  0.09820  0.76790  0.07120  1.0000 0.0516142995
C   C183      1.0  0.04030  0.81330  0.14100  1.0000 -0.1934513368
C   C184      1.0  0.12860  0.81590  0.11860  1.0000 -0.2120591507
C   C185      1.0  0.09860  0.83830  0.15590  1.0000 0.1557603721
C   C186      1.0  0.12930  0.88380  0.20630  1.0000 -0.107512569
C   C187      1.0  0.15790  0.92120  0.25250  1.0000 -0.0931071881
C   C188      1.0  0.19260  0.96850  0.30320  1.0000 0.0987889646
C   C189      1.0  0.16370  0.98910  0.35160  1.0000 -0.1425299191
C   C190      1.0  0.25130  0.99370  0.30650  1.0000 -0.1277472817
C   C191      1.0  0.19660  0.03270  0.39980  1.0000 -0.1504702897
C   C192      1.0  0.28420  0.03830  0.35330  1.0000 -0.1504702897
C   C193      1.0  0.25750  0.05960  0.40330  1.0000 0.0516142995
C   C194      1.0  0.29600  0.11270  0.45290  1.0000 0.1685346074
C   C195      1.0  0.33610  0.16570  0.40340  1.0000 -0.3035913835
C   C196      1.0  0.33510  0.09950  0.50390  1.0000 -0.3035913835
C   C197      1.0  0.37470  0.22050  0.44860  1.0000 0.1685346074
C   C198      1.0  0.41620  0.27410  0.39970  1.0000 0.0516142995
C   C199      1.0  0.40870  0.26900  0.32210  1.0000 -0.1576179656
C   C200      1.0  0.45660  0.32360  0.43120  1.0000 -0.1425299191
C   C201      1.0  0.44290  0.31700  0.27870  1.0000 -0.1576179656
C   C202      1.0  0.49210  0.37240  0.38830  1.0000 -0.1504702897
C   C203      1.0  0.48630  0.37030  0.30840  1.0000 0.1193558097
C   C204      1.0  0.52130  0.41850  0.26070  1.0000 -0.080357577
C   C205      1.0  0.54700  0.45750  0.21700  1.0000 -0.0991021015
C   C206      1.0  0.57610  0.50600  0.16910  1.0000 0.1538274184
C   C207      1.0  0.58020  0.49610  0.09540  1.0000 -0.2200068266
C   C208      1.0  0.60270  0.56340  0.19090  1.0000 -0.2120591507
C   C209      1.0  0.61130  0.54450  0.04500  1.0000 0.0430524589
C   C210      1.0  0.62780  0.60900  0.13940  1.0000 0.0767182392
C   C211      1.0  0.23440  0.24590  0.09400  1.0000 0.0318605605
C   C212      1.0  0.23210  0.33030  0.07120  1.0000 0.0516142995
C   C213      1.0  0.18670  0.22700  0.14100  1.0000 -0.1934513368
C   C214      1.0  0.18410  0.31270  0.11860  1.0000 -0.2120591507
C   C215      1.0  0.16170  0.26030  0.15590  1.0000 0.1557603721
C   C216      1.0  0.11620  0.24550  0.20630  1.0000 -0.107512569
C   C217      1.0  0.07880  0.23670  0.25250  1.0000 -0.0931071881
C   C218      1.0  0.03150  0.22410  0.30320  1.0000 0.0987889646
C   C219      1.0  0.01090  0.17460  0.35160  1.0000 -0.1425299191
C   C220      1.0  0.00630  0.25760  0.30650  1.0000 -0.1277472817
C   C221      1.0  0.96730  0.16390  0.39980  1.0000 -0.1504702897
C   C222      1.0  0.96170  0.24590  0.35330  1.0000 -0.1504702897
C   C223      1.0  0.94040  0.19790  0.40330  1.0000 0.0516142995
C   C224      1.0  0.88730  0.18330  0.45290  1.0000 0.1685346074
C   C225      1.0  0.83430  0.17040  0.40340  1.0000 -0.3061986253
C   C226      1.0  0.90050  0.23560  0.50390  1.0000 -0.3035913835
C   C227      1.0  0.77950  0.15420  0.44860  1.0000 0.1685346074
C   C228      1.0  0.72590  0.14210  0.39970  1.0000 0.0516142995
C   C229      1.0  0.73100  0.13970  0.32210  1.0000 -0.1576179656
C   C230      1.0  0.67640  0.13300  0.43120  1.0000 -0.1425299191
C   C231      1.0  0.68300  0.12590  0.27870  1.0000 -0.1576179656
C   C232      1.0  0.62760  0.11970  0.38830  1.0000 -0.1504702897
C   C233      1.0  0.62970  0.11600  0.30840  1.0000 0.1193558097
C   C234      1.0  0.58150  0.10280  0.26070  1.0000 -0.080357577
C   C235      1.0  0.54250  0.08950  0.21700  1.0000 -0.0991021015
C   C236      1.0  0.49400  0.07010  0.16910  1.0000 0.1538274184
C   C237      1.0  0.50390  0.08410  0.09540  1.0000 -0.2200068266
C   C238      1.0  0.43660  0.03930  0.19090  1.0000 -0.2120591507
C   C239      1.0  0.45550  0.06680  0.04500  1.0000 0.0430524589
C   C240      1.0  0.39100  0.01880  0.13940  1.0000 0.0767182392
C   C241      1.0  0.75410  0.98850  0.09400  1.0000 0.0318605605
C   C242      1.0  0.66970  0.90180  0.07120  1.0000 0.0516142995
C   C243      1.0  0.77300  0.95970  0.14100  1.0000 -0.1934513368
C   C244      1.0  0.68730  0.87140  0.11860  1.0000 -0.2120591507
C   C245      1.0  0.73970  0.90140  0.15590  1.0000 0.1557603721
C   C246      1.0  0.75450  0.87070  0.20630  1.0000 -0.107512569
C   C247      1.0  0.76330  0.84210  0.25250  1.0000 -0.0931071881
C   C248      1.0  0.77590  0.80740  0.30320  1.0000 0.0987889646
C   C249      1.0  0.82540  0.83630  0.35160  1.0000 -0.1425299191
C   C250      1.0  0.74240  0.74870  0.30650  1.0000 -0.1277472817
C   C251      1.0  0.83610  0.80340  0.39980  1.0000 -0.1504702897
C   C252      1.0  0.75410  0.71580  0.35330  1.0000 -0.1504702897
C   C253      1.0  0.80210  0.74250  0.40330  1.0000 0.0516142995
C   C254      1.0  0.81670  0.70400  0.45290  1.0000 0.1685346074
C   C255      1.0  0.82960  0.66390  0.40340  1.0000 -0.3035913835
C   C256      1.0  0.76440  0.66490  0.50390  1.0000 -0.3035913835
C   C257      1.0  0.84580  0.62530  0.44860  1.0000 0.1685346074
C   C258      1.0  0.85790  0.58380  0.39970  1.0000 0.0516142995
C   C259      1.0  0.86030  0.59130  0.32210  1.0000 -0.1576179656
C   C260      1.0  0.86700  0.54340  0.43120  1.0000 -0.1425299191
C   C261      1.0  0.87410  0.55710  0.27870  1.0000 -0.1576179656
C   C262      1.0  0.88030  0.50790  0.38830  1.0000 -0.1504702897
C   C263      1.0  0.88400  0.51370  0.30840  1.0000 0.1193558097
C   C264      1.0  0.89720  0.47870  0.26070  1.0000 -0.080357577
C   C265      1.0  0.91050  0.45300  0.21700  1.0000 -0.0991021015
C   C266      1.0  0.92990  0.42390  0.16910  1.0000 0.1538274184
C   C267      1.0  0.91590  0.41980  0.09540  1.0000 -0.2200068266
C   C268      1.0  0.96070  0.39730  0.19090  1.0000 -0.2120591507
C   C269      1.0  0.93320  0.38870  0.04500  1.0000 0.0430524589
C   C270      1.0  0.98120  0.37220  0.13940  1.0000 0.0767182392
C   C271      1.0  0.98850  0.23440  0.09400  1.0000 0.0318605605
C   C272      1.0  0.90180  0.23210  0.07120  1.0000 0.0516142995
C   C273      1.0  0.95970  0.18670  0.14100  1.0000 -0.1934513368
C   C274      1.0  0.87140  0.18410  0.11860  1.0000 -0.2120591507
C   C275      1.0  0.90140  0.16170  0.15590  1.0000 0.1557603721
C   C276      1.0  0.87070  0.11620  0.20630  1.0000 -0.107512569
C   C277      1.0  0.84210  0.07880  0.25250  1.0000 -0.0931071881
C   C278      1.0  0.80740  0.03150  0.30320  1.0000 0.0987889646
C   C279      1.0  0.83630  0.01090  0.35160  1.0000 -0.1425299191
C   C280      1.0  0.74870  0.00630  0.30650  1.0000 -0.1277472817
C   C281      1.0  0.80340  0.96730  0.39980  1.0000 -0.1504702897
C   C282      1.0  0.71580  0.96170  0.35330  1.0000 -0.1504702897
C   C283      1.0  0.74250  0.94040  0.40330  1.0000 0.0516142995
C   C284      1.0  0.70400  0.88730  0.45290  1.0000 0.1685346074
C   C285      1.0  0.66390  0.83430  0.40340  1.0000 -0.3035913835
C   C286      1.0  0.66490  0.90050  0.50390  1.0000 -0.3035913835
C   C287      1.0  0.62530  0.77950  0.44860  1.0000 0.1685346074
C   C288      1.0  0.58380  0.72590  0.39970  1.0000 0.0516142995
C   C289      1.0  0.59130  0.73100  0.32210  1.0000 -0.1576179656
C   C290      1.0  0.54340  0.67640  0.43120  1.0000 -0.1425299191
C   C291      1.0  0.55710  0.68300  0.27870  1.0000 -0.1576179656
C   C292      1.0  0.50790  0.62760  0.38830  1.0000 -0.1504702897
C   C293      1.0  0.51370  0.62970  0.30840  1.0000 0.1193558097
C   C294      1.0  0.47870  0.58150  0.26070  1.0000 -0.080357577
C   C295      1.0  0.45300  0.54250  0.21700  1.0000 -0.0991021015
C   C296      1.0  0.42390  0.49400  0.16910  1.0000 0.1538274184
C   C297      1.0  0.41980  0.50390  0.09540  1.0000 -0.2200068266
C   C298      1.0  0.39730  0.43660  0.19090  1.0000 -0.2120591507
C   C299      1.0  0.38870  0.45550  0.04500  1.0000 0.0430524589
C   C300      1.0  0.37220  0.39100  0.13940  1.0000 0.0767182392
C   C301      1.0  0.76560  0.75410  0.09400  1.0000 0.0318605605
C   C302      1.0  0.76790  0.66970  0.07120  1.0000 0.0516142995
C   C303      1.0  0.81330  0.77300  0.14100  1.0000 -0.1934513368
C   C304      1.0  0.81590  0.68730  0.11860  1.0000 -0.2120591507
C   C305      1.0  0.83830  0.73970  0.15590  1.0000 0.1557603721
C   C306      1.0  0.88380  0.75450  0.20630  1.0000 -0.107512569
C   C307      1.0  0.92120  0.76330  0.25250  1.0000 -0.0931071881
C   C308      1.0  0.96850  0.77590  0.30320  1.0000 0.0987889646
C   C309      1.0  0.98910  0.82540  0.35160  1.0000 -0.1425299191
C   C310      1.0  0.99370  0.74240  0.30650  1.0000 -0.1277472817
C   C311      1.0  0.03270  0.83610  0.39980  1.0000 -0.1504702897
C   C312      1.0  0.03830  0.75410  0.35330  1.0000 -0.1504702897
C   C313      1.0  0.05960  0.80210  0.40330  1.0000 0.0516142995
C   C314      1.0  0.11270  0.81670  0.45290  1.0000 0.1685346074
C   C315      1.0  0.16570  0.82960  0.40340  1.0000 -0.3061986253
C   C316      1.0  0.09950  0.76440  0.50390  1.0000 -0.3035913835
C   C317      1.0  0.22050  0.84580  0.44860  1.0000 0.1685346074
C   C318      1.0  0.27410  0.85790  0.39970  1.0000 0.0516142995
C   C319      1.0  0.26900  0.86030  0.32210  1.0000 -0.1576179656
C   C320      1.0  0.32360  0.86700  0.43120  1.0000 -0.1425299191
C   C321      1.0  0.31700  0.87410  0.27870  1.0000 -0.1576179656
C   C322      1.0  0.37240  0.88030  0.38830  1.0000 -0.1504702897
C   C323      1.0  0.37030  0.88400  0.30840  1.0000 0.1193558097
C   C324      1.0  0.41850  0.89720  0.26070  1.0000 -0.080357577
C   C325      1.0  0.45750  0.91050  0.21700  1.0000 -0.0991021015
C   C326      1.0  0.50600  0.92990  0.16910  1.0000 0.1538274184
C   C327      1.0  0.49610  0.91590  0.09540  1.0000 -0.2200068266
C   C328      1.0  0.56340  0.96070  0.19090  1.0000 -0.2120591507
C   C329      1.0  0.54450  0.93320  0.04500  1.0000 0.0430524589
C   C330      1.0  0.60900  0.98120  0.13940  1.0000 0.0767182392
C   C331      1.0  0.24590  0.01150  0.09400  1.0000 0.0318605605
C   C332      1.0  0.33030  0.09820  0.07120  1.0000 0.0516142995
C   C333      1.0  0.22700  0.04030  0.14100  1.0000 -0.1934513368
C   C334      1.0  0.31270  0.12860  0.11860  1.0000 -0.2120591507
C   C335      1.0  0.26030  0.09860  0.15590  1.0000 0.1557603721
C   C336      1.0  0.24550  0.12930  0.20630  1.0000 -0.107512569
C   C337      1.0  0.23670  0.15790  0.25250  1.0000 -0.0931071881
C   C338      1.0  0.22410  0.19260  0.30320  1.0000 0.0987889646
C   C339      1.0  0.17460  0.16370  0.35160  1.0000 -0.1425299191
C   C340      1.0  0.25760  0.25130  0.30650  1.0000 -0.1277472817
C   C341      1.0  0.16390  0.19660  0.39980  1.0000 -0.1504702897
C   C342      1.0  0.24590  0.28420  0.35330  1.0000 -0.1504702897
C   C343      1.0  0.19790  0.25750  0.40330  1.0000 0.0516142995
C   C344      1.0  0.18330  0.29600  0.45290  1.0000 0.1685346074
C   C345      1.0  0.17040  0.33610  0.40340  1.0000 -0.3061986253
C   C346      1.0  0.23560  0.33510  0.50390  1.0000 -0.3035913835
C   C347      1.0  0.15420  0.37470  0.44860  1.0000 0.1685346074
C   C348      1.0  0.14210  0.41620  0.39970  1.0000 0.0516142995
C   C349      1.0  0.13970  0.40870  0.32210  1.0000 -0.1576179656
C   C350      1.0  0.13300  0.45660  0.43120  1.0000 -0.1425299191
C   C351      1.0  0.12590  0.44290  0.27870  1.0000 -0.1576179656
C   C352      1.0  0.11970  0.49210  0.38830  1.0000 -0.1504702897
C   C353      1.0  0.11600  0.48630  0.30840  1.0000 0.1193558097
C   C354      1.0  0.10280  0.52130  0.26070  1.0000 -0.080357577
C   C355      1.0  0.08950  0.54700  0.21700  1.0000 -0.0991021015
C   C356      1.0  0.07010  0.57610  0.16910  1.0000 0.1538274184
C   C357      1.0  0.08410  0.58020  0.09540  1.0000 -0.2200068266
C   C358      1.0  0.03930  0.60270  0.19090  1.0000 -0.2120591507
C   C359      1.0  0.06680  0.61130  0.04500  1.0000 0.0430524589
C   C360      1.0  0.01880  0.62780  0.13940  1.0000 0.0767182392
C   C361      1.0  0.13015  0.86985  0.50000  1.0000 -0.3294986492
C   C362      1.0  0.20590  0.79410  0.50000  1.0000 -0.3035913835
C   C363      1.0  0.73970  0.86985  0.50000  1.0000 -0.3294986492
C   C364      1.0  0.58820  0.79410  0.50000  1.0000 -0.3035913835
C   C365      1.0  0.13015  0.26030  0.50000  1.0000 -0.3294986492
C   C366      1.0  0.20590  0.41180  0.50000  1.0000 -0.3035913835
C   C367      1.0  0.86985  0.13015  0.50000  1.0000 -0.3294986492
C   C368      1.0  0.79410  0.20590  0.50000  1.0000 -0.3035913835
C   C369      1.0  0.26030  0.13015  0.50000  1.0000 -0.3294986492
C   C370      1.0  0.41180  0.20590  0.50000  1.0000 -0.3035913835
C   C371      1.0  0.86985  0.73970  0.50000  1.0000 -0.3294986492
C   C372      1.0  0.79410  0.58820  0.50000  1.0000 -0.3035913835
N   N1        1.0  0.29790  0.25690  0.94120  1.0000 -0.1979865099
N   N2        1.0  0.03100  0.40100  0.93010  1.0000 -0.1979865099
N   N3        1.0  0.95900  0.70210  0.94120  1.0000 -0.1979865099
N   N4        1.0  0.37000  0.96900  0.93010  1.0000 -0.1934513368
N   N5        1.0  0.74310  0.04100  0.94120  1.0000 -0.1979865099
N   N6        1.0  0.59900  0.63000  0.93010  1.0000 -0.1979865099
N   N7        1.0  0.70210  0.74310  0.94120  1.0000 -0.1979865099
N   N8        1.0  0.96900  0.59900  0.93010  1.0000 -0.1979865099
N   N9        1.0  0.04100  0.29790  0.94120  1.0000 -0.1979865099
N   N10       1.0  0.63000  0.03100  0.93010  1.0000 -0.1934513368
N   N11       1.0  0.25690  0.95900  0.94120  1.0000 -0.1979865099
N   N12       1.0  0.40100  0.37000  0.93010  1.0000 -0.1934513368
N   N13       1.0  0.04100  0.74310  0.05880  1.0000 -0.1979865099
N   N14       1.0  0.63000  0.59900  0.06990  1.0000 -0.1934513368
N   N15       1.0  0.25690  0.29790  0.05880  1.0000 -0.1979865099
N   N16       1.0  0.40100  0.03100  0.06990  1.0000 -0.1934513368
N   N17       1.0  0.70210  0.95900  0.05880  1.0000 -0.1979865099
N   N18       1.0  0.96900  0.37000  0.06990  1.0000 -0.1934513368
N   N19       1.0  0.95900  0.25690  0.05880  1.0000 -0.1979865099
N   N20       1.0  0.37000  0.40100  0.06990  1.0000 -0.1934513368
N   N21       1.0  0.74310  0.70210  0.05880  1.0000 -0.1979865099
N   N22       1.0  0.59900  0.96900  0.06990  1.0000 -0.1934513368
N   N23       1.0  0.29790  0.04100  0.05880  1.0000 -0.1979865099
N   N24       1.0  0.03100  0.63000  0.06990  1.0000 -0.1979865099
