# DDEC6 charges by PACMAN v1.1 (https://github.com/mtap-research/PACMAN-charge/)
data_2020[Sc][bcu]3[FSR]1
_chemical_formula_sum              "O96 C224 H128 Sc16"
_cell_length_a       17.1429
_cell_length_b       17.1429
_cell_length_c       24.214
_cell_angle_alpha    90
_cell_angle_beta     90
_cell_angle_gamma    90

_symmetry_space_group_name_H-M    "P 1"
_symmetry_Int_Tables_number       1

loop_
  _symmetry_equiv_pos_as_xyz
  'x, y, z'

loop_
  _atom_site_type_symbol
  _atom_site_label
  _atom_site_symmetry_multiplicity
  _atom_site_fract_x
  _atom_site_fract_y
  _atom_site_fract_z
  _atom_site_occupancy
  _atom_site_charge
O   O1        1.0  0.27950  0.66250  0.91904  1.0000 -0.5512890254
O   O2        1.0  0.08120  0.36670  0.52517  1.0000 -0.5764633489
O   O3        1.0  0.19330  0.07690  0.47853  1.0000 -0.7734769133
O   O4        1.0  0.22140  0.54620  0.91852  1.0000 -0.539288189
O   O5        1.0  0.19640  0.31070  0.52076  1.0000 -0.5581391041
O   O6        1.0  0.28940  0.60230  0.66410  1.0000 -0.2204465379
C   C1        1.0  0.18720  0.42940  0.56780  1.0000 -0.0530637389
C   C2        1.0  0.25370  0.60250  0.89410  1.0000 0.6009954478
C   C3        1.0  0.15280  0.36480  0.53550  1.0000 0.6009954478
C   C4        1.0  0.26060  0.60110  0.83360  1.0000 -0.0683780914
C   C5        1.0  0.23060  0.53960  0.80340  1.0000 -0.0683780914
H   H1        1.0  0.20363  0.49992  0.82132  1.0000 0.1240836832
C   C6        1.0  0.14920  0.49700  0.57720  1.0000 -0.0683780914
H   H2        1.0  0.10005  0.50520  0.56194  1.0000 0.1401535259
C   C7        1.0  0.29860  0.66160  0.80590  1.0000 -0.0683780914
H   H3        1.0  0.31983  0.70261  0.82607  1.0000 0.1240836832
C   C8        1.0  0.25660  0.54230  0.63130  1.0000 0.2215520891
C   C9        1.0  0.24030  0.53690  0.74660  1.0000 -0.2268964683
H   H4        1.0  0.22266  0.49409  0.72651  1.0000 0.1296122068
C   C10       1.0  0.26140  0.41900  0.58970  1.0000 -0.0683780914
H   H5        1.0  0.28865  0.37316  0.58262  1.0000 0.1296122068
C   C11       1.0  0.29520  0.47690  0.62220  1.0000 -0.1951327023
H   H6        1.0  0.34445  0.46949  0.63743  1.0000 0.1401535259
C   C12       1.0  0.27670  0.59880  0.71990  1.0000 0.264809972
C   C13       1.0  0.18390  0.55550  0.61030  1.0000 -0.1758050357
H   H7        1.0  0.15772  0.60187  0.61762  1.0000 0.1401535259
C   C14       1.0  0.30510  0.66120  0.74940  1.0000 -0.2129099171
H   H8        1.0  0.32848  0.70291  0.73120  1.0000 0.1452390703
O   O7        1.0  0.77950  0.16250  0.41904  1.0000 -0.5512890254
O   O8        1.0  0.58120  0.86670  0.02517  1.0000 -0.5764633489
O   O9        1.0  0.69330  0.57690  0.97853  1.0000 -0.7734769133
O   O10       1.0  0.72140  0.04620  0.41852  1.0000 -0.539288189
O   O11       1.0  0.69640  0.81070  0.02076  1.0000 -0.5581391041
O   O12       1.0  0.78940  0.10230  0.16410  1.0000 -0.2204465379
C   C15       1.0  0.68720  0.92940  0.06780  1.0000 -0.0530637389
C   C16       1.0  0.75370  0.10250  0.39410  1.0000 0.6009954478
C   C17       1.0  0.65280  0.86480  0.03550  1.0000 0.6009954478
C   C18       1.0  0.76060  0.10110  0.33360  1.0000 -0.0683780914
C   C19       1.0  0.73060  0.03960  0.30340  1.0000 -0.0683780914
H   H9        1.0  0.70363  0.99992  0.32132  1.0000 0.1240836832
C   C20       1.0  0.64920  0.99700  0.07720  1.0000 -0.0683780914
H   H10       1.0  0.60005  0.00520  0.06194  1.0000 0.1401535259
C   C21       1.0  0.79860  0.16160  0.30590  1.0000 -0.0683780914
H   H11       1.0  0.81983  0.20261  0.32607  1.0000 0.1240836832
C   C22       1.0  0.75660  0.04230  0.13130  1.0000 0.2215520891
C   C23       1.0  0.74030  0.03690  0.24660  1.0000 -0.2268964683
H   H12       1.0  0.72266  0.99409  0.22651  1.0000 0.1296122068
C   C24       1.0  0.76140  0.91900  0.08970  1.0000 -0.0683780914
H   H13       1.0  0.78865  0.87316  0.08262  1.0000 0.1296122068
C   C25       1.0  0.79520  0.97690  0.12220  1.0000 -0.1947556284
H   H14       1.0  0.84445  0.96949  0.13743  1.0000 0.1401535259
C   C26       1.0  0.77670  0.09880  0.21990  1.0000 0.264809972
C   C27       1.0  0.68390  0.05550  0.11030  1.0000 -0.1758050357
H   H15       1.0  0.65772  0.10187  0.11762  1.0000 0.1401535259
C   C28       1.0  0.80510  0.16120  0.24940  1.0000 -0.2129099171
H   H16       1.0  0.82848  0.20291  0.23120  1.0000 0.1401535259
O   O13       1.0  0.72050  0.33750  0.91904  1.0000 -0.5512890254
O   O14       1.0  0.91880  0.63330  0.52517  1.0000 -0.5764633489
O   O15       1.0  0.80670  0.92310  0.47853  1.0000 -0.7734769133
O   O16       1.0  0.77860  0.45380  0.91852  1.0000 -0.539288189
O   O17       1.0  0.80360  0.68930  0.52076  1.0000 -0.5581391041
O   O18       1.0  0.71060  0.39770  0.66410  1.0000 -0.2204465379
C   C29       1.0  0.81280  0.57060  0.56780  1.0000 -0.0530637389
C   C30       1.0  0.74630  0.39750  0.89410  1.0000 0.6009954478
C   C31       1.0  0.84720  0.63520  0.53550  1.0000 0.6009954478
C   C32       1.0  0.73940  0.39890  0.83360  1.0000 -0.0683780914
C   C33       1.0  0.76940  0.46040  0.80340  1.0000 -0.0683780914
H   H17       1.0  0.79637  0.50008  0.82132  1.0000 0.1240836832
C   C34       1.0  0.85080  0.50300  0.57720  1.0000 -0.0683780914
H   H18       1.0  0.89995  0.49480  0.56194  1.0000 0.1401535259
C   C35       1.0  0.70140  0.33840  0.80590  1.0000 -0.0683780914
H   H19       1.0  0.68017  0.29739  0.82607  1.0000 0.1240836832
C   C36       1.0  0.74340  0.45770  0.63130  1.0000 0.2215520891
C   C37       1.0  0.75970  0.46310  0.74660  1.0000 -0.2268964683
H   H20       1.0  0.77734  0.50591  0.72651  1.0000 0.1296122068
C   C38       1.0  0.73860  0.58100  0.58970  1.0000 -0.0683780914
H   H21       1.0  0.71135  0.62684  0.58262  1.0000 0.1296122068
C   C39       1.0  0.70480  0.52310  0.62220  1.0000 -0.1947556284
H   H22       1.0  0.65555  0.53051  0.63743  1.0000 0.1401535259
C   C40       1.0  0.72330  0.40120  0.71990  1.0000 0.264809972
C   C41       1.0  0.81610  0.44450  0.61030  1.0000 -0.1758050357
H   H23       1.0  0.84228  0.39813  0.61762  1.0000 0.1401535259
C   C42       1.0  0.69490  0.33880  0.74940  1.0000 -0.2129099171
H   H24       1.0  0.67152  0.29709  0.73120  1.0000 0.1401535259
O   O19       1.0  0.22050  0.83750  0.41904  1.0000 -0.5512890254
O   O20       1.0  0.41880  0.13330  0.02517  1.0000 -0.5764633489
O   O21       1.0  0.30670  0.42310  0.97853  1.0000 -0.7734769133
O   O22       1.0  0.27860  0.95380  0.41852  1.0000 -0.539288189
O   O23       1.0  0.30360  0.18930  0.02076  1.0000 -0.5581391041
O   O24       1.0  0.21060  0.89770  0.16410  1.0000 -0.2204465379
C   C43       1.0  0.31280  0.07060  0.06780  1.0000 -0.0530637389
C   C44       1.0  0.24630  0.89750  0.39410  1.0000 0.6009954478
C   C45       1.0  0.34720  0.13520  0.03550  1.0000 0.6009954478
C   C46       1.0  0.23940  0.89890  0.33360  1.0000 -0.0683780914
C   C47       1.0  0.26940  0.96040  0.30340  1.0000 -0.0683780914
H   H25       1.0  0.29637  0.00008  0.32132  1.0000 0.1240836832
C   C48       1.0  0.35080  0.00300  0.07720  1.0000 -0.0683780914
H   H26       1.0  0.39995  0.99480  0.06194  1.0000 0.1401535259
C   C49       1.0  0.20140  0.83840  0.30590  1.0000 -0.0683780914
H   H27       1.0  0.18017  0.79739  0.32607  1.0000 0.1240836832
C   C50       1.0  0.24340  0.95770  0.13130  1.0000 0.2215520891
C   C51       1.0  0.25970  0.96310  0.24660  1.0000 -0.2268964683
H   H28       1.0  0.27734  0.00591  0.22651  1.0000 0.1296122068
C   C52       1.0  0.23860  0.08100  0.08970  1.0000 -0.0683780914
H   H29       1.0  0.21135  0.12684  0.08262  1.0000 0.1296122068
C   C53       1.0  0.20480  0.02310  0.12220  1.0000 -0.1947556284
H   H30       1.0  0.15555  0.03051  0.13743  1.0000 0.1401535259
C   C54       1.0  0.22330  0.90120  0.21990  1.0000 0.264809972
C   C55       1.0  0.31610  0.94450  0.11030  1.0000 -0.1758050357
H   H31       1.0  0.34228  0.89813  0.11762  1.0000 0.1401535259
C   C56       1.0  0.19490  0.83880  0.24940  1.0000 -0.2129099171
H   H32       1.0  0.17152  0.79709  0.23120  1.0000 0.1452390703
O   O25       1.0  0.33750  0.27950  0.91904  1.0000 -0.5512890254
O   O26       1.0  0.63330  0.08120  0.52517  1.0000 -0.5764633489
O   O27       1.0  0.92310  0.19330  0.47853  1.0000 -0.7734769133
O   O28       1.0  0.45380  0.22140  0.91852  1.0000 -0.539288189
O   O29       1.0  0.68930  0.19640  0.52076  1.0000 -0.5581391041
O   O30       1.0  0.39770  0.28940  0.66410  1.0000 -0.2204465379
C   C57       1.0  0.57060  0.18720  0.56780  1.0000 -0.0530637389
C   C58       1.0  0.39750  0.25370  0.89410  1.0000 0.6009954478
C   C59       1.0  0.63520  0.15280  0.53550  1.0000 0.6009954478
C   C60       1.0  0.39890  0.26060  0.83360  1.0000 -0.0683780914
C   C61       1.0  0.46040  0.23060  0.80340  1.0000 -0.0683780914
H   H33       1.0  0.50008  0.20363  0.82132  1.0000 0.1240836832
C   C62       1.0  0.50300  0.14920  0.57720  1.0000 -0.0683780914
H   H34       1.0  0.49480  0.10005  0.56194  1.0000 0.1401535259
C   C63       1.0  0.33840  0.29860  0.80590  1.0000 -0.0683780914
H   H35       1.0  0.29739  0.31983  0.82607  1.0000 0.1240836832
C   C64       1.0  0.45770  0.25660  0.63130  1.0000 0.2215520891
C   C65       1.0  0.46310  0.24030  0.74660  1.0000 -0.2268964683
H   H36       1.0  0.50591  0.22266  0.72651  1.0000 0.1296122068
C   C66       1.0  0.58100  0.26140  0.58970  1.0000 -0.0683780914
H   H37       1.0  0.62684  0.28865  0.58262  1.0000 0.1296122068
C   C67       1.0  0.52310  0.29520  0.62220  1.0000 -0.1951327023
H   H38       1.0  0.53051  0.34445  0.63743  1.0000 0.1401535259
C   C68       1.0  0.40120  0.27670  0.71990  1.0000 0.264809972
C   C69       1.0  0.44450  0.18390  0.61030  1.0000 -0.1758050357
H   H39       1.0  0.39813  0.15772  0.61762  1.0000 0.1401535259
C   C70       1.0  0.33880  0.30510  0.74940  1.0000 -0.2129099171
H   H40       1.0  0.29709  0.32848  0.73120  1.0000 0.1452390703
O   O31       1.0  0.83750  0.77950  0.41904  1.0000 -0.5512890254
O   O32       1.0  0.13330  0.58120  0.02517  1.0000 -0.5764633489
O   O33       1.0  0.42310  0.69330  0.97853  1.0000 -0.7734769133
O   O34       1.0  0.95380  0.72140  0.41852  1.0000 -0.539288189
O   O35       1.0  0.18930  0.69640  0.02076  1.0000 -0.5581391041
O   O36       1.0  0.89770  0.78940  0.16410  1.0000 -0.2204465379
C   C71       1.0  0.07060  0.68720  0.06780  1.0000 -0.0530637389
C   C72       1.0  0.89750  0.75370  0.39410  1.0000 0.6009954478
C   C73       1.0  0.13520  0.65280  0.03550  1.0000 0.6009954478
C   C74       1.0  0.89890  0.76060  0.33360  1.0000 -0.0683780914
C   C75       1.0  0.96040  0.73060  0.30340  1.0000 -0.0683780914
H   H41       1.0  0.00008  0.70363  0.32132  1.0000 0.1240836832
C   C76       1.0  0.00300  0.64920  0.07720  1.0000 -0.0683780914
H   H42       1.0  0.99480  0.60005  0.06194  1.0000 0.1401535259
C   C77       1.0  0.83840  0.79860  0.30590  1.0000 -0.0683780914
H   H43       1.0  0.79739  0.81983  0.32607  1.0000 0.1240836832
C   C78       1.0  0.95770  0.75660  0.13130  1.0000 0.2215520891
C   C79       1.0  0.96310  0.74030  0.24660  1.0000 -0.2268964683
H   H44       1.0  0.00591  0.72266  0.22651  1.0000 0.1296122068
C   C80       1.0  0.08100  0.76140  0.08970  1.0000 -0.0683780914
H   H45       1.0  0.12684  0.78865  0.08262  1.0000 0.1296122068
C   C81       1.0  0.02310  0.79520  0.12220  1.0000 -0.1947556284
H   H46       1.0  0.03051  0.84445  0.13743  1.0000 0.1401535259
C   C82       1.0  0.90120  0.77670  0.21990  1.0000 0.264809972
C   C83       1.0  0.94450  0.68390  0.11030  1.0000 -0.1758050357
H   H47       1.0  0.89813  0.65772  0.11762  1.0000 0.1401535259
C   C84       1.0  0.83880  0.80510  0.24940  1.0000 -0.2129099171
H   H48       1.0  0.79709  0.82848  0.23120  1.0000 0.1401535259
O   O37       1.0  0.66250  0.72050  0.91904  1.0000 -0.5512890254
O   O38       1.0  0.36670  0.91880  0.52517  1.0000 -0.5764633489
O   O39       1.0  0.07690  0.80670  0.47853  1.0000 -0.7834490684
O   O40       1.0  0.54620  0.77860  0.91852  1.0000 -0.539288189
O   O41       1.0  0.31070  0.80360  0.52076  1.0000 -0.5581391041
O   O42       1.0  0.60230  0.71060  0.66410  1.0000 -0.2204465379
C   C85       1.0  0.42940  0.81280  0.56780  1.0000 -0.0530637389
C   C86       1.0  0.60250  0.74630  0.89410  1.0000 0.6009954478
C   C87       1.0  0.36480  0.84720  0.53550  1.0000 0.6009954478
C   C88       1.0  0.60110  0.73940  0.83360  1.0000 -0.0683780914
C   C89       1.0  0.53960  0.76940  0.80340  1.0000 -0.0683780914
H   H49       1.0  0.49992  0.79637  0.82132  1.0000 0.1240836832
C   C90       1.0  0.49700  0.85080  0.57720  1.0000 -0.0683780914
H   H50       1.0  0.50520  0.89995  0.56194  1.0000 0.1401535259
C   C91       1.0  0.66160  0.70140  0.80590  1.0000 -0.0683780914
H   H51       1.0  0.70261  0.68017  0.82607  1.0000 0.1240836832
C   C92       1.0  0.54230  0.74340  0.63130  1.0000 0.2215520891
C   C93       1.0  0.53690  0.75970  0.74660  1.0000 -0.2268964683
H   H52       1.0  0.49409  0.77734  0.72651  1.0000 0.1296122068
C   C94       1.0  0.41900  0.73860  0.58970  1.0000 -0.0683780914
H   H53       1.0  0.37316  0.71135  0.58262  1.0000 0.1296122068
C   C95       1.0  0.47690  0.70480  0.62220  1.0000 -0.1947556284
H   H54       1.0  0.46949  0.65555  0.63743  1.0000 0.1401535259
C   C96       1.0  0.59880  0.72330  0.71990  1.0000 0.264809972
C   C97       1.0  0.55550  0.81610  0.61030  1.0000 -0.1758050357
H   H55       1.0  0.60187  0.84228  0.61762  1.0000 0.1401535259
C   C98       1.0  0.66120  0.69490  0.74940  1.0000 -0.2129099171
H   H56       1.0  0.70291  0.67152  0.73120  1.0000 0.1401535259
O   O43       1.0  0.16250  0.22050  0.41904  1.0000 -0.5512890254
O   O44       1.0  0.86670  0.41880  0.02517  1.0000 -0.5764633489
O   O45       1.0  0.57690  0.30670  0.97853  1.0000 -0.7734769133
O   O46       1.0  0.04620  0.27860  0.41852  1.0000 -0.539288189
O   O47       1.0  0.81070  0.30360  0.02076  1.0000 -0.5581391041
O   O48       1.0  0.10230  0.21060  0.16410  1.0000 -0.2204465379
C   C99       1.0  0.92940  0.31280  0.06780  1.0000 -0.0530637389
C   C100      1.0  0.10250  0.24630  0.39410  1.0000 0.6009954478
C   C101      1.0  0.86480  0.34720  0.03550  1.0000 0.6009954478
C   C102      1.0  0.10110  0.23940  0.33360  1.0000 -0.0683780914
C   C103      1.0  0.03960  0.26940  0.30340  1.0000 -0.0683780914
H   H57       1.0  0.99992  0.29637  0.32132  1.0000 0.1240836832
C   C104      1.0  0.99700  0.35080  0.07720  1.0000 -0.0683780914
H   H58       1.0  0.00520  0.39995  0.06194  1.0000 0.1401535259
C   C105      1.0  0.16160  0.20140  0.30590  1.0000 -0.0683780914
H   H59       1.0  0.20261  0.18017  0.32607  1.0000 0.1240836832
C   C106      1.0  0.04230  0.24340  0.13130  1.0000 0.2215520891
C   C107      1.0  0.03690  0.25970  0.24660  1.0000 -0.2268964683
H   H60       1.0  0.99409  0.27734  0.22651  1.0000 0.1296122068
C   C108      1.0  0.91900  0.23860  0.08970  1.0000 -0.0683780914
H   H61       1.0  0.87316  0.21135  0.08262  1.0000 0.1296122068
C   C109      1.0  0.97690  0.20480  0.12220  1.0000 -0.1947556284
H   H62       1.0  0.96949  0.15555  0.13743  1.0000 0.1401535259
C   C110      1.0  0.09880  0.22330  0.21990  1.0000 0.264809972
C   C111      1.0  0.05550  0.31610  0.11030  1.0000 -0.1758050357
H   H63       1.0  0.10187  0.34228  0.11762  1.0000 0.1401535259
C   C112      1.0  0.16120  0.19490  0.24940  1.0000 -0.2129099171
H   H64       1.0  0.20291  0.17152  0.23120  1.0000 0.1452390703
O   O49       1.0  0.72050  0.66250  0.08096  1.0000 -0.5512890254
O   O50       1.0  0.91880  0.36670  0.47483  1.0000 -0.5764633489
O   O51       1.0  0.80670  0.07690  0.52147  1.0000 -0.7834490684
O   O52       1.0  0.77860  0.54620  0.08148  1.0000 -0.539288189
O   O53       1.0  0.80360  0.31070  0.47924  1.0000 -0.5581391041
O   O54       1.0  0.71060  0.60230  0.33590  1.0000 -0.2204465379
C   C113      1.0  0.81280  0.42940  0.43220  1.0000 -0.0530637389
C   C114      1.0  0.74630  0.60250  0.10590  1.0000 0.6009954478
C   C115      1.0  0.84720  0.36480  0.46450  1.0000 0.6009954478
C   C116      1.0  0.73940  0.60110  0.16640  1.0000 -0.0683780914
C   C117      1.0  0.76940  0.53960  0.19660  1.0000 -0.0683780914
H   H65       1.0  0.79637  0.49992  0.17868  1.0000 0.1240836832
C   C118      1.0  0.85080  0.49700  0.42280  1.0000 -0.0683780914
H   H66       1.0  0.89995  0.50520  0.43806  1.0000 0.1401535259
C   C119      1.0  0.70140  0.66160  0.19410  1.0000 -0.0683780914
H   H67       1.0  0.68017  0.70261  0.17393  1.0000 0.1240836832
C   C120      1.0  0.74340  0.54230  0.36870  1.0000 0.2215520891
C   C121      1.0  0.75970  0.53690  0.25340  1.0000 -0.2268964683
H   H68       1.0  0.77734  0.49409  0.27349  1.0000 0.1296122068
C   C122      1.0  0.73860  0.41900  0.41030  1.0000 -0.0683780914
H   H69       1.0  0.71135  0.37316  0.41738  1.0000 0.1296122068
C   C123      1.0  0.70480  0.47690  0.37780  1.0000 -0.1947556284
H   H70       1.0  0.65555  0.46949  0.36257  1.0000 0.1401535259
C   C124      1.0  0.72330  0.59880  0.28010  1.0000 0.264809972
C   C125      1.0  0.81610  0.55550  0.38970  1.0000 -0.1758050357
H   H71       1.0  0.84228  0.60187  0.38238  1.0000 0.1401535259
C   C126      1.0  0.69490  0.66120  0.25060  1.0000 -0.2129099171
H   H72       1.0  0.67152  0.70291  0.26880  1.0000 0.1401535259
O   O55       1.0  0.22050  0.16250  0.58096  1.0000 -0.5512890254
O   O56       1.0  0.41880  0.86670  0.97483  1.0000 -0.5764633489
O   O57       1.0  0.30670  0.57690  0.02147  1.0000 -0.7734769133
O   O58       1.0  0.27860  0.04620  0.58148  1.0000 -0.539288189
O   O59       1.0  0.30360  0.81070  0.97924  1.0000 -0.5581391041
O   O60       1.0  0.21060  0.10230  0.83590  1.0000 -0.2204465379
C   C127      1.0  0.31280  0.92940  0.93220  1.0000 -0.0530637389
C   C128      1.0  0.24630  0.10250  0.60590  1.0000 0.6009954478
C   C129      1.0  0.34720  0.86480  0.96450  1.0000 0.6009954478
C   C130      1.0  0.23940  0.10110  0.66640  1.0000 -0.0683780914
C   C131      1.0  0.26940  0.03960  0.69660  1.0000 -0.0683780914
H   H73       1.0  0.29637  0.99992  0.67868  1.0000 0.1240836832
C   C132      1.0  0.35080  0.99700  0.92280  1.0000 -0.0683780914
H   H74       1.0  0.39995  0.00520  0.93806  1.0000 0.1401535259
C   C133      1.0  0.20140  0.16160  0.69410  1.0000 -0.0683780914
H   H75       1.0  0.18017  0.20261  0.67393  1.0000 0.1240836832
C   C134      1.0  0.24340  0.04230  0.86870  1.0000 0.2215520891
C   C135      1.0  0.25970  0.03690  0.75340  1.0000 -0.2268964683
H   H76       1.0  0.27734  0.99409  0.77349  1.0000 0.1296122068
C   C136      1.0  0.23860  0.91900  0.91030  1.0000 -0.0683780914
H   H77       1.0  0.21135  0.87316  0.91738  1.0000 0.1296122068
C   C137      1.0  0.20480  0.97690  0.87780  1.0000 -0.1951327023
H   H78       1.0  0.15555  0.96949  0.86257  1.0000 0.1401535259
C   C138      1.0  0.22330  0.09880  0.78010  1.0000 0.264809972
C   C139      1.0  0.31610  0.05550  0.88970  1.0000 -0.1758050357
H   H79       1.0  0.34228  0.10187  0.88238  1.0000 0.1401535259
C   C140      1.0  0.19490  0.16120  0.75060  1.0000 -0.2129099171
H   H80       1.0  0.17152  0.20291  0.76880  1.0000 0.1452390703
O   O61       1.0  0.27950  0.33750  0.08096  1.0000 -0.5512890254
O   O62       1.0  0.08120  0.63330  0.47483  1.0000 -0.5764633489
O   O63       1.0  0.19330  0.92310  0.52147  1.0000 -0.7734769133
O   O64       1.0  0.22140  0.45380  0.08148  1.0000 -0.539288189
O   O65       1.0  0.19640  0.68930  0.47924  1.0000 -0.5581391041
O   O66       1.0  0.28940  0.39770  0.33590  1.0000 -0.2204465379
C   C141      1.0  0.18720  0.57060  0.43220  1.0000 -0.0530637389
C   C142      1.0  0.25370  0.39750  0.10590  1.0000 0.6009954478
C   C143      1.0  0.15280  0.63520  0.46450  1.0000 0.6009954478
C   C144      1.0  0.26060  0.39890  0.16640  1.0000 -0.0683780914
C   C145      1.0  0.23060  0.46040  0.19660  1.0000 -0.0683780914
H   H81       1.0  0.20363  0.50008  0.17868  1.0000 0.1240836832
C   C146      1.0  0.14920  0.50300  0.42280  1.0000 -0.0683780914
H   H82       1.0  0.10005  0.49480  0.43806  1.0000 0.1401535259
C   C147      1.0  0.29860  0.33840  0.19410  1.0000 -0.0683780914
H   H83       1.0  0.31983  0.29739  0.17393  1.0000 0.1240836832
C   C148      1.0  0.25660  0.45770  0.36870  1.0000 0.2215520891
C   C149      1.0  0.24030  0.46310  0.25340  1.0000 -0.2268964683
H   H84       1.0  0.22266  0.50591  0.27349  1.0000 0.1296122068
C   C150      1.0  0.26140  0.58100  0.41030  1.0000 -0.0683780914
H   H85       1.0  0.28865  0.62684  0.41738  1.0000 0.1296122068
C   C151      1.0  0.29520  0.52310  0.37780  1.0000 -0.1947556284
H   H86       1.0  0.34445  0.53051  0.36257  1.0000 0.1401535259
C   C152      1.0  0.27670  0.40120  0.28010  1.0000 0.264809972
C   C153      1.0  0.18390  0.44450  0.38970  1.0000 -0.1758050357
H   H87       1.0  0.15772  0.39813  0.38238  1.0000 0.1401535259
C   C154      1.0  0.30510  0.33880  0.25060  1.0000 -0.2129099171
H   H88       1.0  0.32848  0.29709  0.26880  1.0000 0.1452390703
O   O67       1.0  0.77950  0.83750  0.58096  1.0000 -0.5512890254
O   O68       1.0  0.58120  0.13330  0.97483  1.0000 -0.5764633489
O   O69       1.0  0.69330  0.42310  0.02147  1.0000 -0.7734769133
O   O70       1.0  0.72140  0.95380  0.58148  1.0000 -0.539288189
O   O71       1.0  0.69640  0.18930  0.97924  1.0000 -0.5581391041
O   O72       1.0  0.78940  0.89770  0.83590  1.0000 -0.2204465379
C   C155      1.0  0.68720  0.07060  0.93220  1.0000 -0.0530637389
C   C156      1.0  0.75370  0.89750  0.60590  1.0000 0.6009954478
C   C157      1.0  0.65280  0.13520  0.96450  1.0000 0.6009954478
C   C158      1.0  0.76060  0.89890  0.66640  1.0000 -0.0683780914
C   C159      1.0  0.73060  0.96040  0.69660  1.0000 -0.0683780914
H   H89       1.0  0.70363  0.00008  0.67868  1.0000 0.1240836832
C   C160      1.0  0.64920  0.00300  0.92280  1.0000 -0.0683780914
H   H90       1.0  0.60005  0.99480  0.93806  1.0000 0.1401535259
C   C161      1.0  0.79860  0.83840  0.69410  1.0000 -0.0683780914
H   H91       1.0  0.81983  0.79739  0.67393  1.0000 0.1240836832
C   C162      1.0  0.75660  0.95770  0.86870  1.0000 0.2215520891
C   C163      1.0  0.74030  0.96310  0.75340  1.0000 -0.2268964683
H   H92       1.0  0.72266  0.00591  0.77349  1.0000 0.1296122068
C   C164      1.0  0.76140  0.08100  0.91030  1.0000 -0.0683780914
H   H93       1.0  0.78865  0.12684  0.91738  1.0000 0.1296122068
C   C165      1.0  0.79520  0.02310  0.87780  1.0000 -0.1947556284
H   H94       1.0  0.84445  0.03051  0.86257  1.0000 0.1401535259
C   C166      1.0  0.77670  0.90120  0.78010  1.0000 0.264809972
C   C167      1.0  0.68390  0.94450  0.88970  1.0000 -0.1758050357
H   H95       1.0  0.65772  0.89813  0.88238  1.0000 0.1401535259
C   C168      1.0  0.80510  0.83880  0.75060  1.0000 -0.2129099171
H   H96       1.0  0.82848  0.79709  0.76880  1.0000 0.1401535259
O   O73       1.0  0.66250  0.27950  0.08096  1.0000 -0.5512890254
O   O74       1.0  0.36670  0.08120  0.47483  1.0000 -0.5764633489
O   O75       1.0  0.07690  0.19330  0.52147  1.0000 -0.7734769133
O   O76       1.0  0.54620  0.22140  0.08148  1.0000 -0.539288189
O   O77       1.0  0.31070  0.19640  0.47924  1.0000 -0.5581391041
O   O78       1.0  0.60230  0.28940  0.33590  1.0000 -0.2204465379
C   C169      1.0  0.42940  0.18720  0.43220  1.0000 -0.0530637389
C   C170      1.0  0.60250  0.25370  0.10590  1.0000 0.6009954478
C   C171      1.0  0.36480  0.15280  0.46450  1.0000 0.6009954478
C   C172      1.0  0.60110  0.26060  0.16640  1.0000 -0.0683780914
C   C173      1.0  0.53960  0.23060  0.19660  1.0000 -0.0683780914
H   H97       1.0  0.49992  0.20363  0.17868  1.0000 0.1240836832
C   C174      1.0  0.49700  0.14920  0.42280  1.0000 -0.0683780914
H   H98       1.0  0.50520  0.10005  0.43806  1.0000 0.1401535259
C   C175      1.0  0.66160  0.29860  0.19410  1.0000 -0.0683780914
H   H99       1.0  0.70261  0.31983  0.17393  1.0000 0.1240836832
C   C176      1.0  0.54230  0.25660  0.36870  1.0000 0.2215520891
C   C177      1.0  0.53690  0.24030  0.25340  1.0000 -0.2268964683
H   H100      1.0  0.49409  0.22266  0.27349  1.0000 0.1296122068
C   C178      1.0  0.41900  0.26140  0.41030  1.0000 -0.0683780914
H   H101      1.0  0.37316  0.28865  0.41738  1.0000 0.1296122068
C   C179      1.0  0.47690  0.29520  0.37780  1.0000 -0.1947556284
H   H102      1.0  0.46949  0.34445  0.36257  1.0000 0.1401535259
C   C180      1.0  0.59880  0.27670  0.28010  1.0000 0.264809972
C   C181      1.0  0.55550  0.18390  0.38970  1.0000 -0.1758050357
H   H103      1.0  0.60187  0.15772  0.38238  1.0000 0.1401535259
C   C182      1.0  0.66120  0.30510  0.25060  1.0000 -0.2129099171
H   H104      1.0  0.70291  0.32848  0.26880  1.0000 0.1401535259
O   O79       1.0  0.16250  0.77950  0.58096  1.0000 -0.5512890254
O   O80       1.0  0.86670  0.58120  0.97483  1.0000 -0.5764633489
O   O81       1.0  0.57690  0.69330  0.02147  1.0000 -0.7734769133
O   O82       1.0  0.04620  0.72140  0.58148  1.0000 -0.539288189
O   O83       1.0  0.81070  0.69640  0.97924  1.0000 -0.5581391041
O   O84       1.0  0.10230  0.78940  0.83590  1.0000 -0.2204465379
C   C183      1.0  0.92940  0.68720  0.93220  1.0000 -0.0530637389
C   C184      1.0  0.10250  0.75370  0.60590  1.0000 0.6009954478
C   C185      1.0  0.86480  0.65280  0.96450  1.0000 0.6009954478
C   C186      1.0  0.10110  0.76060  0.66640  1.0000 -0.0683780914
C   C187      1.0  0.03960  0.73060  0.69660  1.0000 -0.0683780914
H   H105      1.0  0.99992  0.70363  0.67868  1.0000 0.1240836832
C   C188      1.0  0.99700  0.64920  0.92280  1.0000 -0.0683780914
H   H106      1.0  0.00520  0.60005  0.93806  1.0000 0.1401535259
C   C189      1.0  0.16160  0.79860  0.69410  1.0000 -0.0683780914
H   H107      1.0  0.20261  0.81983  0.67393  1.0000 0.1240836832
C   C190      1.0  0.04230  0.75660  0.86870  1.0000 0.2215520891
C   C191      1.0  0.03690  0.74030  0.75340  1.0000 -0.2268964683
H   H108      1.0  0.99409  0.72266  0.77349  1.0000 0.1296122068
C   C192      1.0  0.91900  0.76140  0.91030  1.0000 -0.0683780914
H   H109      1.0  0.87316  0.78865  0.91738  1.0000 0.1296122068
C   C193      1.0  0.97690  0.79520  0.87780  1.0000 -0.1947556284
H   H110      1.0  0.96949  0.84445  0.86257  1.0000 0.1401535259
C   C194      1.0  0.09880  0.77670  0.78010  1.0000 0.264809972
C   C195      1.0  0.05550  0.68390  0.88970  1.0000 -0.1758050357
H   H111      1.0  0.10187  0.65772  0.88238  1.0000 0.1401535259
C   C196      1.0  0.16120  0.80510  0.75060  1.0000 -0.2129099171
H   H112      1.0  0.20291  0.82848  0.76880  1.0000 0.1452390703
O   O85       1.0  0.33750  0.72050  0.08096  1.0000 -0.5512890254
O   O86       1.0  0.63330  0.91880  0.47483  1.0000 -0.5764633489
O   O87       1.0  0.92310  0.80670  0.52147  1.0000 -0.7734769133
O   O88       1.0  0.45380  0.77860  0.08148  1.0000 -0.539288189
O   O89       1.0  0.68930  0.80360  0.47924  1.0000 -0.5581391041
O   O90       1.0  0.39770  0.71060  0.33590  1.0000 -0.2204465379
C   C197      1.0  0.57060  0.81280  0.43220  1.0000 -0.0530637389
C   C198      1.0  0.39750  0.74630  0.10590  1.0000 0.6009954478
C   C199      1.0  0.63520  0.84720  0.46450  1.0000 0.6009954478
C   C200      1.0  0.39890  0.73940  0.16640  1.0000 -0.0683780914
C   C201      1.0  0.46040  0.76940  0.19660  1.0000 -0.0683780914
H   H113      1.0  0.50008  0.79637  0.17868  1.0000 0.1240836832
C   C202      1.0  0.50300  0.85080  0.42280  1.0000 -0.0683780914
H   H114      1.0  0.49480  0.89995  0.43806  1.0000 0.1401535259
C   C203      1.0  0.33840  0.70140  0.19410  1.0000 -0.0683780914
H   H115      1.0  0.29739  0.68017  0.17393  1.0000 0.1240836832
C   C204      1.0  0.45770  0.74340  0.36870  1.0000 0.2215520891
C   C205      1.0  0.46310  0.75970  0.25340  1.0000 -0.2268964683
H   H116      1.0  0.50591  0.77734  0.27349  1.0000 0.1296122068
C   C206      1.0  0.58100  0.73860  0.41030  1.0000 -0.0683780914
H   H117      1.0  0.62684  0.71135  0.41738  1.0000 0.1296122068
C   C207      1.0  0.52310  0.70480  0.37780  1.0000 -0.1947556284
H   H118      1.0  0.53051  0.65555  0.36257  1.0000 0.1401535259
C   C208      1.0  0.40120  0.72330  0.28010  1.0000 0.264809972
C   C209      1.0  0.44450  0.81610  0.38970  1.0000 -0.1758050357
H   H119      1.0  0.39813  0.84228  0.38238  1.0000 0.1401535259
C   C210      1.0  0.33880  0.69490  0.25060  1.0000 -0.2129099171
H   H120      1.0  0.29709  0.67152  0.26880  1.0000 0.1452390703
O   O91       1.0  0.83750  0.22050  0.58096  1.0000 -0.5512890254
O   O92       1.0  0.13330  0.41880  0.97483  1.0000 -0.5764633489
O   O93       1.0  0.42310  0.30670  0.02147  1.0000 -0.7734769133
O   O94       1.0  0.95380  0.27860  0.58148  1.0000 -0.539288189
O   O95       1.0  0.18930  0.30360  0.97924  1.0000 -0.5581391041
O   O96       1.0  0.89770  0.21060  0.83590  1.0000 -0.2204465379
C   C211      1.0  0.07060  0.31280  0.93220  1.0000 -0.0530637389
C   C212      1.0  0.89750  0.24630  0.60590  1.0000 0.6009954478
C   C213      1.0  0.13520  0.34720  0.96450  1.0000 0.6009954478
C   C214      1.0  0.89890  0.23940  0.66640  1.0000 -0.0683780914
C   C215      1.0  0.96040  0.26940  0.69660  1.0000 -0.0683780914
H   H121      1.0  0.00008  0.29637  0.67868  1.0000 0.1240836832
C   C216      1.0  0.00300  0.35080  0.92280  1.0000 -0.0683780914
H   H122      1.0  0.99480  0.39995  0.93806  1.0000 0.1401535259
C   C217      1.0  0.83840  0.20140  0.69410  1.0000 -0.0683780914
H   H123      1.0  0.79739  0.18017  0.67393  1.0000 0.1240836832
C   C218      1.0  0.95770  0.24340  0.86870  1.0000 0.2215520891
C   C219      1.0  0.96310  0.25970  0.75340  1.0000 -0.2268964683
H   H124      1.0  0.00591  0.27734  0.77349  1.0000 0.1296122068
C   C220      1.0  0.08100  0.23860  0.91030  1.0000 -0.0683780914
H   H125      1.0  0.12684  0.21135  0.91738  1.0000 0.1296122068
C   C221      1.0  0.02310  0.20480  0.87780  1.0000 -0.1947556284
H   H126      1.0  0.03051  0.15555  0.86257  1.0000 0.1401535259
C   C222      1.0  0.90120  0.22330  0.78010  1.0000 0.264809972
C   C223      1.0  0.94450  0.31610  0.88970  1.0000 -0.1758050357
H   H127      1.0  0.89813  0.34228  0.88238  1.0000 0.1401535259
C   C224      1.0  0.83880  0.19490  0.75060  1.0000 -0.2129099171
H   H128      1.0  0.79709  0.17152  0.76880  1.0000 0.1401535259
Sc  Sc1       1.0  0.19309  0.19309  0.50000  1.0000 1.6679523242
Sc  Sc2       1.0  0.69309  0.69309  0.00000  1.0000 1.6679523242
Sc  Sc3       1.0  0.80691  0.80691  0.50000  1.0000 1.6679523242
Sc  Sc4       1.0  0.30691  0.30691  0.00000  1.0000 1.6679523242
Sc  Sc5       1.0  0.80691  0.19309  0.50000  1.0000 1.6679523242
Sc  Sc6       1.0  0.30691  0.69309  0.00000  1.0000 1.6679523242
Sc  Sc7       1.0  0.19309  0.80691  0.50000  1.0000 1.6679523242
Sc  Sc8       1.0  0.69309  0.30691  0.00000  1.0000 1.6679523242
Sc  Sc9       1.0  0.28014  0.00000  0.50000  1.0000 1.663502917
Sc  Sc10      1.0  0.78014  0.50000  0.00000  1.0000 1.6679523242
Sc  Sc11      1.0  0.71986  0.00000  0.50000  1.0000 1.663502917
Sc  Sc12      1.0  0.21986  0.50000  0.00000  1.0000 1.6679523242
Sc  Sc13      1.0  0.00000  0.28014  0.50000  1.0000 1.663502917
Sc  Sc14      1.0  0.50000  0.78014  0.00000  1.0000 1.6679523242
Sc  Sc15      1.0  0.00000  0.71986  0.50000  1.0000 1.663502917
Sc  Sc16      1.0  0.50000  0.21986  0.00000  1.0000 1.6679523242
