# DDEC6 charges by PACMAN v1.1 (https://github.com/mtap-research/PACMAN-charge/)
data_2020[Zn][hcb]2[FSR]5
_chemical_formula_sum              "Zn4 H96 C136 N24 O32"
_cell_length_a       11.371
_cell_length_b       15.044
_cell_length_c       22.731
_cell_angle_alpha    90
_cell_angle_beta     106.591
_cell_angle_gamma    90

_symmetry_space_group_name_H-M    "P 1"
_symmetry_Int_Tables_number       1

loop_
  _symmetry_equiv_pos_as_xyz
  'x, y, z'

loop_
  _atom_site_type_symbol
  _atom_site_label
  _atom_site_symmetry_multiplicity
  _atom_site_fract_x
  _atom_site_fract_y
  _atom_site_fract_z
  _atom_site_occupancy
  _atom_site_charge
Zn  Zn1       1.0  0.05499  0.35670  0.51604  1.0000 0.7859821803
Zn  Zn2       1.0  0.05499  0.64330  0.01604  1.0000 0.7859821803
Zn  Zn3       1.0  0.94501  0.35670  0.98396  1.0000 0.7859821803
Zn  Zn4       1.0  0.94501  0.64330  0.48396  1.0000 0.7859821803
H   H1        1.0  0.06409  0.58015  0.64971  1.0000 0.1118534584
H   H2        1.0  0.11025  0.66233  0.73850  1.0000 0.1306286652
H   H3        1.0  0.42009  0.52554  0.80337  1.0000 0.119536024
H   H4        1.0  0.37800  0.44623  0.71397  1.0000 0.119536024
H   H5        1.0  0.26531  0.71784  0.82722  1.0000 0.119536024
H   H6        1.0  0.46531  0.73131  0.79604  1.0000 0.119536024
H   H7        1.0  0.67233  0.74957  0.83572  1.0000 0.1118534584
H   H8        1.0  0.66228  0.63028  0.99128  1.0000 0.119536024
H   H9        1.0  0.45104  0.61459  0.95185  1.0000 0.119536024
H   H10       1.0  0.15564  0.72949  0.90941  1.0000 0.1306286652
H   H11       1.0  0.17851  0.48320  0.96346  1.0000 0.1306286652
H   H12       1.0  0.28139  0.91472  0.44976  1.0000 0.1118534584
H   H13       1.0  0.21737  0.01662  0.51035  1.0000 0.119536024
H   H14       1.0  0.52294  0.96847  0.64637  1.0000 0.119536024
H   H15       1.0  0.58969  0.87479  0.58430  1.0000 0.119536024
H   H16       1.0  0.39737  0.10598  0.64746  1.0000 0.1118534584
H   H17       1.0  0.25771  0.89910  0.64613  1.0000 0.1306286652
H   H18       1.0  0.18127  0.84016  0.72031  1.0000 0.1306286652
H   H19       1.0  0.24079  0.07252  0.81056  1.0000 0.1118534584
H   H20       1.0  0.32710  0.12890  0.73698  1.0000 0.119536024
H   H21       1.0  0.29342  0.24244  0.58529  1.0000 0.1306286652
H   H22       1.0  0.95568  0.16273  0.54211  1.0000 0.1118534584
H   H23       1.0  0.33914  0.80259  0.42362  1.0000 0.3443775064
H   H24       1.0  0.08619  0.94855  0.87771  1.0000 0.3695894069
H   H25       1.0  0.06409  0.41985  0.14971  1.0000 0.1118534584
H   H26       1.0  0.11025  0.33767  0.23850  1.0000 0.1306286652
H   H27       1.0  0.42009  0.47446  0.30337  1.0000 0.119536024
H   H28       1.0  0.37800  0.55377  0.21397  1.0000 0.119536024
H   H29       1.0  0.26531  0.28216  0.32722  1.0000 0.119536024
H   H30       1.0  0.46531  0.26869  0.29604  1.0000 0.119536024
H   H31       1.0  0.67233  0.25043  0.33572  1.0000 0.1118534584
H   H32       1.0  0.66228  0.36972  0.49128  1.0000 0.119536024
H   H33       1.0  0.45104  0.38541  0.45185  1.0000 0.119536024
H   H34       1.0  0.15564  0.27051  0.40941  1.0000 0.1306286652
H   H35       1.0  0.17851  0.51680  0.46346  1.0000 0.1306286652
H   H36       1.0  0.28139  0.08528  0.94976  1.0000 0.1118534584
H   H37       1.0  0.21737  0.98338  0.01035  1.0000 0.119536024
H   H38       1.0  0.52294  0.03153  0.14637  1.0000 0.119536024
H   H39       1.0  0.58969  0.12521  0.08430  1.0000 0.119536024
H   H40       1.0  0.39737  0.89402  0.14746  1.0000 0.1118534584
H   H41       1.0  0.25771  0.10090  0.14613  1.0000 0.119536024
H   H42       1.0  0.18127  0.15984  0.22031  1.0000 0.1306286652
H   H43       1.0  0.24079  0.92748  0.31056  1.0000 0.1118534584
H   H44       1.0  0.32710  0.87110  0.23698  1.0000 0.119536024
H   H45       1.0  0.29342  0.75756  0.08529  1.0000 0.1306286652
H   H46       1.0  0.95568  0.83727  0.04211  1.0000 0.1118534584
H   H47       1.0  0.33914  0.19741  0.92362  1.0000 0.3443775064
H   H48       1.0  0.08619  0.05145  0.37771  1.0000 0.3695894069
H   H49       1.0  0.93591  0.58015  0.85029  1.0000 0.1118534584
H   H50       1.0  0.88975  0.66233  0.76150  1.0000 0.1306286652
H   H51       1.0  0.57991  0.52554  0.69663  1.0000 0.119536024
H   H52       1.0  0.62200  0.44623  0.78603  1.0000 0.119536024
H   H53       1.0  0.73469  0.71784  0.67278  1.0000 0.119536024
H   H54       1.0  0.53469  0.73131  0.70396  1.0000 0.119536024
H   H55       1.0  0.32767  0.74957  0.66428  1.0000 0.1118534584
H   H56       1.0  0.33772  0.63028  0.50872  1.0000 0.119536024
H   H57       1.0  0.54896  0.61459  0.54815  1.0000 0.119536024
H   H58       1.0  0.84436  0.72949  0.59059  1.0000 0.1306286652
H   H59       1.0  0.82149  0.48320  0.53654  1.0000 0.1306286652
H   H60       1.0  0.71861  0.91472  0.05024  1.0000 0.1118534584
H   H61       1.0  0.78263  0.01662  0.98965  1.0000 0.119536024
H   H62       1.0  0.47706  0.96847  0.85363  1.0000 0.119536024
H   H63       1.0  0.41031  0.87479  0.91570  1.0000 0.119536024
H   H64       1.0  0.60263  0.10598  0.85254  1.0000 0.1118534584
H   H65       1.0  0.74229  0.89910  0.85387  1.0000 0.119536024
H   H66       1.0  0.81873  0.84016  0.77969  1.0000 0.1306286652
H   H67       1.0  0.75921  0.07252  0.68944  1.0000 0.1118534584
H   H68       1.0  0.67290  0.12890  0.76302  1.0000 0.119536024
H   H69       1.0  0.70658  0.24244  0.91471  1.0000 0.1306286652
H   H70       1.0  0.04432  0.16273  0.95789  1.0000 0.1118534584
H   H71       1.0  0.66086  0.80259  0.07638  1.0000 0.3443775064
H   H72       1.0  0.91381  0.94855  0.62229  1.0000 0.3695894069
H   H73       1.0  0.93591  0.41985  0.35029  1.0000 0.1118534584
H   H74       1.0  0.88975  0.33767  0.26150  1.0000 0.1306286652
H   H75       1.0  0.57991  0.47446  0.19663  1.0000 0.119536024
H   H76       1.0  0.62200  0.55377  0.28603  1.0000 0.119536024
H   H77       1.0  0.73469  0.28216  0.17278  1.0000 0.119536024
H   H78       1.0  0.53469  0.26869  0.20396  1.0000 0.119536024
H   H79       1.0  0.32767  0.25043  0.16428  1.0000 0.1118534584
H   H80       1.0  0.33772  0.36972  0.00872  1.0000 0.119536024
H   H81       1.0  0.54896  0.38541  0.04815  1.0000 0.119536024
H   H82       1.0  0.84436  0.27051  0.09059  1.0000 0.1306286652
H   H83       1.0  0.82149  0.51680  0.03654  1.0000 0.1306286652
H   H84       1.0  0.71861  0.08528  0.55024  1.0000 0.1118534584
H   H85       1.0  0.78263  0.98338  0.48965  1.0000 0.119536024
H   H86       1.0  0.47706  0.03153  0.35363  1.0000 0.119536024
H   H87       1.0  0.41031  0.12521  0.41570  1.0000 0.119536024
H   H88       1.0  0.60263  0.89402  0.35254  1.0000 0.1118534584
H   H89       1.0  0.74229  0.10090  0.35387  1.0000 0.119536024
H   H90       1.0  0.81873  0.15984  0.27969  1.0000 0.1306286652
H   H91       1.0  0.75921  0.92748  0.18944  1.0000 0.1118534584
H   H92       1.0  0.67290  0.87110  0.26302  1.0000 0.119536024
H   H93       1.0  0.70658  0.75756  0.41471  1.0000 0.1306286652
H   H94       1.0  0.04432  0.83727  0.45789  1.0000 0.1118534584
H   H95       1.0  0.66086  0.19741  0.57638  1.0000 0.3443775064
H   H96       1.0  0.91381  0.05145  0.12229  1.0000 0.3695894069
C   C1        1.0  0.19090  0.45080  0.61350  1.0000 0.552180577
C   C2        1.0  0.21700  0.50450  0.67153  1.0000 -0.022174161
C   C3        1.0  0.13680  0.56940  0.68030  1.0000 -0.0898695775
C   C4        1.0  0.16400  0.61810  0.73390  1.0000 -0.1420310028
C   C5        1.0  0.26990  0.60230  0.78078  1.0000 0.0659928532
C   C6        1.0  0.34850  0.53730  0.77230  1.0000 -0.1420310028
C   C7        1.0  0.32300  0.48950  0.71870  1.0000 -0.1000303788
C   C8        1.0  0.29890  0.65840  0.83929  1.0000 -0.0312548308
C   C9        1.0  0.43650  0.66980  0.86916  1.0000 0.0659928532
C   C10       1.0  0.50430  0.71060  0.83533  1.0000 -0.151171092
C   C11       1.0  0.62850  0.72100  0.85905  1.0000 -0.1000303788
C   C12       1.0  0.69050  0.68990  0.91694  1.0000 -0.022174161
C   C13       1.0  0.62300  0.65040  0.95190  1.0000 -0.1000303788
C   C14       1.0  0.49590  0.64070  0.92810  1.0000 -0.1317697503
C   C15       1.0  0.82670  0.69950  0.94261  1.0000 0.552180577
C   C16       1.0  0.17380  0.66910  0.91384  1.0000 0.1118534584
C   C17       1.0  0.18760  0.53460  0.94250  1.0000 0.1721631027
C   C18       1.0  0.48800  0.82170  0.47170  1.0000 0.5373173839
C   C19       1.0  0.44130  0.88470  0.51020  1.0000 -0.0570280031
C   C20       1.0  0.33100  0.92670  0.48920  1.0000 -0.1317697503
C   C21       1.0  0.29170  0.98710  0.52590  1.0000 -0.1317697503
C   C22       1.0  0.36290  0.00370  0.58560  1.0000 0.0776195637
C   C23       1.0  0.47430  0.95910  0.60640  1.0000 -0.151171092
C   C24       1.0  0.51370  0.90230  0.56960  1.0000 -0.0794406702
C   C25       1.0  0.32710  0.06700  0.62980  1.0000 -0.0312548308
C   C26       1.0  0.29420  0.02130  0.68240  1.0000 0.0659928532
C   C27       1.0  0.25400  0.93420  0.67920  1.0000 -0.1317697503
C   C28       1.0  0.20900  0.89860  0.72390  1.0000 -0.0898695775
C   C29       1.0  0.20420  0.94790  0.77350  1.0000 -0.0532772672
C   C30       1.0  0.24590  0.03720  0.77780  1.0000 -0.1149147712
C   C31       1.0  0.29450  0.07180  0.73280  1.0000 -0.1603600942
C   C32       1.0  0.14880  0.90990  0.82020  1.0000 0.5373173839
C   C33       1.0  0.22330  0.20800  0.57991  1.0000 0.119536024
C   C34       1.0  0.04080  0.16310  0.55720  1.0000 0.1500166244
C   C35       1.0  0.19090  0.54920  0.11350  1.0000 0.552180577
C   C36       1.0  0.21700  0.49550  0.17153  1.0000 -0.022174161
C   C37       1.0  0.13680  0.43060  0.18030  1.0000 -0.0898695775
C   C38       1.0  0.16400  0.38190  0.23390  1.0000 -0.1420310028
C   C39       1.0  0.26990  0.39770  0.28078  1.0000 0.0659928532
C   C40       1.0  0.34850  0.46270  0.27230  1.0000 -0.1420310028
C   C41       1.0  0.32300  0.51050  0.21870  1.0000 -0.1000303788
C   C42       1.0  0.29890  0.34160  0.33929  1.0000 -0.0312548308
C   C43       1.0  0.43650  0.33020  0.36916  1.0000 0.0659928532
C   C44       1.0  0.50430  0.28940  0.33533  1.0000 -0.151171092
C   C45       1.0  0.62850  0.27900  0.35905  1.0000 -0.1000303788
C   C46       1.0  0.69050  0.31010  0.41694  1.0000 -0.022174161
C   C47       1.0  0.62300  0.34960  0.45190  1.0000 -0.1000303788
C   C48       1.0  0.49590  0.35930  0.42810  1.0000 -0.1317697503
C   C49       1.0  0.82670  0.30050  0.44261  1.0000 0.552180577
C   C50       1.0  0.17380  0.33090  0.41384  1.0000 0.1118534584
C   C51       1.0  0.18760  0.46540  0.44250  1.0000 0.1721631027
C   C52       1.0  0.48800  0.17830  0.97170  1.0000 0.5373173839
C   C53       1.0  0.44130  0.11530  0.01020  1.0000 -0.0570280031
C   C54       1.0  0.33100  0.07330  0.98920  1.0000 -0.1317697503
C   C55       1.0  0.29170  0.01290  0.02590  1.0000 -0.1317697503
C   C56       1.0  0.36290  0.99630  0.08560  1.0000 0.0776195637
C   C57       1.0  0.47430  0.04090  0.10640  1.0000 -0.151171092
C   C58       1.0  0.51370  0.09770  0.06960  1.0000 -0.0794406702
C   C59       1.0  0.32710  0.93300  0.12980  1.0000 -0.0312548308
C   C60       1.0  0.29420  0.97870  0.18240  1.0000 0.0659928532
C   C61       1.0  0.25400  0.06580  0.17920  1.0000 -0.1317697503
C   C62       1.0  0.20900  0.10140  0.22390  1.0000 -0.0898695775
C   C63       1.0  0.20420  0.05210  0.27350  1.0000 -0.0532772672
C   C64       1.0  0.24590  0.96280  0.27780  1.0000 -0.1158493944
C   C65       1.0  0.29450  0.92820  0.23280  1.0000 -0.1603600942
C   C66       1.0  0.14880  0.09010  0.32020  1.0000 0.5373173839
C   C67       1.0  0.22330  0.79200  0.07991  1.0000 0.119536024
C   C68       1.0  0.04080  0.83690  0.05720  1.0000 0.1500166244
C   C69       1.0  0.80910  0.45080  0.88650  1.0000 0.552180577
C   C70       1.0  0.78300  0.50450  0.82847  1.0000 -0.022174161
C   C71       1.0  0.86320  0.56940  0.81970  1.0000 -0.0898695775
C   C72       1.0  0.83600  0.61810  0.76610  1.0000 -0.1420310028
C   C73       1.0  0.73010  0.60230  0.71922  1.0000 0.0659928532
C   C74       1.0  0.65150  0.53730  0.72770  1.0000 -0.1420310028
C   C75       1.0  0.67700  0.48950  0.78130  1.0000 -0.1000303788
C   C76       1.0  0.70110  0.65840  0.66071  1.0000 -0.0312548308
C   C77       1.0  0.56350  0.66980  0.63084  1.0000 0.0659928532
C   C78       1.0  0.49570  0.71060  0.66467  1.0000 -0.151171092
C   C79       1.0  0.37150  0.72100  0.64095  1.0000 -0.1000303788
C   C80       1.0  0.30950  0.68990  0.58306  1.0000 -0.022174161
C   C81       1.0  0.37700  0.65040  0.54810  1.0000 -0.1000303788
C   C82       1.0  0.50410  0.64070  0.57190  1.0000 -0.1317697503
C   C83       1.0  0.17330  0.69950  0.55739  1.0000 0.552180577
C   C84       1.0  0.82620  0.66910  0.58616  1.0000 0.1118534584
C   C85       1.0  0.81240  0.53460  0.55750  1.0000 0.1721631027
C   C86       1.0  0.51200  0.82170  0.02830  1.0000 0.5373173839
C   C87       1.0  0.55870  0.88470  0.98980  1.0000 -0.0570280031
C   C88       1.0  0.66900  0.92670  0.01080  1.0000 -0.1317697503
C   C89       1.0  0.70830  0.98710  0.97410  1.0000 -0.1317697503
C   C90       1.0  0.63710  0.00370  0.91440  1.0000 0.0776195637
C   C91       1.0  0.52570  0.95910  0.89360  1.0000 -0.151171092
C   C92       1.0  0.48630  0.90230  0.93040  1.0000 -0.0794406702
C   C93       1.0  0.67290  0.06700  0.87020  1.0000 -0.0312548308
C   C94       1.0  0.70580  0.02130  0.81760  1.0000 0.0659928532
C   C95       1.0  0.74600  0.93420  0.82080  1.0000 -0.1317697503
C   C96       1.0  0.79100  0.89860  0.77610  1.0000 -0.0898695775
C   C97       1.0  0.79580  0.94790  0.72650  1.0000 -0.0532772672
C   C98       1.0  0.75410  0.03720  0.72220  1.0000 -0.1149147712
C   C99       1.0  0.70550  0.07180  0.76720  1.0000 -0.1603600942
C   C100      1.0  0.85120  0.90990  0.67980  1.0000 0.5373173839
C   C101      1.0  0.77670  0.20800  0.92009  1.0000 0.119536024
C   C102      1.0  0.95920  0.16310  0.94280  1.0000 0.1500166244
C   C103      1.0  0.80910  0.54920  0.38650  1.0000 0.552180577
C   C104      1.0  0.78300  0.49550  0.32847  1.0000 -0.022174161
C   C105      1.0  0.86320  0.43060  0.31970  1.0000 -0.0898695775
C   C106      1.0  0.83600  0.38190  0.26610  1.0000 -0.1420310028
C   C107      1.0  0.73010  0.39770  0.21922  1.0000 0.0659928532
C   C108      1.0  0.65150  0.46270  0.22770  1.0000 -0.1420310028
C   C109      1.0  0.67700  0.51050  0.28130  1.0000 -0.1000303788
C   C110      1.0  0.70110  0.34160  0.16071  1.0000 -0.0312548308
C   C111      1.0  0.56350  0.33020  0.13084  1.0000 0.0659928532
C   C112      1.0  0.49570  0.28940  0.16467  1.0000 -0.151171092
C   C113      1.0  0.37150  0.27900  0.14095  1.0000 -0.1000303788
C   C114      1.0  0.30950  0.31010  0.08306  1.0000 -0.022174161
C   C115      1.0  0.37700  0.34960  0.04810  1.0000 -0.1000303788
C   C116      1.0  0.50410  0.35930  0.07190  1.0000 -0.1317697503
C   C117      1.0  0.17330  0.30050  0.05739  1.0000 0.552180577
C   C118      1.0  0.82620  0.33090  0.08616  1.0000 0.1118534584
C   C119      1.0  0.81240  0.46540  0.05750  1.0000 0.1721631027
C   C120      1.0  0.51200  0.17830  0.52830  1.0000 0.5373173839
C   C121      1.0  0.55870  0.11530  0.48980  1.0000 -0.0570280031
C   C122      1.0  0.66900  0.07330  0.51080  1.0000 -0.1317697503
C   C123      1.0  0.70830  0.01290  0.47410  1.0000 -0.1317697503
C   C124      1.0  0.63710  0.99630  0.41440  1.0000 0.0776195637
C   C125      1.0  0.52570  0.04090  0.39360  1.0000 -0.151171092
C   C126      1.0  0.48630  0.09770  0.43040  1.0000 -0.0794406702
C   C127      1.0  0.67290  0.93300  0.37020  1.0000 -0.0312548308
C   C128      1.0  0.70580  0.97870  0.31760  1.0000 0.0659928532
C   C129      1.0  0.74600  0.06580  0.32080  1.0000 -0.1317697503
C   C130      1.0  0.79100  0.10140  0.27610  1.0000 -0.0898695775
C   C131      1.0  0.79580  0.05210  0.22650  1.0000 -0.0532772672
C   C132      1.0  0.75410  0.96280  0.22220  1.0000 -0.1158493944
C   C133      1.0  0.70550  0.92820  0.26720  1.0000 -0.1603600942
C   C134      1.0  0.85120  0.09010  0.17980  1.0000 0.5373173839
C   C135      1.0  0.77670  0.79200  0.42009  1.0000 0.119536024
C   C136      1.0  0.95920  0.83690  0.44280  1.0000 0.1500166244
N   N1        1.0  0.14080  0.61500  0.95198  1.0000 -0.310592752
N   N2        1.0  0.24650  0.53710  0.90077  1.0000 -0.2487415486
N   N3        1.0  0.23710  0.62390  0.88264  1.0000 0.1306286652
N   N4        1.0  0.10970  0.23560  0.55358  1.0000 -0.3173918688
N   N5        1.0  0.10400  0.09330  0.58371  1.0000 -0.265244823
N   N6        1.0  0.22210  0.12410  0.59743  1.0000 0.119536024
N   N7        1.0  0.14080  0.38500  0.45198  1.0000 -0.310592752
N   N8        1.0  0.24650  0.46290  0.40077  1.0000 -0.2487415486
N   N9        1.0  0.23710  0.37610  0.38264  1.0000 0.1306286652
N   N10       1.0  0.10970  0.76440  0.05358  1.0000 -0.3173918688
N   N11       1.0  0.10400  0.90670  0.08371  1.0000 -0.265244823
N   N12       1.0  0.22210  0.87590  0.09743  1.0000 0.119536024
N   N13       1.0  0.85920  0.61500  0.54802  1.0000 -0.310592752
N   N14       1.0  0.75350  0.53710  0.59923  1.0000 -0.2487415486
N   N15       1.0  0.76290  0.62390  0.61736  1.0000 0.1306286652
N   N16       1.0  0.89030  0.23560  0.94642  1.0000 -0.3173918688
N   N17       1.0  0.89600  0.09330  0.91629  1.0000 -0.265244823
N   N18       1.0  0.77790  0.12410  0.90257  1.0000 0.119536024
N   N19       1.0  0.85920  0.38500  0.04802  1.0000 -0.310592752
N   N20       1.0  0.75350  0.46290  0.09923  1.0000 -0.2487415486
N   N21       1.0  0.76290  0.37610  0.11736  1.0000 0.1306286652
N   N22       1.0  0.89030  0.76440  0.44642  1.0000 -0.3173918688
N   N23       1.0  0.89600  0.90670  0.41629  1.0000 -0.265244823
N   N24       1.0  0.77790  0.87590  0.40257  1.0000 0.119536024
O   O1        1.0  0.07950  0.44920  0.57953  1.0000 -0.5381274336
O   O2        1.0  0.27340  0.40750  0.60137  1.0000 -0.5517529213
O   O3        1.0  0.88300  0.75210  0.91830  1.0000 -0.5626726263
O   O4        1.0  0.87690  0.64946  0.98824  1.0000 -0.5517529213
O   O5        1.0  0.40820  0.80400  0.41920  1.0000 -0.4395882898
O   O6        1.0  0.59030  0.78810  0.48850  1.0000 -0.5074764006
O   O7        1.0  0.12380  0.83200  0.82110  1.0000 -0.5074764006
O   O8        1.0  0.13160  0.96910  0.85880  1.0000 -0.4337329679
O   O9        1.0  0.07950  0.55080  0.07953  1.0000 -0.5381274336
O   O10       1.0  0.27340  0.59250  0.10137  1.0000 -0.5517529213
O   O11       1.0  0.88300  0.24790  0.41830  1.0000 -0.5626726263
O   O12       1.0  0.87690  0.35054  0.48824  1.0000 -0.5517529213
O   O13       1.0  0.40820  0.19600  0.91920  1.0000 -0.4395882898
O   O14       1.0  0.59030  0.21190  0.98850  1.0000 -0.5074764006
O   O15       1.0  0.12380  0.16800  0.32110  1.0000 -0.5074764006
O   O16       1.0  0.13160  0.03090  0.35880  1.0000 -0.4337329679
O   O17       1.0  0.92050  0.44920  0.92047  1.0000 -0.5381274336
O   O18       1.0  0.72660  0.40750  0.89863  1.0000 -0.5517529213
O   O19       1.0  0.11700  0.75210  0.58170  1.0000 -0.5626726263
O   O20       1.0  0.12310  0.64946  0.51176  1.0000 -0.5517529213
O   O21       1.0  0.59180  0.80400  0.08080  1.0000 -0.4395882898
O   O22       1.0  0.40970  0.78810  0.01150  1.0000 -0.5074764006
O   O23       1.0  0.87620  0.83200  0.67890  1.0000 -0.5074764006
O   O24       1.0  0.86840  0.96910  0.64120  1.0000 -0.4337329679
O   O25       1.0  0.92050  0.55080  0.42047  1.0000 -0.5381274336
O   O26       1.0  0.72660  0.59250  0.39863  1.0000 -0.5517529213
O   O27       1.0  0.11700  0.24790  0.08170  1.0000 -0.5626726263
O   O28       1.0  0.12310  0.35054  0.01176  1.0000 -0.5517529213
O   O29       1.0  0.59180  0.19600  0.58080  1.0000 -0.4395882898
O   O30       1.0  0.40970  0.21190  0.51150  1.0000 -0.5074764006
O   O31       1.0  0.87620  0.16800  0.17890  1.0000 -0.5074764006
O   O32       1.0  0.86840  0.03090  0.14120  1.0000 -0.4337329679
