# DDEC6 charges by PACMAN v1.1 (https://github.com/mtap-research/PACMAN-charge/)
data_2021[U][hcb]2[FSR]1
_chemical_formula_sum              "U16 P12 H96 C96 O116"
_cell_length_a       15.5212
_cell_length_b       15.5212
_cell_length_c       18.712
_cell_angle_alpha    90
_cell_angle_beta     90
_cell_angle_gamma    120

_symmetry_space_group_name_H-M    "P 1"
_symmetry_Int_Tables_number       1

loop_
  _symmetry_equiv_pos_as_xyz
  'x, y, z'

loop_
  _atom_site_type_symbol
  _atom_site_label
  _atom_site_symmetry_multiplicity
  _atom_site_fract_x
  _atom_site_fract_y
  _atom_site_fract_z
  _atom_site_occupancy
  _atom_site_charge
U   U1        1.0  0.37877  0.09339  0.05423  1.0000 2.5101280767
U   U2        1.0  0.71462  0.62123  0.05423  1.0000 2.5101280767
U   U3        1.0  0.90661  0.28538  0.05423  1.0000 2.5101280767
U   U4        1.0  0.62123  0.90661  0.94577  1.0000 2.5101280767
U   U5        1.0  0.28538  0.37877  0.94577  1.0000 2.5101280767
U   U6        1.0  0.09339  0.71462  0.94577  1.0000 2.5101280767
U   U7        1.0  0.66667  0.33333  0.04388  1.0000 2.4716218867
U   U8        1.0  0.33333  0.66667  0.95612  1.0000 2.4716218867
U   U9        1.0  0.09339  0.37877  0.44577  1.0000 2.5101280767
U   U10       1.0  0.62123  0.71462  0.44577  1.0000 2.5101280767
U   U11       1.0  0.28538  0.90661  0.44577  1.0000 2.5101280767
U   U12       1.0  0.90661  0.62123  0.55423  1.0000 2.5101280767
U   U13       1.0  0.37877  0.28538  0.55423  1.0000 2.5101280767
U   U14       1.0  0.71462  0.09339  0.55423  1.0000 2.5101280767
U   U15       1.0  0.33333  0.66667  0.45612  1.0000 2.4716218867
U   U16       1.0  0.66667  0.33333  0.54388  1.0000 2.4716218867
P   P1        1.0  0.48337  0.36885  0.04709  1.0000 1.4076855836
P   P2        1.0  0.88548  0.51663  0.04709  1.0000 1.4076855836
P   P3        1.0  0.63115  0.11452  0.04709  1.0000 1.4076855836
P   P4        1.0  0.51663  0.63115  0.95291  1.0000 1.4076855836
P   P5        1.0  0.11452  0.48337  0.95291  1.0000 1.4076855836
P   P6        1.0  0.36885  0.88548  0.95291  1.0000 1.4076855836
P   P7        1.0  0.36885  0.48337  0.45291  1.0000 1.4076855836
P   P8        1.0  0.51663  0.88548  0.45291  1.0000 1.4076855836
P   P9        1.0  0.11452  0.63115  0.45291  1.0000 1.4076855836
P   P10       1.0  0.63115  0.51663  0.54709  1.0000 1.4076855836
P   P11       1.0  0.48337  0.11452  0.54709  1.0000 1.4076855836
P   P12       1.0  0.88548  0.36885  0.54709  1.0000 1.4076855836
H   H1        1.0  0.46686  0.45741  0.13851  1.0000 0.1739009578
H   H2        1.0  0.36385  0.36416  0.12117  1.0000 0.1533750478
H   H3        1.0  0.57381  0.44402  0.22875  1.0000 0.1431522328
H   H4        1.0  0.58526  0.36786  0.32938  1.0000 0.1208605427
H   H5        1.0  0.46165  0.21074  0.35930  1.0000 0.134012916
H   H6        1.0  0.32229  0.12973  0.28706  1.0000 0.1143237187
H   H7        1.0  0.19861  0.90941  0.06820  1.0000 0.3624328979
H   H8        1.0  0.18218  0.97102  0.02798  1.0000 0.3360815355
H   H9        1.0  0.99055  0.53314  0.13851  1.0000 0.1739009578
H   H10       1.0  0.00031  0.63615  0.12117  1.0000 0.1533750478
H   H11       1.0  0.87021  0.42619  0.22875  1.0000 0.1431522328
H   H12       1.0  0.78260  0.41474  0.32938  1.0000 0.1208605427
H   H13       1.0  0.74909  0.53835  0.35930  1.0000 0.134012916
H   H14       1.0  0.80744  0.67771  0.28706  1.0000 0.1143237187
H   H15       1.0  0.71080  0.80139  0.06820  1.0000 0.3624328979
H   H16       1.0  0.78884  0.81782  0.02798  1.0000 0.3360815355
H   H17       1.0  0.54259  0.00945  0.13851  1.0000 0.1739009578
H   H18       1.0  0.63584  0.99969  0.12117  1.0000 0.1533750478
H   H19       1.0  0.55598  0.12979  0.22875  1.0000 0.1431522328
H   H20       1.0  0.63214  0.21740  0.32938  1.0000 0.1208605427
H   H21       1.0  0.78926  0.25091  0.35930  1.0000 0.134012916
H   H22       1.0  0.87027  0.19256  0.28706  1.0000 0.1143237187
H   H23       1.0  0.09059  0.28920  0.06820  1.0000 0.3624328979
H   H24       1.0  0.02898  0.21116  0.02798  1.0000 0.3360815355
H   H25       1.0  0.53314  0.54259  0.86149  1.0000 0.1739009578
H   H26       1.0  0.63615  0.63584  0.87883  1.0000 0.1533750478
H   H27       1.0  0.42619  0.55598  0.77125  1.0000 0.1431522328
H   H28       1.0  0.41474  0.63214  0.67062  1.0000 0.1208605427
H   H29       1.0  0.53835  0.78926  0.64070  1.0000 0.134012916
H   H30       1.0  0.67771  0.87027  0.71294  1.0000 0.1143237187
H   H31       1.0  0.80139  0.09059  0.93180  1.0000 0.3624328979
H   H32       1.0  0.81782  0.02898  0.97202  1.0000 0.3360815355
H   H33       1.0  0.00945  0.46686  0.86149  1.0000 0.1739009578
H   H34       1.0  0.99969  0.36385  0.87883  1.0000 0.1533750478
H   H35       1.0  0.12979  0.57381  0.77125  1.0000 0.1431522328
H   H36       1.0  0.21740  0.58526  0.67062  1.0000 0.1208605427
H   H37       1.0  0.25091  0.46165  0.64070  1.0000 0.134012916
H   H38       1.0  0.19256  0.32229  0.71294  1.0000 0.1143237187
H   H39       1.0  0.28920  0.19861  0.93180  1.0000 0.3624328979
H   H40       1.0  0.21116  0.18218  0.97202  1.0000 0.3360815355
H   H41       1.0  0.45741  0.99055  0.86149  1.0000 0.1739009578
H   H42       1.0  0.36416  0.00031  0.87883  1.0000 0.1533750478
H   H43       1.0  0.44402  0.87021  0.77125  1.0000 0.1431522328
H   H44       1.0  0.36786  0.78260  0.67062  1.0000 0.1208605427
H   H45       1.0  0.21074  0.74909  0.64070  1.0000 0.134012916
H   H46       1.0  0.12973  0.80744  0.71294  1.0000 0.1143237187
H   H47       1.0  0.90941  0.71080  0.93180  1.0000 0.3624328979
H   H48       1.0  0.97102  0.78884  0.97202  1.0000 0.3360815355
H   H49       1.0  0.45741  0.46686  0.36149  1.0000 0.1739009578
H   H50       1.0  0.36416  0.36385  0.37883  1.0000 0.1533750478
H   H51       1.0  0.44402  0.57381  0.27125  1.0000 0.1431522328
H   H52       1.0  0.36786  0.58526  0.17062  1.0000 0.1208605427
H   H53       1.0  0.21074  0.46165  0.14070  1.0000 0.134012916
H   H54       1.0  0.12973  0.32229  0.21294  1.0000 0.1143237187
H   H55       1.0  0.90941  0.19861  0.43180  1.0000 0.3624328979
H   H56       1.0  0.97102  0.18218  0.47202  1.0000 0.3360815355
H   H57       1.0  0.53314  0.99055  0.36149  1.0000 0.1739009578
H   H58       1.0  0.63615  0.00031  0.37883  1.0000 0.1533750478
H   H59       1.0  0.42619  0.87021  0.27125  1.0000 0.1431522328
H   H60       1.0  0.41474  0.78260  0.17062  1.0000 0.1208605427
H   H61       1.0  0.53835  0.74909  0.14070  1.0000 0.134012916
H   H62       1.0  0.67771  0.80744  0.21294  1.0000 0.1143237187
H   H63       1.0  0.80139  0.71080  0.43180  1.0000 0.3624328979
H   H64       1.0  0.81782  0.78884  0.47202  1.0000 0.3360815355
H   H65       1.0  0.00945  0.54259  0.36149  1.0000 0.1739009578
H   H66       1.0  0.99969  0.63584  0.37883  1.0000 0.1533750478
H   H67       1.0  0.12979  0.55598  0.27125  1.0000 0.1431522328
H   H68       1.0  0.21740  0.63214  0.17062  1.0000 0.1208605427
H   H69       1.0  0.25091  0.78926  0.14070  1.0000 0.134012916
H   H70       1.0  0.19256  0.87027  0.21294  1.0000 0.1143237187
H   H71       1.0  0.28920  0.09059  0.43180  1.0000 0.3624328979
H   H72       1.0  0.21116  0.02898  0.47202  1.0000 0.3360815355
H   H73       1.0  0.54259  0.53314  0.63851  1.0000 0.1739009578
H   H74       1.0  0.63584  0.63615  0.62117  1.0000 0.1533750478
H   H75       1.0  0.55598  0.42619  0.72875  1.0000 0.1431522328
H   H76       1.0  0.63214  0.41474  0.82938  1.0000 0.1208605427
H   H77       1.0  0.78926  0.53835  0.85930  1.0000 0.134012916
H   H78       1.0  0.87027  0.67771  0.78706  1.0000 0.1143237187
H   H79       1.0  0.09059  0.80139  0.56820  1.0000 0.3624328979
H   H80       1.0  0.02898  0.81782  0.52798  1.0000 0.3360815355
H   H81       1.0  0.46686  0.00945  0.63851  1.0000 0.1739009578
H   H82       1.0  0.36385  0.99969  0.62117  1.0000 0.1533750478
H   H83       1.0  0.57381  0.12979  0.72875  1.0000 0.1431522328
H   H84       1.0  0.58526  0.21740  0.82938  1.0000 0.1208605427
H   H85       1.0  0.46165  0.25091  0.85930  1.0000 0.134012916
H   H86       1.0  0.32229  0.19256  0.78706  1.0000 0.1143237187
H   H87       1.0  0.19861  0.28920  0.56820  1.0000 0.3624328979
H   H88       1.0  0.18218  0.21116  0.52798  1.0000 0.3360815355
H   H89       1.0  0.99055  0.45741  0.63851  1.0000 0.1739009578
H   H90       1.0  0.00031  0.36416  0.62117  1.0000 0.1533750478
H   H91       1.0  0.87021  0.44402  0.72875  1.0000 0.1431522328
H   H92       1.0  0.78260  0.36786  0.82938  1.0000 0.1208605427
H   H93       1.0  0.74909  0.21074  0.85930  1.0000 0.134012916
H   H94       1.0  0.80744  0.12973  0.78706  1.0000 0.1143237187
H   H95       1.0  0.71080  0.90941  0.56820  1.0000 0.3624328979
H   H96       1.0  0.78884  0.97102  0.52798  1.0000 0.3360815355
C   C1        1.0  0.43380  0.38660  0.12860  1.0000 -0.5757564745
C   C2        1.0  0.44290  0.33490  0.19400  1.0000 0.1598111622
C   C3        1.0  0.52270  0.38020  0.23950  1.0000 -0.1376333626
C   C4        1.0  0.52970  0.33470  0.30010  1.0000 -0.0652906222
C   C5        1.0  0.45620  0.24120  0.31810  1.0000 -0.0793818376
C   C6        1.0  0.37380  0.19260  0.27470  1.0000 -0.1200652462
C   C7        1.0  0.36810  0.23820  0.21190  1.0000 -0.1331400416
C   C8        1.0  0.27730  0.18100  0.16660  1.0000 0.4837363867
C   C9        1.0  0.95280  0.56620  0.12860  1.0000 -0.5757564745
C   C10       1.0  0.89200  0.55710  0.19400  1.0000 0.1598111622
C   C11       1.0  0.85750  0.47730  0.23950  1.0000 -0.1376333626
C   C12       1.0  0.80500  0.47030  0.30010  1.0000 -0.0648451774
C   C13       1.0  0.78500  0.54380  0.31810  1.0000 -0.0793818376
C   C14       1.0  0.81880  0.62620  0.27470  1.0000 -0.1200652462
C   C15       1.0  0.87010  0.63190  0.21190  1.0000 -0.1331400416
C   C16       1.0  0.90370  0.72270  0.16660  1.0000 0.4837363867
C   C17       1.0  0.61340  0.04720  0.12860  1.0000 -0.5757564745
C   C18       1.0  0.66510  0.10800  0.19400  1.0000 0.1598111622
C   C19       1.0  0.61980  0.14250  0.23950  1.0000 -0.1376333626
C   C20       1.0  0.66530  0.19500  0.30010  1.0000 -0.0652906222
C   C21       1.0  0.75880  0.21500  0.31810  1.0000 -0.0793818376
C   C22       1.0  0.80740  0.18120  0.27470  1.0000 -0.1200652462
C   C23       1.0  0.76180  0.12990  0.21190  1.0000 -0.1331400416
C   C24       1.0  0.81900  0.09630  0.16660  1.0000 0.4837363867
C   C25       1.0  0.56620  0.61340  0.87140  1.0000 -0.5757564745
C   C26       1.0  0.55710  0.66510  0.80600  1.0000 0.1598111622
C   C27       1.0  0.47730  0.61980  0.76050  1.0000 -0.1376333626
C   C28       1.0  0.47030  0.66530  0.69990  1.0000 -0.0652906222
C   C29       1.0  0.54380  0.75880  0.68190  1.0000 -0.0793818376
C   C30       1.0  0.62620  0.80740  0.72530  1.0000 -0.1200652462
C   C31       1.0  0.63190  0.76180  0.78810  1.0000 -0.1331400416
C   C32       1.0  0.72270  0.81900  0.83340  1.0000 0.4837363867
C   C33       1.0  0.04720  0.43380  0.87140  1.0000 -0.5757564745
C   C34       1.0  0.10800  0.44290  0.80600  1.0000 0.1598111622
C   C35       1.0  0.14250  0.52270  0.76050  1.0000 -0.1376333626
C   C36       1.0  0.19500  0.52970  0.69990  1.0000 -0.0652906222
C   C37       1.0  0.21500  0.45620  0.68190  1.0000 -0.0793818376
C   C38       1.0  0.18120  0.37380  0.72530  1.0000 -0.1200652462
C   C39       1.0  0.12990  0.36810  0.78810  1.0000 -0.1331400416
C   C40       1.0  0.09630  0.27730  0.83340  1.0000 0.4837363867
C   C41       1.0  0.38660  0.95280  0.87140  1.0000 -0.5757564745
C   C42       1.0  0.33490  0.89200  0.80600  1.0000 0.1598111622
C   C43       1.0  0.38020  0.85750  0.76050  1.0000 -0.1376333626
C   C44       1.0  0.33470  0.80500  0.69990  1.0000 -0.0652906222
C   C45       1.0  0.24120  0.78500  0.68190  1.0000 -0.0793818376
C   C46       1.0  0.19260  0.81880  0.72530  1.0000 -0.1200652462
C   C47       1.0  0.23820  0.87010  0.78810  1.0000 -0.1331400416
C   C48       1.0  0.18100  0.90370  0.83340  1.0000 0.4837363867
C   C49       1.0  0.38660  0.43380  0.37140  1.0000 -0.5757564745
C   C50       1.0  0.33490  0.44290  0.30600  1.0000 0.1598111622
C   C51       1.0  0.38020  0.52270  0.26050  1.0000 -0.1376333626
C   C52       1.0  0.33470  0.52970  0.19990  1.0000 -0.0652906222
C   C53       1.0  0.24120  0.45620  0.18190  1.0000 -0.0793818376
C   C54       1.0  0.19260  0.37380  0.22530  1.0000 -0.1200652462
C   C55       1.0  0.23820  0.36810  0.28810  1.0000 -0.1331400416
C   C56       1.0  0.18100  0.27730  0.33340  1.0000 0.4837363867
C   C57       1.0  0.56620  0.95280  0.37140  1.0000 -0.5757564745
C   C58       1.0  0.55710  0.89200  0.30600  1.0000 0.1598111622
C   C59       1.0  0.47730  0.85750  0.26050  1.0000 -0.1376333626
C   C60       1.0  0.47030  0.80500  0.19990  1.0000 -0.0652906222
C   C61       1.0  0.54380  0.78500  0.18190  1.0000 -0.0793818376
C   C62       1.0  0.62620  0.81880  0.22530  1.0000 -0.1200652462
C   C63       1.0  0.63190  0.87010  0.28810  1.0000 -0.1331400416
C   C64       1.0  0.72270  0.90370  0.33340  1.0000 0.4837363867
C   C65       1.0  0.04720  0.61340  0.37140  1.0000 -0.5757564745
C   C66       1.0  0.10800  0.66510  0.30600  1.0000 0.1598111622
C   C67       1.0  0.14250  0.61980  0.26050  1.0000 -0.1376333626
C   C68       1.0  0.19500  0.66530  0.19990  1.0000 -0.0652906222
C   C69       1.0  0.21500  0.75880  0.18190  1.0000 -0.0793818376
C   C70       1.0  0.18120  0.80740  0.22530  1.0000 -0.1200652462
C   C71       1.0  0.12990  0.76180  0.28810  1.0000 -0.1331400416
C   C72       1.0  0.09630  0.81900  0.33340  1.0000 0.4837363867
C   C73       1.0  0.61340  0.56620  0.62860  1.0000 -0.5757564745
C   C74       1.0  0.66510  0.55710  0.69400  1.0000 0.1598111622
C   C75       1.0  0.61980  0.47730  0.73950  1.0000 -0.1376333626
C   C76       1.0  0.66530  0.47030  0.80010  1.0000 -0.0652906222
C   C77       1.0  0.75880  0.54380  0.81810  1.0000 -0.0793818376
C   C78       1.0  0.80740  0.62620  0.77470  1.0000 -0.1200652462
C   C79       1.0  0.76180  0.63190  0.71190  1.0000 -0.1331400416
C   C80       1.0  0.81900  0.72270  0.66667  1.0000 0.4837363867
C   C81       1.0  0.43380  0.04720  0.62860  1.0000 -0.5757564745
C   C82       1.0  0.44290  0.10800  0.69400  1.0000 0.1598111622
C   C83       1.0  0.52270  0.14250  0.73950  1.0000 -0.1376333626
C   C84       1.0  0.52970  0.19500  0.80010  1.0000 -0.0652906222
C   C85       1.0  0.45620  0.21500  0.81810  1.0000 -0.0793818376
C   C86       1.0  0.37380  0.18120  0.77470  1.0000 -0.1200652462
C   C87       1.0  0.36810  0.12990  0.71190  1.0000 -0.1331400416
C   C88       1.0  0.27730  0.09630  0.66667  1.0000 0.4837363867
C   C89       1.0  0.95280  0.38660  0.62860  1.0000 -0.5757564745
C   C90       1.0  0.89200  0.33490  0.69400  1.0000 0.1598111622
C   C91       1.0  0.85750  0.38020  0.73950  1.0000 -0.1376333626
C   C92       1.0  0.80500  0.33470  0.80010  1.0000 -0.0652906222
C   C93       1.0  0.78500  0.24120  0.81810  1.0000 -0.0793818376
C   C94       1.0  0.81880  0.19260  0.77470  1.0000 -0.1200652462
C   C95       1.0  0.87010  0.23820  0.71190  1.0000 -0.1331400416
C   C96       1.0  0.90370  0.18100  0.66667  1.0000 0.4837363867
O   O1        1.0  0.48810  0.27220  0.05020  1.0000 -0.8886843713
O   O2        1.0  0.42400  0.37310  0.98490  1.0000 -0.8153434834
O   O3        1.0  0.29050  0.16750  0.10100  1.0000 -0.6273843489
O   O4        1.0  0.19030  0.15880  0.18860  1.0000 -0.0222279081
O   O5        1.0  0.35220  0.11350  0.96610  1.0000 -0.7133375249
O   O6        1.0  0.39840  0.06950  0.14280  1.0000 -0.6878834209
O   O7        1.0  0.20440  0.96690  0.06890  1.0000 -0.7358291886
O   O8        1.0  0.59520  0.44800  0.03930  1.0000 -0.8674597334
O   O9        1.0  0.20540  0.10500  0.19790  1.0000 -0.0097574464
O   O10       1.0  0.78410  0.51190  0.05020  1.0000 -0.8886843713
O   O11       1.0  0.94910  0.57600  0.98490  1.0000 -0.8153434834
O   O12       1.0  0.87700  0.70950  0.10100  1.0000 -0.6273843489
O   O13       1.0  0.96850  0.80970  0.18860  1.0000 -0.0222279081
O   O14       1.0  0.76130  0.64780  0.96610  1.0000 -0.7133375249
O   O15       1.0  0.67110  0.60160  0.14280  1.0000 -0.6878834209
O   O16       1.0  0.76250  0.79560  0.06890  1.0000 -0.7346395097
O   O17       1.0  0.85280  0.40480  0.03930  1.0000 -0.8674597334
O   O18       1.0  0.89960  0.79460  0.19790  1.0000 -0.0097574464
O   O19       1.0  0.72780  0.21590  0.05020  1.0000 -0.8886843713
O   O20       1.0  0.62690  0.05090  0.98490  1.0000 -0.8153434834
O   O21       1.0  0.83250  0.12300  0.10100  1.0000 -0.6273843489
O   O22       1.0  0.84120  0.03150  0.18860  1.0000 -0.0222279081
O   O23       1.0  0.88650  0.23870  0.96610  1.0000 -0.7133375249
O   O24       1.0  0.93050  0.32890  0.14280  1.0000 -0.6878834209
O   O25       1.0  0.03310  0.23750  0.06890  1.0000 -0.7358291886
O   O26       1.0  0.55200  0.14720  0.03930  1.0000 -0.8674597334
O   O27       1.0  0.89500  0.10040  0.19790  1.0000 -0.0097574464
O   O28       1.0  0.51190  0.72780  0.94980  1.0000 -0.8886843713
O   O29       1.0  0.57600  0.62690  0.01510  1.0000 -0.8153434834
O   O30       1.0  0.70950  0.83250  0.89900  1.0000 -0.6273843489
O   O31       1.0  0.80970  0.84120  0.81140  1.0000 -0.0273473037
O   O32       1.0  0.64780  0.88650  0.03390  1.0000 -0.7133375249
O   O33       1.0  0.60160  0.93050  0.85720  1.0000 -0.6878834209
O   O34       1.0  0.79560  0.03310  0.93110  1.0000 -0.7346395097
O   O35       1.0  0.40480  0.55200  0.96070  1.0000 -0.8674597334
O   O36       1.0  0.79460  0.89500  0.80210  1.0000 -0.0097574464
O   O37       1.0  0.21590  0.48810  0.94980  1.0000 -0.8886843713
O   O38       1.0  0.05090  0.42400  0.01510  1.0000 -0.8153434834
O   O39       1.0  0.12300  0.29050  0.89900  1.0000 -0.6273843489
O   O40       1.0  0.03150  0.19030  0.81140  1.0000 -0.0273473037
O   O41       1.0  0.23870  0.35220  0.03390  1.0000 -0.7133375249
O   O42       1.0  0.32890  0.39840  0.85720  1.0000 -0.6878834209
O   O43       1.0  0.23750  0.20440  0.93110  1.0000 -0.7358291886
O   O44       1.0  0.14720  0.59520  0.96070  1.0000 -0.8674597334
O   O45       1.0  0.10040  0.20540  0.80210  1.0000 -0.0097574464
O   O46       1.0  0.27220  0.78410  0.94980  1.0000 -0.8886843713
O   O47       1.0  0.37310  0.94910  0.01510  1.0000 -0.8153434834
O   O48       1.0  0.16750  0.87700  0.89900  1.0000 -0.6273843489
O   O49       1.0  0.15880  0.96850  0.81140  1.0000 -0.0222279081
O   O50       1.0  0.11350  0.76130  0.03390  1.0000 -0.7133375249
O   O51       1.0  0.06950  0.67110  0.85720  1.0000 -0.6878834209
O   O52       1.0  0.96690  0.76250  0.93110  1.0000 -0.7358291886
O   O53       1.0  0.44800  0.85280  0.96070  1.0000 -0.8674597334
O   O54       1.0  0.10500  0.89960  0.80210  1.0000 -0.0097574464
O   O55       1.0  0.66667  0.33333  0.95040  1.0000 -0.6727877847
O   O56       1.0  0.66667  0.33333  0.13720  1.0000 -0.6574082218
O   O57       1.0  0.33333  0.66667  0.04960  1.0000 -0.6727877847
O   O58       1.0  0.33333  0.66667  0.86280  1.0000 -0.6574082218
O   O59       1.0  0.27220  0.48810  0.44980  1.0000 -0.8886843713
O   O60       1.0  0.37310  0.42400  0.51510  1.0000 -0.8153434834
O   O61       1.0  0.16750  0.29050  0.39900  1.0000 -0.6273843489
O   O62       1.0  0.15880  0.19030  0.31140  1.0000 -0.0273473037
O   O63       1.0  0.11350  0.35220  0.53390  1.0000 -0.7133375249
O   O64       1.0  0.06950  0.39840  0.35720  1.0000 -0.6878834209
O   O65       1.0  0.96690  0.20440  0.43110  1.0000 -0.7346395097
O   O66       1.0  0.44800  0.59520  0.46070  1.0000 -0.8674597334
O   O67       1.0  0.10500  0.20540  0.30210  1.0000 -0.0097574464
O   O68       1.0  0.51190  0.78410  0.44980  1.0000 -0.8886843713
O   O69       1.0  0.57600  0.94910  0.51510  1.0000 -0.8153434834
O   O70       1.0  0.70950  0.87700  0.39900  1.0000 -0.6273843489
O   O71       1.0  0.80970  0.96850  0.31140  1.0000 -0.0222279081
O   O72       1.0  0.64780  0.76130  0.53390  1.0000 -0.7133375249
O   O73       1.0  0.60160  0.67110  0.35720  1.0000 -0.6878834209
O   O74       1.0  0.79560  0.76250  0.43110  1.0000 -0.7346395097
O   O75       1.0  0.40480  0.85280  0.46070  1.0000 -0.8674597334
O   O76       1.0  0.79460  0.89960  0.30210  1.0000 -0.0097574464
O   O77       1.0  0.21590  0.72780  0.44980  1.0000 -0.8886843713
O   O78       1.0  0.05090  0.62690  0.51510  1.0000 -0.8153434834
O   O79       1.0  0.12300  0.83250  0.39900  1.0000 -0.6273843489
O   O80       1.0  0.03150  0.84120  0.31140  1.0000 -0.0222279081
O   O81       1.0  0.23870  0.88650  0.53390  1.0000 -0.7133375249
O   O82       1.0  0.32890  0.93050  0.35720  1.0000 -0.6878834209
O   O83       1.0  0.23750  0.03310  0.43110  1.0000 -0.7358291886
O   O84       1.0  0.14720  0.55200  0.46070  1.0000 -0.8674597334
O   O85       1.0  0.10040  0.89500  0.30210  1.0000 -0.0097574464
O   O86       1.0  0.72780  0.51190  0.55020  1.0000 -0.8886843713
O   O87       1.0  0.62690  0.57600  0.48490  1.0000 -0.8148055515
O   O88       1.0  0.83250  0.70950  0.60100  1.0000 -0.6273843489
O   O89       1.0  0.84120  0.80970  0.68860  1.0000 -0.0222279081
O   O90       1.0  0.88650  0.64780  0.46610  1.0000 -0.7133375249
O   O91       1.0  0.93050  0.60160  0.64280  1.0000 -0.6878834209
O   O92       1.0  0.03310  0.79560  0.56890  1.0000 -0.7358291886
O   O93       1.0  0.55200  0.40480  0.53930  1.0000 -0.8674597334
O   O94       1.0  0.89500  0.79460  0.69790  1.0000 -0.0097574464
O   O95       1.0  0.48810  0.21590  0.55020  1.0000 -0.8886843713
O   O96       1.0  0.42400  0.05090  0.48490  1.0000 -0.8153434834
O   O97       1.0  0.29050  0.12300  0.60100  1.0000 -0.6273843489
O   O98       1.0  0.19030  0.03150  0.68860  1.0000 -0.0222279081
O   O99       1.0  0.35220  0.23870  0.46610  1.0000 -0.7133375249
O   O100      1.0  0.39840  0.32890  0.64280  1.0000 -0.6878834209
O   O101      1.0  0.20440  0.23750  0.56890  1.0000 -0.7358291886
O   O102      1.0  0.59520  0.14720  0.53930  1.0000 -0.8674597334
O   O103      1.0  0.20540  0.10040  0.69790  1.0000 -0.0097574464
O   O104      1.0  0.78410  0.27220  0.55020  1.0000 -0.8886843713
O   O105      1.0  0.94910  0.37310  0.48490  1.0000 -0.8153434834
O   O106      1.0  0.87700  0.16750  0.60100  1.0000 -0.6273843489
O   O107      1.0  0.96850  0.15880  0.68860  1.0000 -0.0222279081
O   O108      1.0  0.76130  0.11350  0.46610  1.0000 -0.7133375249
O   O109      1.0  0.67110  0.06950  0.64280  1.0000 -0.6878834209
O   O110      1.0  0.76250  0.96690  0.56890  1.0000 -0.7358291886
O   O111      1.0  0.85280  0.44800  0.53930  1.0000 -0.8674597334
O   O112      1.0  0.89960  0.10500  0.69790  1.0000 -0.0097574464
O   O113      1.0  0.33333  0.66667  0.54960  1.0000 -0.6727877847
O   O114      1.0  0.33333  0.66667  0.36280  1.0000 -0.6574082218
O   O115      1.0  0.66667  0.33333  0.45040  1.0000 -0.6727877847
O   O116      1.0  0.66667  0.33333  0.63720  1.0000 -0.6574082218
