# DDEC6 charges by PACMAN v1.1 (https://github.com/mtap-research/PACMAN-charge/)
data_2021[Eu][rtl]3[FSR]1
_chemical_formula_sum              "Eu4 H80 C80 N12 O32"
_cell_length_a       10.732
_cell_length_b       16.724
_cell_length_c       16.9961
_cell_angle_alpha    90
_cell_angle_beta     117.783
_cell_angle_gamma    90

_symmetry_space_group_name_H-M    "P 1"
_symmetry_Int_Tables_number       1

loop_
  _symmetry_equiv_pos_as_xyz
  'x, y, z'

loop_
  _atom_site_type_symbol
  _atom_site_label
  _atom_site_symmetry_multiplicity
  _atom_site_fract_x
  _atom_site_fract_y
  _atom_site_fract_z
  _atom_site_occupancy
  _atom_site_charge
Eu  Eu1       1.0  0.07490  0.09563  0.95921  1.0000 2.0609849855
Eu  Eu2       1.0  0.92510  0.59563  0.54079  1.0000 2.0609849855
Eu  Eu3       1.0  0.92510  0.90437  0.04079  1.0000 2.0609849855
Eu  Eu4       1.0  0.07490  0.40437  0.45921  1.0000 2.0609849855
H   H1        1.0  0.10070  0.48140  0.81280  1.0000 0.1102952074
H   H2        1.0  0.33020  0.33180  0.74880  1.0000 0.1202898953
H   H3        1.0  0.34050  0.32530  0.98630  1.0000 0.1102952074
H   H4        1.0  0.53280  0.07630  0.99900  1.0000 0.1378872999
H   H5        1.0  0.76120  0.20500  0.91640  1.0000 0.1202898953
H   H6        1.0  0.59370  0.30370  0.86810  1.0000 0.1102952074
H   H7        1.0  0.96860  0.27050  0.84170  1.0000 0.097228469
H   H8        1.0  0.69880  0.23160  0.59070  1.0000 0.1102952074
H   H9        1.0  0.67360  0.17970  0.65880  1.0000 0.1378872999
H   H10       1.0  0.80120  0.16100  0.64080  1.0000 0.1296932228
H   H11       1.0  0.77910  0.34520  0.62780  1.0000 0.1296932228
H   H12       1.0  0.93560  0.35150  0.70260  1.0000 0.1296932228
H   H13       1.0  0.81230  0.37640  0.72260  1.0000 0.1378872999
H   H14       1.0  0.18150  0.23810  0.11850  1.0000 0.1102952074
H   H15       1.0  0.13330  0.42290  0.18670  1.0000 0.1378872999
H   H16       1.0  0.26300  0.37470  0.19320  1.0000 0.1378872999
H   H17       1.0  0.16380  0.33670  0.22750  1.0000 0.1378872999
H   H18       1.0  0.96700  0.43480  0.05160  1.0000 0.1296932228
H   H19       1.0  0.88520  0.35760  0.00180  1.0000 0.1296932228
H   H20       1.0  0.00030  0.39430  0.98030  1.0000 0.1296932228
H   H21       1.0  0.89930  0.98140  0.68720  1.0000 0.1102952074
H   H22       1.0  0.66980  0.83180  0.75120  1.0000 0.1202898953
H   H23       1.0  0.65950  0.82530  0.51370  1.0000 0.1102952074
H   H24       1.0  0.46720  0.57630  0.50100  1.0000 0.1378872999
H   H25       1.0  0.23880  0.70500  0.58360  1.0000 0.1202898953
H   H26       1.0  0.40630  0.80370  0.63190  1.0000 0.1102952074
H   H27       1.0  0.03140  0.77050  0.65830  1.0000 0.097228469
H   H28       1.0  0.30120  0.73160  0.90930  1.0000 0.1102952074
H   H29       1.0  0.32640  0.67970  0.84120  1.0000 0.1378872999
H   H30       1.0  0.19880  0.66100  0.85920  1.0000 0.1296932228
H   H31       1.0  0.22090  0.84520  0.87220  1.0000 0.1296932228
H   H32       1.0  0.06440  0.85150  0.79740  1.0000 0.1296932228
H   H33       1.0  0.18770  0.87640  0.77740  1.0000 0.1378872999
H   H34       1.0  0.81850  0.73810  0.38150  1.0000 0.1102952074
H   H35       1.0  0.86670  0.92290  0.31330  1.0000 0.1378872999
H   H36       1.0  0.73700  0.87470  0.30680  1.0000 0.1378872999
H   H37       1.0  0.83620  0.83670  0.27250  1.0000 0.1378872999
H   H38       1.0  0.03300  0.93480  0.44840  1.0000 0.1296932228
H   H39       1.0  0.11480  0.85760  0.49820  1.0000 0.1296932228
H   H40       1.0  0.99970  0.89430  0.51970  1.0000 0.1296932228
H   H41       1.0  0.89930  0.51860  0.18720  1.0000 0.1102952074
H   H42       1.0  0.66980  0.66820  0.25120  1.0000 0.1202898953
H   H43       1.0  0.65950  0.67470  0.01370  1.0000 0.1102952074
H   H44       1.0  0.46720  0.92370  0.00100  1.0000 0.1378872999
H   H45       1.0  0.23880  0.79500  0.08360  1.0000 0.1202898953
H   H46       1.0  0.40630  0.69630  0.13190  1.0000 0.1102952074
H   H47       1.0  0.03140  0.72950  0.15830  1.0000 0.097228469
H   H48       1.0  0.30120  0.76840  0.40930  1.0000 0.1102952074
H   H49       1.0  0.32640  0.82030  0.34120  1.0000 0.1378872999
H   H50       1.0  0.19880  0.83900  0.35920  1.0000 0.1296932228
H   H51       1.0  0.22090  0.65480  0.37220  1.0000 0.1296932228
H   H52       1.0  0.06440  0.64850  0.29740  1.0000 0.1296932228
H   H53       1.0  0.18770  0.62360  0.27740  1.0000 0.1378872999
H   H54       1.0  0.81850  0.76190  0.88150  1.0000 0.1102952074
H   H55       1.0  0.86670  0.57710  0.81330  1.0000 0.1378872999
H   H56       1.0  0.73700  0.62530  0.80680  1.0000 0.1378872999
H   H57       1.0  0.83620  0.66330  0.77250  1.0000 0.1378872999
H   H58       1.0  0.03300  0.56520  0.94840  1.0000 0.1296932228
H   H59       1.0  0.11480  0.64240  0.99820  1.0000 0.1296932228
H   H60       1.0  0.99970  0.60570  0.01970  1.0000 0.1296932228
H   H61       1.0  0.10070  0.01860  0.31280  1.0000 0.1102952074
H   H62       1.0  0.33020  0.16820  0.24880  1.0000 0.1202898953
H   H63       1.0  0.34050  0.17470  0.48630  1.0000 0.1102952074
H   H64       1.0  0.53280  0.42370  0.49900  1.0000 0.1378872999
H   H65       1.0  0.76120  0.29500  0.41640  1.0000 0.1202898953
H   H66       1.0  0.59370  0.19630  0.36810  1.0000 0.1102952074
H   H67       1.0  0.96860  0.22950  0.34170  1.0000 0.097228469
H   H68       1.0  0.69880  0.26840  0.09070  1.0000 0.1102952074
H   H69       1.0  0.67360  0.32030  0.15880  1.0000 0.1378872999
H   H70       1.0  0.80120  0.33900  0.14080  1.0000 0.1296932228
H   H71       1.0  0.77910  0.15480  0.12780  1.0000 0.1296932228
H   H72       1.0  0.93560  0.14850  0.20260  1.0000 0.1296932228
H   H73       1.0  0.81230  0.12360  0.22260  1.0000 0.1378872999
H   H74       1.0  0.18150  0.26190  0.61850  1.0000 0.1102952074
H   H75       1.0  0.13330  0.07710  0.68670  1.0000 0.1378872999
H   H76       1.0  0.26300  0.12530  0.69320  1.0000 0.1378872999
H   H77       1.0  0.16380  0.16330  0.72750  1.0000 0.1378872999
H   H78       1.0  0.96700  0.06520  0.55160  1.0000 0.1296932228
H   H79       1.0  0.88520  0.14240  0.50180  1.0000 0.1296932228
H   H80       1.0  0.00030  0.10570  0.48030  1.0000 0.1296932228
C   C1        1.0  0.16500  0.43960  0.82840  1.0000 0.0414203719
C   C2        1.0  0.20260  0.41120  0.76470  1.0000 -0.0764030985
C   C3        1.0  0.29980  0.35030  0.78860  1.0000 -0.1243213456
C   C4        1.0  0.35340  0.31580  0.87500  1.0000 0.0201847495
C   C5        1.0  0.30700  0.34790  0.93010  1.0000 0.0201847495
C   C6        1.0  0.45940  0.25110  0.90300  1.0000 0.0414203719
C   C7        1.0  0.44150  0.18200  0.94350  1.0000 -0.0438957413
C   C8        1.0  0.54470  0.12210  0.97220  1.0000 -0.1254897699
C   C9        1.0  0.66340  0.13000  0.96100  1.0000 -0.0232947454
C   C10       1.0  0.68050  0.19850  0.92300  1.0000 -0.1010897648
C   C11       1.0  0.57980  0.25800  0.89410  1.0000 -0.1499714352
C   C12       1.0  0.13430  0.44520  0.67260  1.0000 0.6238285169
C   C13       1.0  0.30980  0.16500  0.95150  1.0000 0.5507269666
C   C14       1.0  0.76520  0.06190  0.98880  1.0000 0.6035120651
C   C15       1.0  0.90720  0.23390  0.80080  1.0000 0.3123741314
C   C16       1.0  0.74370  0.20270  0.64570  1.0000 -0.3281995266
C   C17       1.0  0.84040  0.33980  0.69040  1.0000 -0.3403126284
C   C18       1.0  0.10590  0.26520  0.07390  1.0000 0.2713765293
C   C19       1.0  0.16710  0.37070  0.18310  1.0000 -0.3403126284
C   C20       1.0  0.97440  0.38470  0.02640  1.0000 -0.3091452703
C   C21       1.0  0.83500  0.93960  0.67160  1.0000 0.0414203719
C   C22       1.0  0.79740  0.91120  0.73530  1.0000 -0.0764030985
C   C23       1.0  0.70020  0.85030  0.71140  1.0000 -0.1243213456
C   C24       1.0  0.64660  0.81580  0.62500  1.0000 0.0201847495
C   C25       1.0  0.69300  0.84790  0.56990  1.0000 0.0201847495
C   C26       1.0  0.54060  0.75110  0.59700  1.0000 0.0414203719
C   C27       1.0  0.55850  0.68200  0.55650  1.0000 -0.0438957413
C   C28       1.0  0.45530  0.62210  0.52780  1.0000 -0.1254897699
C   C29       1.0  0.33660  0.63000  0.53900  1.0000 -0.0232947454
C   C30       1.0  0.31950  0.69850  0.57700  1.0000 -0.1010897648
C   C31       1.0  0.42020  0.75800  0.60590  1.0000 -0.1499714352
C   C32       1.0  0.86570  0.94520  0.82740  1.0000 0.6238285169
C   C33       1.0  0.69020  0.66500  0.54850  1.0000 0.5507269666
C   C34       1.0  0.23480  0.56190  0.51120  1.0000 0.6035120651
C   C35       1.0  0.09280  0.73390  0.69920  1.0000 0.3123741314
C   C36       1.0  0.25630  0.70270  0.85430  1.0000 -0.3281995266
C   C37       1.0  0.15960  0.83980  0.80960  1.0000 -0.3403126284
C   C38       1.0  0.89410  0.76520  0.42610  1.0000 0.2713765293
C   C39       1.0  0.83290  0.87070  0.31690  1.0000 -0.3403126284
C   C40       1.0  0.02560  0.88470  0.47360  1.0000 -0.3091452703
C   C41       1.0  0.83500  0.56040  0.17160  1.0000 0.0414203719
C   C42       1.0  0.79740  0.58880  0.23530  1.0000 -0.0764030985
C   C43       1.0  0.70020  0.64970  0.21140  1.0000 -0.1243213456
C   C44       1.0  0.64660  0.68420  0.12500  1.0000 0.0201847495
C   C45       1.0  0.69300  0.65210  0.06990  1.0000 0.0201847495
C   C46       1.0  0.54060  0.74890  0.09700  1.0000 0.0414203719
C   C47       1.0  0.55850  0.81800  0.05650  1.0000 -0.0438957413
C   C48       1.0  0.45530  0.87790  0.02780  1.0000 -0.1254897699
C   C49       1.0  0.33660  0.87000  0.03900  1.0000 -0.0232947454
C   C50       1.0  0.31950  0.80150  0.07700  1.0000 -0.1010897648
C   C51       1.0  0.42020  0.74200  0.10590  1.0000 -0.1499714352
C   C52       1.0  0.86570  0.55480  0.32740  1.0000 0.6238285169
C   C53       1.0  0.69020  0.83500  0.04850  1.0000 0.5507269666
C   C54       1.0  0.23480  0.93810  0.01120  1.0000 0.6035120651
C   C55       1.0  0.09280  0.76610  0.19920  1.0000 0.3123741314
C   C56       1.0  0.25630  0.79730  0.35430  1.0000 -0.3281995266
C   C57       1.0  0.15960  0.66020  0.30960  1.0000 -0.3403126284
C   C58       1.0  0.89410  0.73480  0.92610  1.0000 0.2713765293
C   C59       1.0  0.83290  0.62930  0.81690  1.0000 -0.3403126284
C   C60       1.0  0.02560  0.61530  0.97360  1.0000 -0.3091452703
C   C61       1.0  0.16500  0.06040  0.32840  1.0000 0.0414203719
C   C62       1.0  0.20260  0.08880  0.26470  1.0000 -0.0764030985
C   C63       1.0  0.29980  0.14970  0.28860  1.0000 -0.1243213456
C   C64       1.0  0.35340  0.18420  0.37500  1.0000 0.0201847495
C   C65       1.0  0.30700  0.15210  0.43010  1.0000 0.0201847495
C   C66       1.0  0.45940  0.24890  0.40300  1.0000 0.0414203719
C   C67       1.0  0.44150  0.31800  0.44350  1.0000 -0.0438957413
C   C68       1.0  0.54470  0.37790  0.47220  1.0000 -0.1254897699
C   C69       1.0  0.66340  0.37000  0.46100  1.0000 -0.0232947454
C   C70       1.0  0.68050  0.30150  0.42300  1.0000 -0.1010897648
C   C71       1.0  0.57980  0.24200  0.39410  1.0000 -0.1499714352
C   C72       1.0  0.13430  0.05480  0.17260  1.0000 0.6238285169
C   C73       1.0  0.30980  0.33500  0.45150  1.0000 0.5507269666
C   C74       1.0  0.76520  0.43810  0.48880  1.0000 0.6035120651
C   C75       1.0  0.90720  0.26610  0.30080  1.0000 0.3123741314
C   C76       1.0  0.74370  0.29730  0.14570  1.0000 -0.3281995266
C   C77       1.0  0.84040  0.16020  0.19040  1.0000 -0.3403126284
C   C78       1.0  0.10590  0.23480  0.57390  1.0000 0.2713765293
C   C79       1.0  0.16710  0.12930  0.68310  1.0000 -0.3403126284
C   C80       1.0  0.97440  0.11530  0.52640  1.0000 -0.3091452703
N   N1        1.0  0.21700  0.40930  0.91040  1.0000 -0.2629522592
N   N2        1.0  0.83340  0.25810  0.71820  1.0000 0.0201847495
N   N3        1.0  0.07850  0.33650  0.09370  1.0000 0.0201847495
N   N4        1.0  0.78300  0.90930  0.58960  1.0000 -0.2629522592
N   N5        1.0  0.16660  0.75810  0.78180  1.0000 0.0201847495
N   N6        1.0  0.92150  0.83650  0.40630  1.0000 0.0201847495
N   N7        1.0  0.78300  0.59070  0.08960  1.0000 -0.2629522592
N   N8        1.0  0.16660  0.74190  0.28180  1.0000 0.0201847495
N   N9        1.0  0.92150  0.66350  0.90630  1.0000 0.0201847495
N   N10       1.0  0.21700  0.09070  0.41040  1.0000 -0.2629522592
N   N11       1.0  0.83340  0.24190  0.21820  1.0000 0.0201847495
N   N12       1.0  0.07850  0.16350  0.59370  1.0000 0.0201847495
O   O1        1.0  0.16780  0.41360  0.61750  1.0000 -0.6660907849
O   O2        1.0  0.04930  0.50120  0.65620  1.0000 -0.6332793072
O   O3        1.0  0.19790  0.15410  0.88250  1.0000 -0.6148043707
O   O4        1.0  0.31610  0.15840  0.02710  1.0000 -0.6196795299
O   O5        1.0  0.87460  0.06940  0.97750  1.0000 -0.7315152123
O   O6        1.0  0.74650  0.00270  0.02230  1.0000 -0.5575865343
O   O7        1.0  0.90150  0.16680  0.82830  1.0000 -0.5190591648
O   O8        1.0  0.04340  0.23130  0.00390  1.0000 -0.5125284627
O   O9        1.0  0.83220  0.91360  0.88250  1.0000 -0.6660907849
O   O10       1.0  0.95070  0.00120  0.84380  1.0000 -0.6332793072
O   O11       1.0  0.80210  0.65410  0.61750  1.0000 -0.6196795299
O   O12       1.0  0.68390  0.65840  0.47290  1.0000 -0.6196795299
O   O13       1.0  0.12540  0.56940  0.52250  1.0000 -0.7315152123
O   O14       1.0  0.25350  0.50270  0.47770  1.0000 -0.5575865343
O   O15       1.0  0.09850  0.66680  0.67170  1.0000 -0.5190591648
O   O16       1.0  0.95660  0.73130  0.49610  1.0000 -0.5125284627
O   O17       1.0  0.83220  0.58640  0.38250  1.0000 -0.6660907849
O   O18       1.0  0.95070  0.49880  0.34380  1.0000 -0.6332793072
O   O19       1.0  0.80210  0.84590  0.11750  1.0000 -0.6148043707
O   O20       1.0  0.68390  0.84160  0.97290  1.0000 -0.6196795299
O   O21       1.0  0.12540  0.93060  0.02250  1.0000 -0.7315152123
O   O22       1.0  0.25350  0.99730  0.97770  1.0000 -0.5575865343
O   O23       1.0  0.09850  0.83320  0.17170  1.0000 -0.5190591648
O   O24       1.0  0.95660  0.76870  0.99610  1.0000 -0.5125284627
O   O25       1.0  0.16780  0.08640  0.11750  1.0000 -0.6660907849
O   O26       1.0  0.04930  0.99880  0.15620  1.0000 -0.6332793072
O   O27       1.0  0.19790  0.34590  0.38250  1.0000 -0.6148043707
O   O28       1.0  0.31610  0.34160  0.52710  1.0000 -0.6196795299
O   O29       1.0  0.87460  0.43060  0.47750  1.0000 -0.7315152123
O   O30       1.0  0.74650  0.49730  0.52230  1.0000 -0.5575865343
O   O31       1.0  0.90150  0.33320  0.32830  1.0000 -0.5190591648
O   O32       1.0  0.04340  0.26870  0.50390  1.0000 -0.5125284627
