# DDEC6 charges by PACMAN v1.1 (https://github.com/mtap-research/PACMAN-charge/)
data_2021[Al][nan]3[FSR]10
_chemical_formula_sum              "Al8 H24 C40 N16 O40"
_cell_length_a       12.316
_cell_length_b       14.893
_cell_length_c       13.937
_cell_angle_alpha    90
_cell_angle_beta     102.278
_cell_angle_gamma    90

_symmetry_space_group_name_H-M    "P 1"
_symmetry_Int_Tables_number       1

loop_
  _symmetry_equiv_pos_as_xyz
  'x, y, z'

loop_
  _atom_site_type_symbol
  _atom_site_label
  _atom_site_symmetry_multiplicity
  _atom_site_fract_x
  _atom_site_fract_y
  _atom_site_fract_z
  _atom_site_occupancy
  _atom_site_charge
Al  Al1       1.0  0.23575  0.56067  0.43991  1.0000 1.6138960342
Al  Al2       1.0  0.76425  0.06067  0.06009  1.0000 1.6138960342
Al  Al3       1.0  0.76425  0.43933  0.56009  1.0000 1.6138960342
Al  Al4       1.0  0.23575  0.93933  0.93991  1.0000 1.6138960342
Al  Al5       1.0  0.00000  0.50000  0.50000  1.0000 1.630291901
Al  Al6       1.0  0.00000  0.00000  0.00000  1.0000 1.6353683094
Al  Al7       1.0  0.50000  0.50000  0.50000  1.0000 1.630291901
Al  Al8       1.0  0.50000  0.00000  0.00000  1.0000 1.630291901
H   H1        1.0  0.18894  0.51215  0.59045  1.0000 0.4292518343
H   H2        1.0  0.32874  0.42414  0.49958  1.0000 0.4292518343
H   H3        1.0  0.08323  0.79207  0.25093  1.0000 0.1727945427
H   H4        1.0  0.78741  0.86808  0.28141  1.0000 0.2798551614
H   H5        1.0  0.28525  0.72616  0.18273  1.0000 0.1727945427
H   H6        1.0  0.59160  0.74286  0.14382  1.0000 0.2798551614
H   H7        1.0  0.81106  0.01215  0.90955  1.0000 0.4292518343
H   H8        1.0  0.67126  0.92414  0.00042  1.0000 0.4292518343
H   H9        1.0  0.91677  0.29207  0.24907  1.0000 0.1727945427
H   H10       1.0  0.21259  0.36808  0.21859  1.0000 0.2798551614
H   H11       1.0  0.71475  0.22616  0.31727  1.0000 0.1727945427
H   H12       1.0  0.40840  0.24286  0.35618  1.0000 0.2798551614
H   H13       1.0  0.81106  0.48785  0.40955  1.0000 0.4292518343
H   H14       1.0  0.67126  0.57586  0.50042  1.0000 0.4292518343
H   H15       1.0  0.91677  0.20793  0.74907  1.0000 0.1727945427
H   H16       1.0  0.21259  0.13192  0.71859  1.0000 0.2798551614
H   H17       1.0  0.71475  0.27384  0.81727  1.0000 0.1727945427
H   H18       1.0  0.40840  0.25714  0.85618  1.0000 0.2798551614
H   H19       1.0  0.18894  0.98785  0.09045  1.0000 0.4292518343
H   H20       1.0  0.32874  0.07586  0.99958  1.0000 0.4292518343
H   H21       1.0  0.08323  0.70793  0.75093  1.0000 0.1727945427
H   H22       1.0  0.78741  0.63192  0.78141  1.0000 0.2798551614
H   H23       1.0  0.28525  0.77384  0.68273  1.0000 0.1727945427
H   H24       1.0  0.59160  0.75714  0.64382  1.0000 0.2798551614
C   C1        1.0  0.02861  0.66097  0.38891  1.0000 0.6185277174
C   C2        1.0  0.97460  0.74052  0.33610  1.0000 0.0291471063
C   C3        1.0  0.40623  0.60009  0.32674  1.0000 0.6185277174
C   C4        1.0  0.01480  0.79587  0.27030  1.0000 -0.2362012123
C   C5        1.0  0.43210  0.65726  0.24827  1.0000 0.0218322346
C   C6        1.0  0.93070  0.85723  0.24034  1.0000 0.0218322346
C   C7        1.0  0.36170  0.71713  0.18744  1.0000 -0.2339370106
C   C8        1.0  0.91817  0.92989  0.16704  1.0000 0.6013290654
C   C9        1.0  0.43090  0.75995  0.13580  1.0000 0.0291471063
C   C10       1.0  0.40640  0.83574  0.06648  1.0000 0.6013290654
C   C11       1.0  0.97139  0.16097  0.11109  1.0000 0.6185277174
C   C12       1.0  0.02540  0.24052  0.16390  1.0000 0.0291471063
C   C13       1.0  0.59377  0.10009  0.17326  1.0000 0.6185277174
C   C14       1.0  0.98520  0.29587  0.22970  1.0000 -0.2362012123
C   C15       1.0  0.56790  0.15726  0.25173  1.0000 0.0291471063
C   C16       1.0  0.06930  0.35723  0.25966  1.0000 0.0218322346
C   C17       1.0  0.63830  0.21713  0.31256  1.0000 -0.2339370106
C   C18       1.0  0.08183  0.42989  0.33296  1.0000 0.6013290654
C   C19       1.0  0.56910  0.25995  0.36420  1.0000 0.0291471063
C   C20       1.0  0.59360  0.33574  0.43352  1.0000 0.6013290654
C   C21       1.0  0.97139  0.33903  0.61109  1.0000 0.6185277174
C   C22       1.0  0.02540  0.25948  0.66390  1.0000 0.0291471063
C   C23       1.0  0.59377  0.39991  0.67326  1.0000 0.6185277174
C   C24       1.0  0.98520  0.20413  0.72970  1.0000 -0.2339370106
C   C25       1.0  0.56790  0.34274  0.75173  1.0000 0.0291471063
C   C26       1.0  0.06930  0.14277  0.75966  1.0000 0.0218322346
C   C27       1.0  0.63830  0.28287  0.81256  1.0000 -0.2339370106
C   C28       1.0  0.08183  0.07011  0.83296  1.0000 0.6013290654
C   C29       1.0  0.56910  0.24005  0.86420  1.0000 0.0291471063
C   C30       1.0  0.59360  0.16426  0.93352  1.0000 0.6013290654
C   C31       1.0  0.02861  0.83903  0.88891  1.0000 0.6185277174
C   C32       1.0  0.97460  0.75948  0.83610  1.0000 0.0291471063
C   C33       1.0  0.40623  0.89991  0.82674  1.0000 0.6185277174
C   C34       1.0  0.01480  0.70413  0.77030  1.0000 -0.2339370106
C   C35       1.0  0.43210  0.84274  0.74827  1.0000 0.0218322346
C   C36       1.0  0.93070  0.64277  0.74034  1.0000 0.0218322346
C   C37       1.0  0.36170  0.78287  0.68744  1.0000 -0.2339370106
C   C38       1.0  0.91817  0.57011  0.66704  1.0000 0.6013290654
C   C39       1.0  0.43090  0.74005  0.63580  1.0000 0.0291471063
C   C40       1.0  0.40640  0.66426  0.56648  1.0000 0.6013290654
N   N1        1.0  0.87319  0.76627  0.34627  1.0000 -0.1908890051
N   N2        1.0  0.84884  0.83763  0.28801  1.0000 -0.0609804173
N   N3        1.0  0.53650  0.66166  0.23370  1.0000 -0.1908890051
N   N4        1.0  0.53398  0.72558  0.16590  1.0000 -0.0673339596
N   N5        1.0  0.12681  0.26627  0.15373  1.0000 -0.1908890051
N   N6        1.0  0.15116  0.33763  0.21199  1.0000 -0.0609804173
N   N7        1.0  0.46350  0.16166  0.26630  1.0000 -0.1908890051
N   N8        1.0  0.46602  0.22558  0.33410  1.0000 -0.0673339596
N   N9        1.0  0.12681  0.23373  0.65373  1.0000 -0.1908890051
N   N10       1.0  0.15116  0.16237  0.71199  1.0000 -0.0609804173
N   N11       1.0  0.46350  0.33834  0.76630  1.0000 -0.1908890051
N   N12       1.0  0.46602  0.27442  0.83410  1.0000 -0.0609804173
N   N13       1.0  0.87319  0.73373  0.84627  1.0000 -0.1908890051
N   N14       1.0  0.84884  0.66237  0.78801  1.0000 -0.0609804173
N   N15       1.0  0.53650  0.83834  0.73370  1.0000 -0.1908890051
N   N16       1.0  0.53398  0.77442  0.66590  1.0000 -0.0673339596
O   O1        1.0  0.15066  0.52198  0.52541  1.0000 -1.0176774641
O   O2        1.0  0.96956  0.61011  0.42871  1.0000 -0.5702342619
O   O3        1.0  0.35007  0.48187  0.48349  1.0000 -1.0136784693
O   O4        1.0  0.16710  0.47800  0.34079  1.0000 -0.5835165759
O   O5        1.0  0.31069  0.60886  0.34336  1.0000 -0.5590347727
O   O6        1.0  0.12886  0.64991  0.38617  1.0000 -0.5590347727
O   O7        1.0  0.30535  0.65149  0.52953  1.0000 -0.5590347727
O   O8        1.0  0.51754  0.44985  0.62781  1.0000 -0.5702342619
O   O9        1.0  0.48745  0.61860  0.55310  1.0000 -0.5835165759
O   O10       1.0  0.99250  0.93617  0.11794  1.0000 -0.5590347727
O   O11       1.0  0.84934  0.02198  0.97459  1.0000 -1.0176774641
O   O12       1.0  0.03044  0.11011  0.07129  1.0000 -0.5702342619
O   O13       1.0  0.64993  0.98187  0.01651  1.0000 -1.0136784693
O   O14       1.0  0.83290  0.97800  0.15921  1.0000 -0.5856830259
O   O15       1.0  0.68931  0.10886  0.15664  1.0000 -0.5590347727
O   O16       1.0  0.87114  0.14991  0.11383  1.0000 -0.5590347727
O   O17       1.0  0.69465  0.15149  0.97047  1.0000 -0.5590347727
O   O18       1.0  0.48246  0.94985  0.87219  1.0000 -0.5702342619
O   O19       1.0  0.51255  0.11860  0.94690  1.0000 -0.5835165759
O   O20       1.0  0.00750  0.43617  0.38206  1.0000 -0.5590347727
O   O21       1.0  0.84934  0.47802  0.47459  1.0000 -1.0176774641
O   O22       1.0  0.03044  0.38989  0.57129  1.0000 -0.5702342619
O   O23       1.0  0.64993  0.51813  0.51651  1.0000 -1.0136784693
O   O24       1.0  0.83290  0.52200  0.65921  1.0000 -0.5856830259
O   O25       1.0  0.68931  0.39114  0.65664  1.0000 -0.5590347727
O   O26       1.0  0.87114  0.35009  0.61383  1.0000 -0.5590347727
O   O27       1.0  0.69465  0.34851  0.47047  1.0000 -0.5590347727
O   O28       1.0  0.48246  0.55015  0.37219  1.0000 -0.5702342619
O   O29       1.0  0.51255  0.38140  0.44690  1.0000 -0.5835165759
O   O30       1.0  0.00750  0.06383  0.88206  1.0000 -0.5590347727
O   O31       1.0  0.15066  0.97802  0.02541  1.0000 -1.0176774641
O   O32       1.0  0.96956  0.88989  0.92871  1.0000 -0.5702342619
O   O33       1.0  0.35007  0.01813  0.98349  1.0000 -1.0176774641
O   O34       1.0  0.16710  0.02200  0.84079  1.0000 -0.5835165759
O   O35       1.0  0.31069  0.89114  0.84336  1.0000 -0.5590347727
O   O36       1.0  0.12886  0.85009  0.88617  1.0000 -0.5590347727
O   O37       1.0  0.30535  0.84851  0.02953  1.0000 -0.5590347727
O   O38       1.0  0.51754  0.05015  0.12781  1.0000 -0.5702342619
O   O39       1.0  0.48745  0.88140  0.05310  1.0000 -0.5835165759
O   O40       1.0  0.99250  0.56383  0.61794  1.0000 -0.5590347727
