# DDEC6 charges by PACMAN v1.1 (https://github.com/mtap-research/PACMAN-charge/)
data_2021[Sm][rtl]3[FSR]1
_chemical_formula_sum              "Sm4 H80 C80 N12 O32"
_cell_length_a       10.694
_cell_length_b       16.741
_cell_length_c       17.0208
_cell_angle_alpha    90
_cell_angle_beta     118.003
_cell_angle_gamma    90

_symmetry_space_group_name_H-M    "P 1"
_symmetry_Int_Tables_number       1

loop_
  _symmetry_equiv_pos_as_xyz
  'x, y, z'

loop_
  _atom_site_type_symbol
  _atom_site_label
  _atom_site_symmetry_multiplicity
  _atom_site_fract_x
  _atom_site_fract_y
  _atom_site_fract_z
  _atom_site_occupancy
  _atom_site_charge
Sm  Sm1       1.0  0.92675  0.40516  0.04147  1.0000 2.0648488699
Sm  Sm2       1.0  0.07325  0.90516  0.45853  1.0000 2.0648488699
Sm  Sm3       1.0  0.07325  0.59484  0.95853  1.0000 2.0648488699
Sm  Sm4       1.0  0.92675  0.09484  0.54147  1.0000 2.0648488699
H   H1        1.0  0.89790  0.48020  0.68960  1.0000 0.1089014559
H   H2        1.0  0.67000  0.32860  0.74970  1.0000 0.1196000724
H   H3        1.0  0.65890  0.32420  0.51380  1.0000 0.1089014559
H   H4        1.0  0.47070  0.07600  0.50200  1.0000 0.1379728987
H   H5        1.0  0.23830  0.20260  0.58320  1.0000 0.1196000724
H   H6        1.0  0.40210  0.30410  0.62610  1.0000 0.1196000724
H   H7        1.0  0.04410  0.23000  0.15800  1.0000 0.1003876569
H   H8        1.0  0.21590  0.15510  0.37110  1.0000 0.1379728987
H   H9        1.0  0.20320  0.12720  0.27970  1.0000 0.1379728987
H   H10       1.0  0.06630  0.14380  0.28870  1.0000 0.1296967639
H   H11       1.0  0.28370  0.27500  0.41030  1.0000 0.1196000724
H   H12       1.0  0.17860  0.34260  0.35360  1.0000 0.1379728987
H   H13       1.0  0.31570  0.32620  0.34470  1.0000 0.1379728987
H   H14       1.0  0.82380  0.26280  0.88210  1.0000 0.1089014559
H   H15       1.0  0.02890  0.06280  0.95440  1.0000 0.1296967639
H   H16       1.0  0.99630  0.10630  0.02430  1.0000 0.1296967639
H   H17       1.0  0.11460  0.13930  0.00330  1.0000 0.1296967639
H   H18       1.0  0.87300  0.07640  0.81930  1.0000 0.1379728987
H   H19       1.0  0.85490  0.16230  0.77860  1.0000 0.1379728987
H   H20       1.0  0.74190  0.12870  0.80410  1.0000 0.1379728987
H   H21       1.0  0.10210  0.98020  0.81040  1.0000 0.1089014559
H   H22       1.0  0.33000  0.82860  0.75030  1.0000 0.1196000724
H   H23       1.0  0.34110  0.82420  0.98620  1.0000 0.1089014559
H   H24       1.0  0.52930  0.57600  0.99800  1.0000 0.1379728987
H   H25       1.0  0.76170  0.70260  0.91680  1.0000 0.1196000724
H   H26       1.0  0.59790  0.80410  0.87390  1.0000 0.1196000724
H   H27       1.0  0.95590  0.73000  0.34200  1.0000 0.1003876569
H   H28       1.0  0.78410  0.65510  0.12890  1.0000 0.1379728987
H   H29       1.0  0.79680  0.62720  0.22030  1.0000 0.1379728987
H   H30       1.0  0.93370  0.64380  0.21130  1.0000 0.1296967639
H   H31       1.0  0.71630  0.77500  0.08970  1.0000 0.1196000724
H   H32       1.0  0.82140  0.84260  0.14640  1.0000 0.1379728987
H   H33       1.0  0.68430  0.82620  0.15530  1.0000 0.1379728987
H   H34       1.0  0.17620  0.76280  0.61790  1.0000 0.1089014559
H   H35       1.0  0.97110  0.56280  0.54560  1.0000 0.1296967639
H   H36       1.0  0.00370  0.60630  0.47570  1.0000 0.1296967639
H   H37       1.0  0.88540  0.63930  0.49670  1.0000 0.1296967639
H   H38       1.0  0.12700  0.57640  0.68070  1.0000 0.1379728987
H   H39       1.0  0.14510  0.66230  0.72140  1.0000 0.1379728987
H   H40       1.0  0.25810  0.62870  0.69590  1.0000 0.1379728987
H   H41       1.0  0.10210  0.51980  0.31040  1.0000 0.1089014559
H   H42       1.0  0.33000  0.67140  0.25030  1.0000 0.1196000724
H   H43       1.0  0.34110  0.67580  0.48620  1.0000 0.1089014559
H   H44       1.0  0.52930  0.92400  0.49800  1.0000 0.1379728987
H   H45       1.0  0.76170  0.79740  0.41680  1.0000 0.1196000724
H   H46       1.0  0.59790  0.69590  0.37390  1.0000 0.1196000724
H   H47       1.0  0.95590  0.77000  0.84200  1.0000 0.1003876569
H   H48       1.0  0.78410  0.84490  0.62890  1.0000 0.1379728987
H   H49       1.0  0.79680  0.87280  0.72030  1.0000 0.1379728987
H   H50       1.0  0.93370  0.85620  0.71130  1.0000 0.1296967639
H   H51       1.0  0.71630  0.72500  0.58970  1.0000 0.1196000724
H   H52       1.0  0.82140  0.65740  0.64640  1.0000 0.1379728987
H   H53       1.0  0.68430  0.67380  0.65530  1.0000 0.1379728987
H   H54       1.0  0.17620  0.73720  0.11790  1.0000 0.1089014559
H   H55       1.0  0.97110  0.93720  0.04560  1.0000 0.1296967639
H   H56       1.0  0.00370  0.89370  0.97570  1.0000 0.1296967639
H   H57       1.0  0.88540  0.86070  0.99670  1.0000 0.1296967639
H   H58       1.0  0.12700  0.92360  0.18070  1.0000 0.1379728987
H   H59       1.0  0.14510  0.83770  0.22140  1.0000 0.1379728987
H   H60       1.0  0.25810  0.87130  0.19590  1.0000 0.1379728987
H   H61       1.0  0.89790  0.01980  0.18960  1.0000 0.1089014559
H   H62       1.0  0.67000  0.17140  0.24970  1.0000 0.1196000724
H   H63       1.0  0.65890  0.17580  0.01380  1.0000 0.1089014559
H   H64       1.0  0.47070  0.42400  0.00200  1.0000 0.1379728987
H   H65       1.0  0.23830  0.29740  0.08320  1.0000 0.1196000724
H   H66       1.0  0.40210  0.19590  0.12610  1.0000 0.1196000724
H   H67       1.0  0.04410  0.27000  0.65800  1.0000 0.1003876569
H   H68       1.0  0.21590  0.34490  0.87110  1.0000 0.1379728987
H   H69       1.0  0.20320  0.37280  0.77970  1.0000 0.1379728987
H   H70       1.0  0.06630  0.35620  0.78870  1.0000 0.1296967639
H   H71       1.0  0.28370  0.22500  0.91030  1.0000 0.1196000724
H   H72       1.0  0.17860  0.15740  0.85360  1.0000 0.1379728987
H   H73       1.0  0.31570  0.17380  0.84470  1.0000 0.1379728987
H   H74       1.0  0.82380  0.23720  0.38210  1.0000 0.1089014559
H   H75       1.0  0.02890  0.43720  0.45440  1.0000 0.1296967639
H   H76       1.0  0.99630  0.39370  0.52430  1.0000 0.1296967639
H   H77       1.0  0.11460  0.36070  0.50330  1.0000 0.1296967639
H   H78       1.0  0.87300  0.42360  0.31930  1.0000 0.1379728987
H   H79       1.0  0.85490  0.33770  0.27860  1.0000 0.1379728987
H   H80       1.0  0.74190  0.37130  0.30410  1.0000 0.1379728987
C   C1        1.0  0.83490  0.43760  0.67360  1.0000 0.0369322559
C   C2        1.0  0.79610  0.40960  0.73580  1.0000 -0.0809405838
C   C3        1.0  0.69960  0.34830  0.71000  1.0000 -0.1190765781
C   C4        1.0  0.64640  0.31560  0.62650  1.0000 0.02732677
C   C5        1.0  0.69360  0.34650  0.57020  1.0000 0.0184065693
C   C6        1.0  0.54070  0.24990  0.59600  1.0000 0.0508591382
C   C7        1.0  0.56120  0.18060  0.55770  1.0000 -0.0573247551
C   C8        1.0  0.45810  0.12170  0.52860  1.0000 -0.1190765781
C   C9        1.0  0.33740  0.12900  0.53790  1.0000 -0.0322557503
C   C10       1.0  0.31860  0.19690  0.57570  1.0000 -0.1045280249
C   C11       1.0  0.41840  0.25740  0.60280  1.0000 -0.1520036535
C   C12       1.0  0.86390  0.44360  0.82700  1.0000 0.6210073529
C   C13       1.0  0.69210  0.16380  0.55070  1.0000 0.5518596469
C   C14       1.0  0.23440  0.06190  0.51100  1.0000 0.6135946809
C   C15       1.0  0.09910  0.26770  0.20030  1.0000 0.3039367868
C   C16       1.0  0.16210  0.16030  0.30760  1.0000 -0.3434313388
C   C17       1.0  0.24200  0.30200  0.35400  1.0000 -0.3306083271
C   C18       1.0  0.89690  0.23480  0.92790  1.0000 0.2604897021
C   C19       1.0  0.02360  0.11380  0.97860  1.0000 -0.3183400334
C   C20       1.0  0.84120  0.12980  0.82020  1.0000 -0.3306083271
C   C21       1.0  0.16510  0.93760  0.82640  1.0000 0.0369322559
C   C22       1.0  0.20390  0.90960  0.76420  1.0000 -0.0809405838
C   C23       1.0  0.30040  0.84830  0.79000  1.0000 -0.1190765781
C   C24       1.0  0.35360  0.81560  0.87350  1.0000 0.02732677
C   C25       1.0  0.30640  0.84650  0.92980  1.0000 0.0184065693
C   C26       1.0  0.45930  0.74990  0.90400  1.0000 0.0508591382
C   C27       1.0  0.43880  0.68060  0.94230  1.0000 -0.0573247551
C   C28       1.0  0.54190  0.62170  0.97140  1.0000 -0.1190765781
C   C29       1.0  0.66260  0.62900  0.96210  1.0000 -0.0322557503
C   C30       1.0  0.68140  0.69690  0.92430  1.0000 -0.1045280249
C   C31       1.0  0.58160  0.75740  0.89720  1.0000 -0.1520036535
C   C32       1.0  0.13610  0.94360  0.67300  1.0000 0.6210073529
C   C33       1.0  0.30790  0.66380  0.94930  1.0000 0.5518596469
C   C34       1.0  0.76560  0.56190  0.98900  1.0000 0.6135946809
C   C35       1.0  0.90090  0.76770  0.29970  1.0000 0.3039367868
C   C36       1.0  0.83790  0.66030  0.19240  1.0000 -0.3434313388
C   C37       1.0  0.75800  0.80200  0.14600  1.0000 -0.3306083271
C   C38       1.0  0.10310  0.73480  0.57210  1.0000 0.2604897021
C   C39       1.0  0.97640  0.61380  0.52140  1.0000 -0.3183400334
C   C40       1.0  0.15880  0.62980  0.67980  1.0000 -0.3306083271
C   C41       1.0  0.16510  0.56240  0.32640  1.0000 0.0369322559
C   C42       1.0  0.20390  0.59040  0.26420  1.0000 -0.0809405838
C   C43       1.0  0.30040  0.65170  0.29000  1.0000 -0.1190765781
C   C44       1.0  0.35360  0.68440  0.37350  1.0000 0.02732677
C   C45       1.0  0.30640  0.65350  0.42980  1.0000 0.0184065693
C   C46       1.0  0.45930  0.75010  0.40400  1.0000 0.0508591382
C   C47       1.0  0.43880  0.81940  0.44230  1.0000 -0.0573247551
C   C48       1.0  0.54190  0.87830  0.47140  1.0000 -0.1190765781
C   C49       1.0  0.66260  0.87100  0.46210  1.0000 -0.0322557503
C   C50       1.0  0.68140  0.80310  0.42430  1.0000 -0.1045280249
C   C51       1.0  0.58160  0.74260  0.39720  1.0000 -0.1520036535
C   C52       1.0  0.13610  0.55640  0.17300  1.0000 0.6210073529
C   C53       1.0  0.30790  0.83620  0.44930  1.0000 0.5518596469
C   C54       1.0  0.76560  0.93810  0.48900  1.0000 0.6135946809
C   C55       1.0  0.90090  0.73230  0.79970  1.0000 0.3039367868
C   C56       1.0  0.83790  0.83970  0.69240  1.0000 -0.3434313388
C   C57       1.0  0.75800  0.69800  0.64600  1.0000 -0.3306083271
C   C58       1.0  0.10310  0.76520  0.07210  1.0000 0.2655078469
C   C59       1.0  0.97640  0.88620  0.02140  1.0000 -0.3183400334
C   C60       1.0  0.15880  0.87020  0.17980  1.0000 -0.3306083271
C   C61       1.0  0.83490  0.06240  0.17360  1.0000 0.0369322559
C   C62       1.0  0.79610  0.09040  0.23580  1.0000 -0.0809405838
C   C63       1.0  0.69960  0.15170  0.21000  1.0000 -0.1190765781
C   C64       1.0  0.64640  0.18440  0.12650  1.0000 0.02732677
C   C65       1.0  0.69360  0.15350  0.07020  1.0000 0.0184065693
C   C66       1.0  0.54070  0.25010  0.09600  1.0000 0.0508591382
C   C67       1.0  0.56120  0.31940  0.05770  1.0000 -0.0573247551
C   C68       1.0  0.45810  0.37830  0.02860  1.0000 -0.1190765781
C   C69       1.0  0.33740  0.37100  0.03790  1.0000 -0.0322557503
C   C70       1.0  0.31860  0.30310  0.07570  1.0000 -0.1045280249
C   C71       1.0  0.41840  0.24260  0.10280  1.0000 -0.1520036535
C   C72       1.0  0.86390  0.05640  0.32700  1.0000 0.6210073529
C   C73       1.0  0.69210  0.33620  0.05070  1.0000 0.5518596469
C   C74       1.0  0.23440  0.43810  0.01100  1.0000 0.6135946809
C   C75       1.0  0.09910  0.23230  0.70030  1.0000 0.3039367868
C   C76       1.0  0.16210  0.33970  0.80760  1.0000 -0.3434313388
C   C77       1.0  0.24200  0.19800  0.85400  1.0000 -0.3306083271
C   C78       1.0  0.89690  0.26520  0.42790  1.0000 0.2604897021
C   C79       1.0  0.02360  0.38620  0.47860  1.0000 -0.3183400334
C   C80       1.0  0.84120  0.37020  0.32020  1.0000 -0.3306083271
N   N1        1.0  0.78700  0.40680  0.59200  1.0000 -0.2588263751
N   N2        1.0  0.16370  0.24410  0.28220  1.0000 0.0184065693
N   N3        1.0  0.92060  0.16300  0.90920  1.0000 0.0184065693
N   N4        1.0  0.21300  0.90680  0.90800  1.0000 -0.2588263751
N   N5        1.0  0.83630  0.74410  0.21780  1.0000 0.0184065693
N   N6        1.0  0.07940  0.66300  0.59080  1.0000 0.0184065693
N   N7        1.0  0.21300  0.59320  0.40800  1.0000 -0.2588263751
N   N8        1.0  0.83630  0.75590  0.71780  1.0000 0.0184065693
N   N9        1.0  0.07940  0.83700  0.09080  1.0000 0.0184065693
N   N10       1.0  0.78700  0.09320  0.09200  1.0000 -0.2588263751
N   N11       1.0  0.16370  0.25590  0.78220  1.0000 0.0184065693
N   N12       1.0  0.92060  0.33700  0.40920  1.0000 0.0184065693
O   O1        1.0  0.94900  0.50000  0.84310  1.0000 -0.6336518229
O   O2        1.0  0.83130  0.41210  0.88200  1.0000 -0.6514276863
O   O3        1.0  0.68650  0.15870  0.47480  1.0000 -0.6238770784
O   O4        1.0  0.80450  0.15380  0.61950  1.0000 -0.6019103826
O   O5        1.0  0.12590  0.06680  0.52250  1.0000 -0.7305954398
O   O6        1.0  0.25520  0.00190  0.47550  1.0000 -0.5925693811
O   O7        1.0  0.10300  0.33430  0.17300  1.0000 -0.5108933897
O   O8        1.0  0.95930  0.26930  0.99820  1.0000 -0.5234465004
O   O9        1.0  0.05100  0.00000  0.65690  1.0000 -0.6336518229
O   O10       1.0  0.16870  0.91210  0.61800  1.0000 -0.6514276863
O   O11       1.0  0.31350  0.65870  0.02520  1.0000 -0.6238770784
O   O12       1.0  0.19550  0.65380  0.88050  1.0000 -0.6019103826
O   O13       1.0  0.87410  0.56680  0.97750  1.0000 -0.7305954398
O   O14       1.0  0.74480  0.50190  0.02450  1.0000 -0.5925693811
O   O15       1.0  0.89700  0.83430  0.32700  1.0000 -0.5108933897
O   O16       1.0  0.04070  0.76930  0.50180  1.0000 -0.5234465004
O   O17       1.0  0.05100  0.50000  0.15690  1.0000 -0.6336518229
O   O18       1.0  0.16870  0.58790  0.11800  1.0000 -0.6514276863
O   O19       1.0  0.31350  0.84130  0.52520  1.0000 -0.6238770784
O   O20       1.0  0.19550  0.84620  0.38050  1.0000 -0.6019103826
O   O21       1.0  0.87410  0.93320  0.47750  1.0000 -0.7305954398
O   O22       1.0  0.74480  0.99810  0.52450  1.0000 -0.5925693811
O   O23       1.0  0.89700  0.66570  0.82700  1.0000 -0.5108933897
O   O24       1.0  0.04070  0.73070  0.00180  1.0000 -0.5234465004
O   O25       1.0  0.94900  0.00000  0.34310  1.0000 -0.6336518229
O   O26       1.0  0.83130  0.08790  0.38200  1.0000 -0.6514276863
O   O27       1.0  0.68650  0.34130  0.97480  1.0000 -0.6238770784
O   O28       1.0  0.80450  0.34620  0.11950  1.0000 -0.6019103826
O   O29       1.0  0.12590  0.43320  0.02250  1.0000 -0.7305954398
O   O30       1.0  0.25520  0.49810  0.97550  1.0000 -0.5925693811
O   O31       1.0  0.10300  0.16570  0.67300  1.0000 -0.5108933897
O   O32       1.0  0.95930  0.23070  0.49820  1.0000 -0.5234465004
