# DDEC6 charges by PACMAN v1.1 (https://github.com/mtap-research/PACMAN-charge/)
data_2021[Al][nan]3[FSR]3
_chemical_formula_sum              "Al8 H24 C40 N16 O40"
_cell_length_a       12.272
_cell_length_b       14.547
_cell_length_c       14.266
_cell_angle_alpha    90
_cell_angle_beta     101.577
_cell_angle_gamma    90

_symmetry_space_group_name_H-M    "P 1"
_symmetry_Int_Tables_number       1

loop_
  _symmetry_equiv_pos_as_xyz
  'x, y, z'

loop_
  _atom_site_type_symbol
  _atom_site_label
  _atom_site_symmetry_multiplicity
  _atom_site_fract_x
  _atom_site_fract_y
  _atom_site_fract_z
  _atom_site_occupancy
  _atom_site_charge
Al  Al1       1.0  0.76254  0.56396  0.55673  1.0000 1.5816247861
Al  Al2       1.0  0.23746  0.06396  0.94327  1.0000 1.5816247861
Al  Al3       1.0  0.23746  0.43604  0.44327  1.0000 1.5816247861
Al  Al4       1.0  0.76254  0.93604  0.05673  1.0000 1.5816247861
Al  Al5       1.0  0.50000  0.50000  0.50000  1.0000 1.6046971481
Al  Al6       1.0  0.50000  0.00000  0.00000  1.0000 1.6046971481
Al  Al7       1.0  0.00000  0.50000  0.50000  1.0000 1.5915012161
Al  Al8       1.0  0.00000  0.00000  0.00000  1.0000 1.5915012161
H   H1        1.0  0.66962  0.44476  0.48811  1.0000 0.416975934
H   H2        1.0  0.82540  0.51178  0.42408  1.0000 0.416975934
H   H3        1.0  0.71215  0.72570  0.81239  1.0000 0.1672866109
H   H4        1.0  0.40795  0.73072  0.86402  1.0000 0.2766267758
H   H5        1.0  0.91574  0.79643  0.74657  1.0000 0.1672866109
H   H6        1.0  0.22216  0.86528  0.72916  1.0000 0.2766267758
H   H7        1.0  0.33038  0.94476  0.01189  1.0000 0.41489924
H   H8        1.0  0.17460  0.01178  0.07592  1.0000 0.416975934
H   H9        1.0  0.28785  0.22570  0.68761  1.0000 0.1672866109
H   H10       1.0  0.59205  0.23072  0.63598  1.0000 0.2766267758
H   H11       1.0  0.08426  0.29643  0.75343  1.0000 0.1672866109
H   H12       1.0  0.77784  0.36528  0.77084  1.0000 0.2766267758
H   H13       1.0  0.33038  0.55524  0.51189  1.0000 0.416975934
H   H14       1.0  0.17460  0.48822  0.57592  1.0000 0.416975934
H   H15       1.0  0.28785  0.27430  0.18761  1.0000 0.1672866109
H   H16       1.0  0.59205  0.26928  0.13598  1.0000 0.2766267758
H   H17       1.0  0.08426  0.20357  0.25343  1.0000 0.1672866109
H   H18       1.0  0.77784  0.13472  0.27084  1.0000 0.2766267758
H   H19       1.0  0.66962  0.05524  0.98811  1.0000 0.416975934
H   H20       1.0  0.82540  0.98822  0.92408  1.0000 0.416975934
H   H21       1.0  0.71215  0.77430  0.31239  1.0000 0.1672866109
H   H22       1.0  0.40795  0.76928  0.36402  1.0000 0.2766267758
H   H23       1.0  0.91574  0.70357  0.24657  1.0000 0.1672866109
H   H24       1.0  0.22216  0.63472  0.22916  1.0000 0.2766267758
C   C1        1.0  0.59090  0.60003  0.66947  1.0000 0.6118979511
C   C2        1.0  0.56594  0.65339  0.75028  1.0000 0.0229673933
C   C3        1.0  0.97061  0.66365  0.60989  1.0000 0.6118979511
C   C4        1.0  0.63546  0.71419  0.81008  1.0000 -0.2383700341
C   C5        1.0  0.02635  0.74232  0.66505  1.0000 0.0274276152
C   C6        1.0  0.56772  0.75378  0.86504  1.0000 0.0229673933
C   C7        1.0  0.98675  0.79835  0.72968  1.0000 -0.2383700341
C   C8        1.0  0.59266  0.83002  0.93437  1.0000 0.5927535843
C   C9        1.0  0.07390  0.85758  0.76395  1.0000 0.0229673933
C   C10       1.0  0.08539  0.92953  0.83796  1.0000 0.5927535843
C   C11       1.0  0.40910  0.10003  0.83053  1.0000 0.6118979511
C   C12       1.0  0.43406  0.15339  0.74972  1.0000 0.0229673933
C   C13       1.0  0.02939  0.16365  0.89011  1.0000 0.6118979511
C   C14       1.0  0.36454  0.21419  0.68992  1.0000 -0.2383700341
C   C15       1.0  0.97365  0.24232  0.83495  1.0000 0.0274276152
C   C16       1.0  0.43228  0.25378  0.63496  1.0000 0.0274276152
C   C17       1.0  0.01325  0.29835  0.77032  1.0000 -0.2383700341
C   C18       1.0  0.40734  0.33002  0.56563  1.0000 0.5927535843
C   C19       1.0  0.92610  0.35758  0.73605  1.0000 0.0229673933
C   C20       1.0  0.91461  0.42953  0.66204  1.0000 0.5927535843
C   C21       1.0  0.40910  0.39997  0.33053  1.0000 0.6118979511
C   C22       1.0  0.43406  0.34661  0.24972  1.0000 0.0229673933
C   C23       1.0  0.02939  0.33635  0.39011  1.0000 0.6118979511
C   C24       1.0  0.36454  0.28581  0.18992  1.0000 -0.2383700341
C   C25       1.0  0.97365  0.25768  0.33495  1.0000 0.0274276152
C   C26       1.0  0.43228  0.24622  0.13496  1.0000 0.0274276152
C   C27       1.0  0.01325  0.20165  0.27032  1.0000 -0.2383700341
C   C28       1.0  0.40734  0.16998  0.06563  1.0000 0.5927535843
C   C29       1.0  0.92610  0.14242  0.23605  1.0000 0.0229673933
C   C30       1.0  0.91461  0.07047  0.16204  1.0000 0.5927535843
C   C31       1.0  0.59090  0.89997  0.16947  1.0000 0.6118979511
C   C32       1.0  0.56594  0.84661  0.25028  1.0000 0.0229673933
C   C33       1.0  0.97061  0.83635  0.10989  1.0000 0.6151284378
C   C34       1.0  0.63546  0.78581  0.31008  1.0000 -0.2383700341
C   C35       1.0  0.02635  0.75768  0.16505  1.0000 0.0274276152
C   C36       1.0  0.56772  0.74622  0.36504  1.0000 0.0274276152
C   C37       1.0  0.98675  0.70165  0.22968  1.0000 -0.2383700341
C   C38       1.0  0.59266  0.66998  0.43437  1.0000 0.5927535843
C   C39       1.0  0.07390  0.64242  0.26395  1.0000 0.0229673933
C   C40       1.0  0.08539  0.57047  0.33796  1.0000 0.5927535843
N   N1        1.0  0.46272  0.65400  0.76948  1.0000 -0.187800159
N   N2        1.0  0.46539  0.71613  0.83873  1.0000 -0.0717217543
N   N3        1.0  0.13151  0.76551  0.66005  1.0000 -0.187800159
N   N4        1.0  0.15799  0.83624  0.71977  1.0000 -0.0717217543
N   N5        1.0  0.53728  0.15400  0.73052  1.0000 -0.187800159
N   N6        1.0  0.53461  0.21613  0.66127  1.0000 -0.0717217543
N   N7        1.0  0.86849  0.26551  0.83995  1.0000 -0.187800159
N   N8        1.0  0.84201  0.33624  0.78023  1.0000 -0.0717217543
N   N9        1.0  0.53728  0.34600  0.23052  1.0000 -0.187800159
N   N10       1.0  0.53461  0.28387  0.16127  1.0000 -0.0717217543
N   N11       1.0  0.86849  0.23449  0.33995  1.0000 -0.187800159
N   N12       1.0  0.84201  0.16376  0.28023  1.0000 -0.0717217543
N   N13       1.0  0.46272  0.84600  0.26948  1.0000 -0.1848723043
N   N14       1.0  0.46539  0.78387  0.33873  1.0000 -0.0717217543
N   N15       1.0  0.13151  0.73449  0.16005  1.0000 -0.187800159
N   N16       1.0  0.15799  0.66376  0.21977  1.0000 -0.0717217543
O   O1        1.0  0.65005  0.48210  0.51504  1.0000 -0.9220811774
O   O2        1.0  0.51540  0.54855  0.62510  1.0000 -0.5794865762
O   O3        1.0  0.84951  0.52420  0.47452  1.0000 -0.9313886513
O   O4        1.0  0.83030  0.48115  0.65485  1.0000 -0.587306102
O   O5        1.0  0.69420  0.65723  0.46939  1.0000 -0.5614152152
O   O6        1.0  0.68551  0.61307  0.65019  1.0000 -0.5689331491
O   O7        1.0  0.86793  0.65610  0.60838  1.0000 -0.5614152152
O   O8        1.0  0.98825  0.43241  0.61285  1.0000 -0.5515123804
O   O9        1.0  0.03007  0.61064  0.57187  1.0000 -0.5689331491
O   O10       1.0  0.51172  0.87669  0.95022  1.0000 -0.5794865762
O   O11       1.0  0.34995  0.98210  0.98496  1.0000 -0.9220811774
O   O12       1.0  0.48460  0.04855  0.87490  1.0000 -0.5794865762
O   O13       1.0  0.15049  0.02420  0.02548  1.0000 -0.9313886513
O   O14       1.0  0.16970  0.98115  0.84515  1.0000 -0.587306102
O   O15       1.0  0.30580  0.15723  0.03061  1.0000 -0.5614152152
O   O16       1.0  0.31449  0.11307  0.84981  1.0000 -0.5689331491
O   O17       1.0  0.13207  0.15610  0.89162  1.0000 -0.5614152152
O   O18       1.0  0.01175  0.93241  0.88715  1.0000 -0.5515123804
O   O19       1.0  0.96993  0.11064  0.92813  1.0000 -0.5689331491
O   O20       1.0  0.48828  0.37669  0.54978  1.0000 -0.5794865762
O   O21       1.0  0.34995  0.51790  0.48496  1.0000 -0.9220811774
O   O22       1.0  0.48460  0.45145  0.37490  1.0000 -0.5794865762
O   O23       1.0  0.15049  0.47580  0.52548  1.0000 -0.9313886513
O   O24       1.0  0.16970  0.51885  0.34515  1.0000 -0.587306102
O   O25       1.0  0.30580  0.34277  0.53061  1.0000 -0.5614152152
O   O26       1.0  0.31449  0.38693  0.34981  1.0000 -0.5689331491
O   O27       1.0  0.13207  0.34390  0.39162  1.0000 -0.5689331491
O   O28       1.0  0.01175  0.56759  0.38715  1.0000 -0.5515123804
O   O29       1.0  0.96993  0.38936  0.42813  1.0000 -0.5689331491
O   O30       1.0  0.48828  0.12331  0.04978  1.0000 -0.5794865762
O   O31       1.0  0.65005  0.01790  0.01504  1.0000 -0.9220811774
O   O32       1.0  0.51540  0.95145  0.12510  1.0000 -0.5794865762
O   O33       1.0  0.84951  0.97580  0.97452  1.0000 -0.9313886513
O   O34       1.0  0.83030  0.01885  0.15485  1.0000 -0.587306102
O   O35       1.0  0.69420  0.84277  0.96939  1.0000 -0.5614152152
O   O36       1.0  0.68551  0.88693  0.15019  1.0000 -0.5689331491
O   O37       1.0  0.86793  0.84390  0.10838  1.0000 -0.5689331491
O   O38       1.0  0.98825  0.06759  0.11285  1.0000 -0.5515123804
O   O39       1.0  0.03007  0.88936  0.07187  1.0000 -0.5689331491
O   O40       1.0  0.51172  0.62331  0.45022  1.0000 -0.5794865762
