# DDEC6 charges by PACMAN v1.1 (https://github.com/mtap-research/PACMAN-charge/)
data_2021[Cd][pcu]3[FSR]4
_chemical_formula_sum              "Cd2 H84 C68 S4 N16 O12"
_cell_length_a       13.428
_cell_length_b       11.372
_cell_length_c       16.199
_cell_angle_alpha    90
_cell_angle_beta     96.69
_cell_angle_gamma    90

_symmetry_space_group_name_H-M    "P 1"
_symmetry_Int_Tables_number       1

loop_
  _symmetry_equiv_pos_as_xyz
  'x, y, z'

loop_
  _atom_site_type_symbol
  _atom_site_label
  _atom_site_symmetry_multiplicity
  _atom_site_fract_x
  _atom_site_fract_y
  _atom_site_fract_z
  _atom_site_occupancy
  _atom_site_charge
Cd  Cd1       1.0  0.00000  0.00000  0.00000  1.0000 0.8408343114
Cd  Cd2       1.0  0.00000  0.50000  0.50000  1.0000 0.8408343114
H   H1        1.0  0.82500  0.18880  0.99850  1.0000 0.117115781
H   H2        1.0  0.37140  0.83150  0.94230  1.0000 0.1259210325
H   H3        1.0  0.32390  0.17440  0.89250  1.0000 0.117115781
H   H4        1.0  0.01270  0.14830  0.83320  1.0000 0.1368071895
H   H5        1.0  0.47150  0.22640  0.96570  1.0000 0.117115781
H   H6        1.0  0.88660  0.28200  0.77430  1.0000 0.1368071895
H   H7        1.0  0.70950  0.35520  0.92680  1.0000 0.107946771
H   H8        1.0  0.74550  0.41140  0.84670  1.0000 0.117115781
H   H9        1.0  0.34320  0.23470  0.61020  1.0000 0.107946771
H   H10       1.0  0.30980  0.17050  0.68800  1.0000 0.117115781
H   H11       1.0  0.63460  0.19730  0.84760  1.0000 0.0907200008
H   H12       1.0  0.67600  0.24540  0.76760  1.0000 0.117115781
H   H13       1.0  0.52710  0.35740  0.84830  1.0000 0.0907200008
H   H14       1.0  0.57110  0.41120  0.77090  1.0000 0.107946771
H   H15       1.0  0.38690  0.39870  0.68820  1.0000 0.107946771
H   H16       1.0  0.34710  0.34090  0.76610  1.0000 0.107946771
H   H17       1.0  0.46890  0.19220  0.76570  1.0000 0.0989710364
H   H18       1.0  0.50890  0.25080  0.68870  1.0000 0.0989710364
H   H19       1.0  0.12810  0.20830  0.72130  1.0000 0.1368071895
H   H20       1.0  0.98250  0.30720  0.64730  1.0000 0.1368071895
H   H21       1.0  0.22010  0.40530  0.54580  1.0000 0.117115781
H   H22       1.0  0.17500  0.68880  0.50150  1.0000 0.117115781
H   H23       1.0  0.62860  0.33150  0.55770  1.0000 0.1259210325
H   H24       1.0  0.67610  0.67440  0.60750  1.0000 0.117115781
H   H25       1.0  0.98730  0.64830  0.66680  1.0000 0.1368071895
H   H26       1.0  0.52850  0.72640  0.53430  1.0000 0.117115781
H   H27       1.0  0.11340  0.78200  0.72570  1.0000 0.1368071895
H   H28       1.0  0.29050  0.85520  0.57320  1.0000 0.107946771
H   H29       1.0  0.25450  0.91140  0.65330  1.0000 0.117115781
H   H30       1.0  0.65680  0.73470  0.88980  1.0000 0.107946771
H   H31       1.0  0.69020  0.67050  0.81200  1.0000 0.117115781
H   H32       1.0  0.36540  0.69730  0.65240  1.0000 0.0907200008
H   H33       1.0  0.32400  0.74540  0.73240  1.0000 0.117115781
H   H34       1.0  0.47290  0.85740  0.65170  1.0000 0.0907200008
H   H35       1.0  0.42890  0.91120  0.72910  1.0000 0.107946771
H   H36       1.0  0.61310  0.89870  0.81180  1.0000 0.107946771
H   H37       1.0  0.65290  0.84090  0.73390  1.0000 0.107946771
H   H38       1.0  0.53110  0.69220  0.73430  1.0000 0.0989710364
H   H39       1.0  0.49110  0.75080  0.81130  1.0000 0.0989710364
H   H40       1.0  0.87190  0.70830  0.77870  1.0000 0.1368071895
H   H41       1.0  0.01750  0.80720  0.85270  1.0000 0.1368071895
H   H42       1.0  0.77990  0.90530  0.95420  1.0000 0.117115781
H   H43       1.0  0.17500  0.81120  0.00150  1.0000 0.117115781
H   H44       1.0  0.62860  0.16850  0.05770  1.0000 0.1259210325
H   H45       1.0  0.67610  0.82560  0.10750  1.0000 0.117115781
H   H46       1.0  0.98730  0.85170  0.16680  1.0000 0.1368071895
H   H47       1.0  0.52850  0.77360  0.03430  1.0000 0.117115781
H   H48       1.0  0.11340  0.71800  0.22570  1.0000 0.1368071895
H   H49       1.0  0.29050  0.64480  0.07320  1.0000 0.107946771
H   H50       1.0  0.25450  0.58860  0.15330  1.0000 0.117115781
H   H51       1.0  0.65680  0.76530  0.38980  1.0000 0.107946771
H   H52       1.0  0.69020  0.82950  0.31200  1.0000 0.117115781
H   H53       1.0  0.36540  0.80270  0.15240  1.0000 0.0907200008
H   H54       1.0  0.32400  0.75460  0.23240  1.0000 0.117115781
H   H55       1.0  0.47290  0.64260  0.15170  1.0000 0.0907200008
H   H56       1.0  0.42890  0.58880  0.22910  1.0000 0.107946771
H   H57       1.0  0.61310  0.60130  0.31180  1.0000 0.107946771
H   H58       1.0  0.65290  0.65910  0.23390  1.0000 0.107946771
H   H59       1.0  0.53110  0.80780  0.23430  1.0000 0.0989710364
H   H60       1.0  0.49110  0.74920  0.31130  1.0000 0.0989710364
H   H61       1.0  0.87190  0.79170  0.27870  1.0000 0.1368071895
H   H62       1.0  0.01750  0.69280  0.35270  1.0000 0.1368071895
H   H63       1.0  0.77990  0.59470  0.45420  1.0000 0.117115781
H   H64       1.0  0.82500  0.31120  0.49850  1.0000 0.117115781
H   H65       1.0  0.37140  0.66850  0.44230  1.0000 0.1259210325
H   H66       1.0  0.32390  0.32560  0.39250  1.0000 0.117115781
H   H67       1.0  0.01270  0.35170  0.33320  1.0000 0.1368071895
H   H68       1.0  0.47150  0.27360  0.46570  1.0000 0.117115781
H   H69       1.0  0.88660  0.21800  0.27430  1.0000 0.1368071895
H   H70       1.0  0.70950  0.14480  0.42680  1.0000 0.107946771
H   H71       1.0  0.74550  0.08860  0.34670  1.0000 0.117115781
H   H72       1.0  0.34320  0.26530  0.11020  1.0000 0.107946771
H   H73       1.0  0.30980  0.32950  0.18800  1.0000 0.117115781
H   H74       1.0  0.63460  0.30270  0.34760  1.0000 0.0907200008
H   H75       1.0  0.67600  0.25460  0.26760  1.0000 0.117115781
H   H76       1.0  0.52710  0.14260  0.34830  1.0000 0.0907200008
H   H77       1.0  0.57110  0.08880  0.27090  1.0000 0.107946771
H   H78       1.0  0.38690  0.10130  0.18820  1.0000 0.107946771
H   H79       1.0  0.34710  0.15910  0.26610  1.0000 0.107946771
H   H80       1.0  0.46890  0.30780  0.26570  1.0000 0.0989710364
H   H81       1.0  0.50890  0.24920  0.18870  1.0000 0.0989710364
H   H82       1.0  0.12810  0.29170  0.22130  1.0000 0.1368071895
H   H83       1.0  0.98250  0.19280  0.14730  1.0000 0.1368071895
H   H84       1.0  0.22010  0.09470  0.04580  1.0000 0.117115781
C   C1        1.0  0.48760  0.94020  0.99770  1.0000 0.0764461375
C   C2        1.0  0.85620  0.19470  0.95040  1.0000 0.0907200008
C   C3        1.0  0.39110  0.90960  0.94850  1.0000 -0.1788728667
C   C4        1.0  0.36460  0.11650  0.91920  1.0000 -0.1246946238
C   C5        1.0  0.95770  0.17290  0.85880  1.0000 -0.0521393165
C   C6        1.0  0.45180  0.14790  0.96240  1.0000 -0.1414077305
C   C7        1.0  0.89030  0.24760  0.82670  1.0000 -0.1008724299
C   C8        1.0  0.73220  0.33770  0.87340  1.0000 -0.1008724299
C   C9        1.0  0.31310  0.24650  0.66120  1.0000 -0.1348479025
C   C10       1.0  0.65020  0.26850  0.81870  1.0000 -0.2043902286
C   C11       1.0  0.55570  0.33820  0.79770  1.0000 -0.1788728667
C   C12       1.0  0.37820  0.32460  0.71620  1.0000 -0.2043902286
C   C13       1.0  0.47960  0.26710  0.73950  1.0000 -0.1788728667
C   C14       1.0  0.33220  0.99610  0.91270  1.0000 -0.1128401634
C   C15       1.0  0.12860  0.25990  0.67690  1.0000 -0.0802058958
C   C16       1.0  0.04870  0.31690  0.63710  1.0000 -0.0521393165
C   C17       1.0  0.17830  0.37050  0.58080  1.0000 0.0907200008
C   C18       1.0  0.51240  0.44020  0.50230  1.0000 0.0764461375
C   C19       1.0  0.14380  0.69470  0.54960  1.0000 0.0907200008
C   C20       1.0  0.60890  0.40960  0.55150  1.0000 -0.1788728667
C   C21       1.0  0.63540  0.61650  0.58080  1.0000 -0.1246946238
C   C22       1.0  0.04230  0.67290  0.64120  1.0000 -0.0521393165
C   C23       1.0  0.54820  0.64790  0.53760  1.0000 -0.1414077305
C   C24       1.0  0.10970  0.74760  0.67330  1.0000 -0.1008724299
C   C25       1.0  0.26780  0.83770  0.62660  1.0000 -0.1008724299
C   C26       1.0  0.68690  0.74650  0.83880  1.0000 -0.1348479025
C   C27       1.0  0.34980  0.76850  0.68130  1.0000 -0.2043902286
C   C28       1.0  0.44430  0.83820  0.70230  1.0000 -0.1788728667
C   C29       1.0  0.62180  0.82460  0.78380  1.0000 -0.2043902286
C   C30       1.0  0.52040  0.76710  0.76050  1.0000 -0.1788728667
C   C31       1.0  0.66780  0.49610  0.58730  1.0000 -0.1128401634
C   C32       1.0  0.87140  0.75990  0.82310  1.0000 -0.0802058958
C   C33       1.0  0.95130  0.81690  0.86290  1.0000 -0.0521393165
C   C34       1.0  0.82170  0.87050  0.91920  1.0000 0.0907200008
C   C35       1.0  0.51240  0.05980  0.00230  1.0000 0.0764461375
C   C36       1.0  0.14380  0.80530  0.04960  1.0000 0.0907200008
C   C37       1.0  0.60890  0.09040  0.05150  1.0000 -0.1788728667
C   C38       1.0  0.63540  0.88350  0.08080  1.0000 -0.1246946238
C   C39       1.0  0.04230  0.82710  0.14120  1.0000 -0.0521393165
C   C40       1.0  0.54820  0.85210  0.03760  1.0000 -0.1414077305
C   C41       1.0  0.10970  0.75240  0.17330  1.0000 -0.1008724299
C   C42       1.0  0.26780  0.66230  0.12660  1.0000 -0.1008724299
C   C43       1.0  0.68690  0.75350  0.33880  1.0000 -0.1348479025
C   C44       1.0  0.34980  0.73150  0.18130  1.0000 -0.2043902286
C   C45       1.0  0.44430  0.66180  0.20230  1.0000 -0.1788728667
C   C46       1.0  0.62180  0.67540  0.28380  1.0000 -0.2043902286
C   C47       1.0  0.52040  0.73290  0.26050  1.0000 -0.1788728667
C   C48       1.0  0.66780  0.00390  0.08730  1.0000 -0.1128401634
C   C49       1.0  0.87140  0.74010  0.32310  1.0000 -0.0802058958
C   C50       1.0  0.95130  0.68310  0.36290  1.0000 -0.0521393165
C   C51       1.0  0.82170  0.62950  0.41920  1.0000 0.0907200008
C   C52       1.0  0.48760  0.55980  0.49770  1.0000 0.0764461375
C   C53       1.0  0.85620  0.30530  0.45040  1.0000 0.0907200008
C   C54       1.0  0.39110  0.59040  0.44850  1.0000 -0.1788728667
C   C55       1.0  0.36460  0.38350  0.41920  1.0000 -0.1246946238
C   C56       1.0  0.95770  0.32710  0.35880  1.0000 -0.0521393165
C   C57       1.0  0.45180  0.35210  0.46240  1.0000 -0.1414077305
C   C58       1.0  0.89030  0.25240  0.32670  1.0000 -0.1008724299
C   C59       1.0  0.73220  0.16230  0.37340  1.0000 -0.1008724299
C   C60       1.0  0.31310  0.25350  0.16120  1.0000 -0.1414077305
C   C61       1.0  0.65020  0.23150  0.31870  1.0000 -0.2043902286
C   C62       1.0  0.55570  0.16180  0.29770  1.0000 -0.1788728667
C   C63       1.0  0.37820  0.17540  0.21620  1.0000 -0.2043902286
C   C64       1.0  0.47960  0.23290  0.23950  1.0000 -0.1788728667
C   C65       1.0  0.33220  0.50390  0.41270  1.0000 -0.1128401634
C   C66       1.0  0.12860  0.24010  0.17690  1.0000 -0.0802058958
C   C67       1.0  0.04870  0.18310  0.13710  1.0000 -0.0521393165
C   C68       1.0  0.17830  0.12950  0.08080  1.0000 0.0907200008
S   S1        1.0  0.21297  0.96640  0.85976  1.0000 1.1478880264
S   S2        1.0  0.78703  0.46640  0.64024  1.0000 1.1478880264
S   S3        1.0  0.78703  0.03360  0.14024  1.0000 1.1478880264
S   S4        1.0  0.21297  0.53360  0.35976  1.0000 1.1478880264
N   N1        1.0  0.93620  0.13510  0.93620  1.0000 -0.2655715727
N   N2        1.0  0.82510  0.26580  0.88570  1.0000 0.0391974511
N   N3        1.0  0.08140  0.39250  0.57810  1.0000 -0.2619885884
N   N4        1.0  0.20920  0.29200  0.63990  1.0000 0.0391974511
N   N5        1.0  0.06380  0.63510  0.56380  1.0000 -0.2655715727
N   N6        1.0  0.17490  0.76580  0.61430  1.0000 0.0391974511
N   N7        1.0  0.91860  0.89250  0.92190  1.0000 -0.2619885884
N   N8        1.0  0.79080  0.79200  0.86010  1.0000 0.0391974511
N   N9        1.0  0.06380  0.86490  0.06380  1.0000 -0.2619885884
N   N10       1.0  0.17490  0.73420  0.11430  1.0000 0.0391974511
N   N11       1.0  0.91860  0.60750  0.42190  1.0000 -0.2619885884
N   N12       1.0  0.79080  0.70800  0.36010  1.0000 0.0391974511
N   N13       1.0  0.93620  0.36490  0.43620  1.0000 -0.2655715727
N   N14       1.0  0.82510  0.23420  0.38570  1.0000 0.0391974511
N   N15       1.0  0.08140  0.10750  0.07810  1.0000 -0.2619885884
N   N16       1.0  0.20920  0.20800  0.13990  1.0000 0.0391974511
O   O1        1.0  0.14180  0.01000  0.91320  1.0000 -0.6502484687
O   O2        1.0  0.20880  0.02260  0.77980  1.0000 -0.6424422346
O   O3        1.0  0.20780  0.83670  0.85490  1.0000 -0.6502484687
O   O4        1.0  0.85820  0.51000  0.58680  1.0000 -0.6502484687
O   O5        1.0  0.79120  0.52260  0.72020  1.0000 -0.6424422346
O   O6        1.0  0.79220  0.33670  0.64510  1.0000 -0.6502484687
O   O7        1.0  0.85820  0.99000  0.08680  1.0000 -0.6502484687
O   O8        1.0  0.79120  0.97740  0.22020  1.0000 -0.6424422346
O   O9        1.0  0.79220  0.16330  0.14510  1.0000 -0.6502484687
O   O10       1.0  0.14180  0.49000  0.41320  1.0000 -0.6502484687
O   O11       1.0  0.20880  0.47740  0.27980  1.0000 -0.6424422346
O   O12       1.0  0.20780  0.66330  0.35490  1.0000 -0.6502484687
