# DDEC6 charges by PACMAN v1.1 (https://github.com/mtap-research/PACMAN-charge/)
data_2021[Zn][dmc]3[FSR]2
_chemical_formula_sum              "Zn8 H48 C48 N40 O24"
_cell_length_a       10.184
_cell_length_b       9.878
_cell_length_c       25.924
_cell_angle_alpha    90
_cell_angle_beta     91.328
_cell_angle_gamma    90

_symmetry_space_group_name_H-M    "P 1"
_symmetry_Int_Tables_number       1

loop_
  _symmetry_equiv_pos_as_xyz
  'x, y, z'

loop_
  _atom_site_type_symbol
  _atom_site_label
  _atom_site_symmetry_multiplicity
  _atom_site_fract_x
  _atom_site_fract_y
  _atom_site_fract_z
  _atom_site_occupancy
  _atom_site_charge
Zn  Zn1       1.0  0.83625  0.41973  0.70218  1.0000 0.7603752294
Zn  Zn2       1.0  0.60865  0.58334  0.79094  1.0000 0.7390581646
Zn  Zn3       1.0  0.66375  0.91973  0.29782  1.0000 0.7603752294
Zn  Zn4       1.0  0.89135  0.08334  0.20906  1.0000 0.7390581646
Zn  Zn5       1.0  0.16375  0.58027  0.29782  1.0000 0.7603752294
Zn  Zn6       1.0  0.39135  0.41666  0.20906  1.0000 0.7390581646
Zn  Zn7       1.0  0.33625  0.08027  0.70218  1.0000 0.7603752294
Zn  Zn8       1.0  0.10865  0.91666  0.79094  1.0000 0.7390581646
H   H1        1.0  0.79305  0.27000  0.51797  1.0000 0.3619635978
H   H2        1.0  0.63624  0.76994  0.96600  1.0000 0.3619635978
H   H3        1.0  0.13838  0.68601  0.71327  1.0000 0.2595944365
H   H4        1.0  0.15353  0.57137  0.74496  1.0000 0.2333362454
H   H5        1.0  0.74521  0.81151  0.84886  1.0000 0.2933675029
H   H6        1.0  0.86591  0.88009  0.84879  1.0000 0.2595944365
H   H7        1.0  0.36285  0.44466  0.79044  1.0000 0.2595944365
H   H8        1.0  0.28587  0.36250  0.75753  1.0000 0.2351345697
H   H9        1.0  0.69164  0.20453  0.64017  1.0000 0.3005894029
H   H10       1.0  0.68678  0.10054  0.67707  1.0000 0.2333362454
H   H11       1.0  0.96847  0.38922  0.42231  1.0000 0.1440749892
H   H12       1.0  0.45904  0.37389  0.92655  1.0000 0.1451233008
H   H13       1.0  0.70695  0.77000  0.48203  1.0000 0.3619635978
H   H14       1.0  0.86376  0.26994  0.03400  1.0000 0.3619635978
H   H15       1.0  0.36162  0.18601  0.28673  1.0000 0.2595944365
H   H16       1.0  0.34647  0.07137  0.25504  1.0000 0.2333362454
H   H17       1.0  0.75479  0.31151  0.15114  1.0000 0.2933675029
H   H18       1.0  0.63409  0.38009  0.15121  1.0000 0.2595944365
H   H19       1.0  0.13715  0.94466  0.20956  1.0000 0.2595944365
H   H20       1.0  0.21413  0.86250  0.24247  1.0000 0.2351345697
H   H21       1.0  0.80836  0.70453  0.35983  1.0000 0.3005894029
H   H22       1.0  0.81322  0.60054  0.32293  1.0000 0.2333362454
H   H23       1.0  0.53153  0.88922  0.57769  1.0000 0.1440749892
H   H24       1.0  0.04096  0.87389  0.07345  1.0000 0.1451233008
H   H25       1.0  0.20695  0.73000  0.48203  1.0000 0.3619635978
H   H26       1.0  0.36376  0.23006  0.03400  1.0000 0.3619635978
H   H27       1.0  0.86162  0.31399  0.28673  1.0000 0.2595944365
H   H28       1.0  0.84647  0.42863  0.25504  1.0000 0.2333362454
H   H29       1.0  0.25479  0.18849  0.15114  1.0000 0.2933675029
H   H30       1.0  0.13409  0.11991  0.15121  1.0000 0.2595944365
H   H31       1.0  0.63715  0.55534  0.20956  1.0000 0.2595944365
H   H32       1.0  0.71413  0.63750  0.24247  1.0000 0.2333362454
H   H33       1.0  0.30836  0.79547  0.35983  1.0000 0.3005894029
H   H34       1.0  0.31322  0.89946  0.32293  1.0000 0.2333362454
H   H35       1.0  0.03153  0.61078  0.57769  1.0000 0.1440749892
H   H36       1.0  0.54096  0.62611  0.07345  1.0000 0.1451233008
H   H37       1.0  0.29305  0.23000  0.51797  1.0000 0.3619635978
H   H38       1.0  0.13624  0.73006  0.96600  1.0000 0.3619635978
H   H39       1.0  0.63838  0.81399  0.71327  1.0000 0.2595944365
H   H40       1.0  0.65353  0.92863  0.74496  1.0000 0.2333362454
H   H41       1.0  0.24521  0.68849  0.84886  1.0000 0.2933675029
H   H42       1.0  0.36591  0.61991  0.84879  1.0000 0.2595944365
H   H43       1.0  0.86285  0.05534  0.79044  1.0000 0.2595944365
H   H44       1.0  0.78587  0.13750  0.75753  1.0000 0.2333362454
H   H45       1.0  0.19164  0.29547  0.64017  1.0000 0.3005894029
H   H46       1.0  0.18678  0.39946  0.67707  1.0000 0.2333362454
H   H47       1.0  0.46847  0.11078  0.42231  1.0000 0.1440749892
H   H48       1.0  0.95904  0.12611  0.92655  1.0000 0.1451233008
C   C1        1.0  0.87070  0.40870  0.59170  1.0000 0.5939578095
C   C2        1.0  0.91630  0.38650  0.49690  1.0000 0.269789321
C   C3        1.0  0.93670  0.45470  0.54390  1.0000 -0.1209860689
C   C4        1.0  0.98100  0.43380  0.45360  1.0000 -0.1752200334
C   C5        1.0  0.58420  0.59480  0.90060  1.0000 0.5844143906
C   C6        1.0  0.54390  0.54580  0.95190  1.0000 -0.133032406
C   C7        1.0  0.56740  0.62100  0.99640  1.0000 0.2595944365
C   C8        1.0  0.47610  0.42530  0.95600  1.0000 -0.1690390504
C   C9        1.0  0.59130  0.24920  0.69570  1.0000 0.4935522617
C   C10       1.0  0.46310  0.34060  0.74860  1.0000 0.5020369568
C   C11       1.0  0.99000  0.64880  0.74990  1.0000 0.5053428688
C   C12       1.0  0.85620  0.75070  0.79840  1.0000 0.4935522617
C   C13       1.0  0.62930  0.90870  0.40830  1.0000 0.5939578095
C   C14       1.0  0.58370  0.88650  0.50310  1.0000 0.269789321
C   C15       1.0  0.56330  0.95470  0.45610  1.0000 -0.1209860689
C   C16       1.0  0.51900  0.93380  0.54640  1.0000 -0.1752200334
C   C17       1.0  0.91580  0.09480  0.09940  1.0000 0.5844143906
C   C18       1.0  0.95610  0.04580  0.04810  1.0000 -0.133032406
C   C19       1.0  0.93260  0.12100  0.00360  1.0000 0.2595944365
C   C20       1.0  0.02390  0.92530  0.04400  1.0000 -0.1690390504
C   C21       1.0  0.90870  0.74920  0.30430  1.0000 0.4935522617
C   C22       1.0  0.03690  0.84060  0.25140  1.0000 0.5020369568
C   C23       1.0  0.51000  0.14880  0.25010  1.0000 0.5020369568
C   C24       1.0  0.64380  0.25070  0.20160  1.0000 0.4935522617
C   C25       1.0  0.12930  0.59130  0.40830  1.0000 0.5939578095
C   C26       1.0  0.08370  0.61350  0.50310  1.0000 0.269789321
C   C27       1.0  0.06330  0.54530  0.45610  1.0000 -0.1209860689
C   C28       1.0  0.01900  0.56620  0.54640  1.0000 -0.1752200334
C   C29       1.0  0.41580  0.40520  0.09940  1.0000 0.5844143906
C   C30       1.0  0.45610  0.45420  0.04810  1.0000 -0.133032406
C   C31       1.0  0.43260  0.37900  0.00360  1.0000 0.2595944365
C   C32       1.0  0.52390  0.57470  0.04400  1.0000 -0.1690390504
C   C33       1.0  0.40870  0.75080  0.30430  1.0000 0.4935522617
C   C34       1.0  0.53690  0.65940  0.25140  1.0000 0.5020369568
C   C35       1.0  0.01000  0.35120  0.25010  1.0000 0.5020369568
C   C36       1.0  0.14380  0.24930  0.20160  1.0000 0.4935522617
C   C37       1.0  0.37070  0.09130  0.59170  1.0000 0.5939578095
C   C38       1.0  0.41630  0.11350  0.49690  1.0000 0.269789321
C   C39       1.0  0.43670  0.04530  0.54390  1.0000 -0.1209860689
C   C40       1.0  0.48100  0.06620  0.45360  1.0000 -0.1752200334
C   C41       1.0  0.08420  0.90520  0.90060  1.0000 0.5844143906
C   C42       1.0  0.04390  0.95420  0.95190  1.0000 -0.133032406
C   C43       1.0  0.06740  0.87900  0.99640  1.0000 0.2595944365
C   C44       1.0  0.97610  0.07470  0.95600  1.0000 -0.1690390504
C   C45       1.0  0.09130  0.25080  0.69570  1.0000 0.4935522617
C   C46       1.0  0.96310  0.15940  0.74860  1.0000 0.5020369568
C   C47       1.0  0.49000  0.85120  0.74990  1.0000 0.5053428688
C   C48       1.0  0.35620  0.74930  0.79840  1.0000 0.4935522617
N   N1        1.0  0.10070  0.61380  0.72420  1.0000 -0.5913391284
N   N2        1.0  0.97930  0.76220  0.77910  1.0000 -0.5170668534
N   N3        1.0  0.80390  0.84660  0.82936  1.0000 -0.6309668444
N   N4        1.0  0.79350  0.64250  0.78149  1.0000 -0.3292336671
N   N5        1.0  0.88190  0.57500  0.74895  1.0000 -0.3292336671
N   N6        1.0  0.65580  0.35470  0.71515  1.0000 -0.3425477951
N   N7        1.0  0.56980  0.41710  0.74976  1.0000 -0.3425477951
N   N8        1.0  0.46940  0.23480  0.71552  1.0000 -0.493482562
N   N9        1.0  0.35560  0.36510  0.77700  1.0000 -0.5913391284
N   N10       1.0  0.64140  0.16130  0.66080  1.0000 -0.5913391284
N   N11       1.0  0.39930  0.11380  0.27580  1.0000 -0.5913391284
N   N12       1.0  0.52070  0.26220  0.22090  1.0000 -0.5170668534
N   N13       1.0  0.69610  0.34660  0.17064  1.0000 -0.6309668444
N   N14       1.0  0.70650  0.14250  0.21851  1.0000 -0.3292336671
N   N15       1.0  0.61810  0.07500  0.25105  1.0000 -0.3292336671
N   N16       1.0  0.84420  0.85470  0.28485  1.0000 -0.3425477951
N   N17       1.0  0.93020  0.91710  0.25024  1.0000 -0.3425477951
N   N18       1.0  0.03060  0.73480  0.28448  1.0000 -0.493482562
N   N19       1.0  0.14440  0.86510  0.22300  1.0000 -0.5913391284
N   N20       1.0  0.85860  0.66130  0.33920  1.0000 -0.5913391284
N   N21       1.0  0.89930  0.38620  0.27580  1.0000 -0.5913391284
N   N22       1.0  0.02070  0.23780  0.22090  1.0000 -0.5170668534
N   N23       1.0  0.19610  0.15340  0.17064  1.0000 -0.6309668444
N   N24       1.0  0.20650  0.35750  0.21851  1.0000 -0.3292336671
N   N25       1.0  0.11810  0.42500  0.25105  1.0000 -0.3292336671
N   N26       1.0  0.34420  0.64530  0.28485  1.0000 -0.3425477951
N   N27       1.0  0.43020  0.58290  0.25024  1.0000 -0.3425477951
N   N28       1.0  0.53060  0.76520  0.28448  1.0000 -0.493482562
N   N29       1.0  0.64440  0.63490  0.22300  1.0000 -0.5913391284
N   N30       1.0  0.35860  0.83870  0.33920  1.0000 -0.5913391284
N   N31       1.0  0.60070  0.88620  0.72420  1.0000 -0.5913391284
N   N32       1.0  0.47930  0.73780  0.77910  1.0000 -0.5170668534
N   N33       1.0  0.30390  0.65340  0.82936  1.0000 -0.6309668444
N   N34       1.0  0.29350  0.85750  0.78149  1.0000 -0.3292336671
N   N35       1.0  0.38190  0.92500  0.74895  1.0000 -0.3292336671
N   N36       1.0  0.15580  0.14530  0.71515  1.0000 -0.3425477951
N   N37       1.0  0.06980  0.08290  0.74976  1.0000 -0.3425477951
N   N38       1.0  0.96940  0.26520  0.71552  1.0000 -0.493482562
N   N39       1.0  0.85560  0.13490  0.77700  1.0000 -0.5913391284
N   N40       1.0  0.14140  0.33870  0.66080  1.0000 -0.5913391284
O   O1        1.0  0.89320  0.47330  0.63277  1.0000 -0.507682117
O   O2        1.0  0.79760  0.30690  0.58900  1.0000 -0.5291801265
O   O3        1.0  0.83580  0.27870  0.49180  1.0000 -0.417304667
O   O4        1.0  0.55920  0.52280  0.86148  1.0000 -0.507682117
O   O5        1.0  0.64060  0.70820  0.89810  1.0000 -0.5291801265
O   O6        1.0  0.63500  0.74110  0.99560  1.0000 -0.4383910618
O   O7        1.0  0.60680  0.97330  0.36723  1.0000 -0.507682117
O   O8        1.0  0.70240  0.80690  0.41100  1.0000 -0.5291801265
O   O9        1.0  0.66420  0.77870  0.50820  1.0000 -0.417304667
O   O10       1.0  0.94080  0.02280  0.13852  1.0000 -0.507682117
O   O11       1.0  0.85940  0.20820  0.10190  1.0000 -0.5291801265
O   O12       1.0  0.86500  0.24110  0.00440  1.0000 -0.4383910618
O   O13       1.0  0.10680  0.52670  0.36723  1.0000 -0.507682117
O   O14       1.0  0.20240  0.69310  0.41100  1.0000 -0.5291801265
O   O15       1.0  0.16420  0.72130  0.50820  1.0000 -0.417304667
O   O16       1.0  0.44080  0.47720  0.13852  1.0000 -0.507682117
O   O17       1.0  0.35940  0.29180  0.10190  1.0000 -0.5291801265
O   O18       1.0  0.36500  0.25890  0.00440  1.0000 -0.4383910618
O   O19       1.0  0.39320  0.02670  0.63277  1.0000 -0.507682117
O   O20       1.0  0.29760  0.19310  0.58900  1.0000 -0.5291801265
O   O21       1.0  0.33580  0.22130  0.49180  1.0000 -0.417304667
O   O22       1.0  0.05920  0.97720  0.86148  1.0000 -0.507682117
O   O23       1.0  0.14060  0.79180  0.89810  1.0000 -0.5291801265
O   O24       1.0  0.13500  0.75890  0.99560  1.0000 -0.4383910618
