# DDEC6 charges by PACMAN v1.1 (https://github.com/mtap-research/PACMAN-charge/)
data_2021[Co][nan]3[FSR]17
_chemical_formula_sum              "Co16 H256 C320 N88 O64"
_cell_length_a       29.8325
_cell_length_b       16.5233
_cell_length_c       32.7868
_cell_angle_alpha    90
_cell_angle_beta     119.172
_cell_angle_gamma    90

_symmetry_space_group_name_H-M    "P 1"
_symmetry_Int_Tables_number       1

loop_
  _symmetry_equiv_pos_as_xyz
  'x, y, z'

loop_
  _atom_site_type_symbol
  _atom_site_label
  _atom_site_symmetry_multiplicity
  _atom_site_fract_x
  _atom_site_fract_y
  _atom_site_fract_z
  _atom_site_occupancy
  _atom_site_charge
Co  Co1       1.0  0.81842  0.50593  0.37443  1.0000 0.9105417311
Co  Co2       1.0  0.68615  0.50769  0.30521  1.0000 0.886435848
Co  Co3       1.0  0.80638  0.96132  0.18611  1.0000 0.886435848
Co  Co4       1.0  0.67432  0.52187  0.61728  1.0000 0.915375557
Co  Co5       1.0  0.18158  0.00593  0.12557  1.0000 0.9105417311
Co  Co6       1.0  0.31385  0.00769  0.19479  1.0000 0.886435848
Co  Co7       1.0  0.19362  0.46132  0.31389  1.0000 0.886435848
Co  Co8       1.0  0.32568  0.02187  0.88272  1.0000 0.9105417311
Co  Co9       1.0  0.18158  0.49407  0.62557  1.0000 0.9105417311
Co  Co10      1.0  0.31385  0.49231  0.69479  1.0000 0.886435848
Co  Co11      1.0  0.19362  0.03868  0.81389  1.0000 0.886435848
Co  Co12      1.0  0.32568  0.47813  0.38272  1.0000 0.9105417311
Co  Co13      1.0  0.81842  0.99407  0.87443  1.0000 0.9105417311
Co  Co14      1.0  0.68615  0.99231  0.80521  1.0000 0.886435848
Co  Co15      1.0  0.80638  0.53868  0.68611  1.0000 0.886435848
Co  Co16      1.0  0.67432  0.97813  0.11728  1.0000 0.9105417311
H   H1        1.0  0.39376  0.09639  0.27745  1.0000 0.0997418842
H   H2        1.0  0.27944  0.97068  0.27207  1.0000 0.0997418842
H   H3        1.0  0.29929  0.01299  0.34624  1.0000 0.1285596583
H   H4        1.0  0.36532  0.10822  0.38553  1.0000 0.1196766184
H   H5        1.0  0.53327  0.25173  0.26136  1.0000 0.1196766184
H   H6        1.0  0.56249  0.28977  0.20899  1.0000 0.1196766184
H   H7        1.0  0.61393  0.40411  0.22564  1.0000 0.0997418842
H   H8        1.0  0.61305  0.43931  0.34417  1.0000 0.0997418842
H   H9        1.0  0.61075  0.43426  0.52567  1.0000 0.1196766184
H   H10       1.0  0.57865  0.49576  0.62467  1.0000 0.1196766184
H   H11       1.0  0.49672  0.44235  0.58290  1.0000 0.1285596583
H   H12       1.0  0.47246  0.37788  0.51147  1.0000 0.1093677067
H   H13       1.0  0.11311  0.13419  0.73189  1.0000 0.0997418842
H   H14       1.0  0.23445  0.02264  0.74161  1.0000 0.1093677067
H   H15       1.0  0.22051  0.07806  0.67146  1.0000 0.1285596583
H   H16       1.0  0.15017  0.16537  0.63026  1.0000 0.1093677067
H   H17       1.0  0.97667  0.30695  0.74929  1.0000 0.1093677067
H   H18       1.0  0.94211  0.34731  0.79742  1.0000 0.1196766184
H   H19       1.0  0.88038  0.44763  0.77126  1.0000 0.0997418842
H   H20       1.0  0.88367  0.46784  0.65301  1.0000 0.0997418842
H   H21       1.0  0.88771  0.44935  0.47322  1.0000 0.1093677067
H   H22       1.0  0.91211  0.47134  0.36586  1.0000 0.1196766184
H   H23       1.0  0.99615  0.42749  0.41005  1.0000 0.1196766184
H   H24       1.0  0.02473  0.38363  0.48692  1.0000 0.1093677067
H   H25       1.0  0.67071  0.47864  0.49920  1.0000 0.1196766184
H   H26       1.0  0.66976  0.47693  0.42798  1.0000 0.1093677067
H   H27       1.0  0.82467  0.45680  0.49540  1.0000 0.1196766184
H   H28       1.0  0.82626  0.46876  0.56686  1.0000 0.1093677067
H   H29       1.0  0.69702  0.69236  0.27791  1.0000 0.1093677067
H   H30       1.0  0.66514  0.79484  0.22192  1.0000 0.1196766184
H   H31       1.0  0.78927  0.77273  0.20291  1.0000 0.1093677067
H   H32       1.0  0.82163  0.67054  0.25954  1.0000 0.1196766184
H   H33       1.0  0.83152  0.28858  0.29745  1.0000 0.1196766184
H   H34       1.0  0.82143  0.17486  0.25167  1.0000 0.1093677067
H   H35       1.0  0.66864  0.17888  0.20431  1.0000 0.1196766184
H   H36       1.0  0.67895  0.29379  0.24907  1.0000 0.1093677067
H   H37       1.0  0.63121  0.59799  0.35237  1.0000 0.0997418842
H   H38       1.0  0.56369  0.76990  0.26614  1.0000 0.1387491962
H   H39       1.0  0.61589  0.81342  0.30275  1.0000 0.1387491962
H   H40       1.0  0.61731  0.74051  0.27127  1.0000 0.1468044531
H   H41       1.0  0.58692  0.68236  0.37391  1.0000 0.1285596583
H   H42       1.0  0.59861  0.77570  0.36999  1.0000 0.1387491962
H   H43       1.0  0.54558  0.73635  0.33184  1.0000 0.1387491962
H   H44       1.0  0.87331  0.67873  0.41543  1.0000 0.1093677067
H   H45       1.0  0.90199  0.63805  0.53837  1.0000 0.1285596583
H   H46       1.0  0.86103  0.70897  0.52695  1.0000 0.1285596583
H   H47       1.0  0.84318  0.62436  0.49997  1.0000 0.1468044531
H   H48       1.0  0.89694  0.81301  0.49368  1.0000 0.1387491962
H   H49       1.0  0.94696  0.75691  0.51785  1.0000 0.1387491962
H   H50       1.0  0.92160  0.77831  0.46347  1.0000 0.1387491962
H   H51       1.0  0.62499  0.69447  0.57941  1.0000 0.1093677067
H   H52       1.0  0.58383  0.67812  0.44978  1.0000 0.1196766184
H   H53       1.0  0.63834  0.72185  0.46930  1.0000 0.1285596583
H   H54       1.0  0.63526  0.63132  0.48512  1.0000 0.1468044531
H   H55       1.0  0.60973  0.83606  0.50659  1.0000 0.1387491962
H   H56       1.0  0.55472  0.79297  0.48302  1.0000 0.1387491962
H   H57       1.0  0.58577  0.80645  0.53836  1.0000 0.1387491962
H   H58       1.0  0.86685  0.88411  0.14082  1.0000 0.0997418842
H   H59       1.0  0.86832  0.72187  0.20555  1.0000 0.1468044531
H   H60       1.0  0.88845  0.66101  0.18004  1.0000 0.1387491962
H   H61       1.0  0.92864  0.71099  0.22485  1.0000 0.1387491962
H   H62       1.0  0.95922  0.75601  0.16504  1.0000 0.1387491962
H   H63       1.0  0.90922  0.72105  0.12063  1.0000 0.1285596583
H   H64       1.0  0.92109  0.81605  0.12469  1.0000 0.1285596583
H   H65       1.0  0.60624  0.59639  0.22255  1.0000 0.0997418842
H   H66       1.0  0.72056  0.47068  0.22793  1.0000 0.0997418842
H   H67       1.0  0.70071  0.51299  0.15376  1.0000 0.1285596583
H   H68       1.0  0.63468  0.60822  0.11447  1.0000 0.1196766184
H   H69       1.0  0.46673  0.75173  0.23864  1.0000 0.1196766184
H   H70       1.0  0.43751  0.78977  0.29101  1.0000 0.1196766184
H   H71       1.0  0.38607  0.90411  0.27436  1.0000 0.0997418842
H   H72       1.0  0.38695  0.93931  0.15583  1.0000 0.0997418842
H   H73       1.0  0.38925  0.93426  0.97433  1.0000 0.1196766184
H   H74       1.0  0.42135  0.99576  0.87533  1.0000 0.1196766184
H   H75       1.0  0.50328  0.94235  0.91710  1.0000 0.1285596583
H   H76       1.0  0.52754  0.87788  0.98853  1.0000 0.1093677067
H   H77       1.0  0.88689  0.63419  0.76811  1.0000 0.0997418842
H   H78       1.0  0.76555  0.52264  0.75839  1.0000 0.1093677067
H   H79       1.0  0.77949  0.57806  0.82854  1.0000 0.1285596583
H   H80       1.0  0.84983  0.66537  0.86974  1.0000 0.1093677067
H   H81       1.0  0.02333  0.80695  0.75071  1.0000 0.1093677067
H   H82       1.0  0.05789  0.84731  0.70258  1.0000 0.1196766184
H   H83       1.0  0.11962  0.94763  0.72874  1.0000 0.0997418842
H   H84       1.0  0.11633  0.96784  0.84699  1.0000 0.0997418842
H   H85       1.0  0.11229  0.94935  0.02678  1.0000 0.1093677067
H   H86       1.0  0.08789  0.97134  0.13414  1.0000 0.1196766184
H   H87       1.0  0.00385  0.92749  0.08995  1.0000 0.1196766184
H   H88       1.0  0.97527  0.88363  0.01308  1.0000 0.1093677067
H   H89       1.0  0.32929  0.97864  0.00080  1.0000 0.1196766184
H   H90       1.0  0.33024  0.97693  0.07202  1.0000 0.1093677067
H   H91       1.0  0.17533  0.95680  0.00460  1.0000 0.1196766184
H   H92       1.0  0.17374  0.96876  0.93314  1.0000 0.1093677067
H   H93       1.0  0.30298  0.19236  0.22209  1.0000 0.1093677067
H   H94       1.0  0.33486  0.29484  0.27808  1.0000 0.1196766184
H   H95       1.0  0.21073  0.27273  0.29709  1.0000 0.1093677067
H   H96       1.0  0.17837  0.17054  0.24046  1.0000 0.1196766184
H   H97       1.0  0.16848  0.78858  0.20255  1.0000 0.1196766184
H   H98       1.0  0.17857  0.67486  0.24833  1.0000 0.1093677067
H   H99       1.0  0.33136  0.67888  0.29569  1.0000 0.1196766184
H   H100      1.0  0.32105  0.79379  0.25093  1.0000 0.1093677067
H   H101      1.0  0.36879  0.09799  0.14763  1.0000 0.0997418842
H   H102      1.0  0.43631  0.26990  0.23386  1.0000 0.1387491962
H   H103      1.0  0.38411  0.31342  0.19725  1.0000 0.1387491962
H   H104      1.0  0.38269  0.24051  0.22873  1.0000 0.1468044531
H   H105      1.0  0.41308  0.18236  0.12609  1.0000 0.1285596583
H   H106      1.0  0.40139  0.27570  0.13001  1.0000 0.1387491962
H   H107      1.0  0.45442  0.23635  0.16816  1.0000 0.1387491962
H   H108      1.0  0.12669  0.17873  0.08457  1.0000 0.1093677067
H   H109      1.0  0.09801  0.13805  0.96163  1.0000 0.1285596583
H   H110      1.0  0.13897  0.20897  0.97305  1.0000 0.1285596583
H   H111      1.0  0.15682  0.12436  0.00003  1.0000 0.1468044531
H   H112      1.0  0.10306  0.31301  0.00632  1.0000 0.1387491962
H   H113      1.0  0.05304  0.25691  0.98215  1.0000 0.1387491962
H   H114      1.0  0.07840  0.27831  0.03653  1.0000 0.1387491962
H   H115      1.0  0.37501  0.19447  0.92059  1.0000 0.1093677067
H   H116      1.0  0.41617  0.17812  0.05022  1.0000 0.1196766184
H   H117      1.0  0.36166  0.22185  0.03070  1.0000 0.1285596583
H   H118      1.0  0.36474  0.13132  0.01488  1.0000 0.1468044531
H   H119      1.0  0.39027  0.33606  0.99341  1.0000 0.1387491962
H   H120      1.0  0.44528  0.29297  0.01698  1.0000 0.1387491962
H   H121      1.0  0.41423  0.30645  0.96164  1.0000 0.1387491962
H   H122      1.0  0.13315  0.38411  0.35918  1.0000 0.0997418842
H   H123      1.0  0.13168  0.22187  0.29445  1.0000 0.1468044531
H   H124      1.0  0.11155  0.16101  0.31996  1.0000 0.1387491962
H   H125      1.0  0.07136  0.21099  0.27515  1.0000 0.1387491962
H   H126      1.0  0.04078  0.25601  0.33496  1.0000 0.1387491962
H   H127      1.0  0.09078  0.22105  0.37937  1.0000 0.1285596583
H   H128      1.0  0.07891  0.31605  0.37531  1.0000 0.1285596583
H   H129      1.0  0.60624  0.90361  0.72255  1.0000 0.0997418842
H   H130      1.0  0.72056  0.02932  0.72793  1.0000 0.0997418842
H   H131      1.0  0.70071  0.98701  0.65376  1.0000 0.1285596583
H   H132      1.0  0.63468  0.89178  0.61447  1.0000 0.1196766184
H   H133      1.0  0.46673  0.74827  0.73864  1.0000 0.1196766184
H   H134      1.0  0.43751  0.71023  0.79101  1.0000 0.1196766184
H   H135      1.0  0.38607  0.59589  0.77436  1.0000 0.0997418842
H   H136      1.0  0.38695  0.56069  0.65583  1.0000 0.0997418842
H   H137      1.0  0.38925  0.56574  0.47433  1.0000 0.1196766184
H   H138      1.0  0.42135  0.50424  0.37533  1.0000 0.1196766184
H   H139      1.0  0.50328  0.55765  0.41710  1.0000 0.1285596583
H   H140      1.0  0.52754  0.62212  0.48853  1.0000 0.1093677067
H   H141      1.0  0.88689  0.86581  0.26811  1.0000 0.0997418842
H   H142      1.0  0.76555  0.97736  0.25839  1.0000 0.1093677067
H   H143      1.0  0.77949  0.92194  0.32854  1.0000 0.1285596583
H   H144      1.0  0.84983  0.83463  0.36974  1.0000 0.1093677067
H   H145      1.0  0.02333  0.69305  0.25071  1.0000 0.1093677067
H   H146      1.0  0.05789  0.65269  0.20258  1.0000 0.1196766184
H   H147      1.0  0.11962  0.55237  0.22874  1.0000 0.0997418842
H   H148      1.0  0.11633  0.53216  0.34699  1.0000 0.0997418842
H   H149      1.0  0.11229  0.55065  0.52678  1.0000 0.1093677067
H   H150      1.0  0.08789  0.52866  0.63414  1.0000 0.1196766184
H   H151      1.0  0.00385  0.57251  0.58995  1.0000 0.1196766184
H   H152      1.0  0.97527  0.61637  0.51308  1.0000 0.1093677067
H   H153      1.0  0.32929  0.52136  0.50080  1.0000 0.1196766184
H   H154      1.0  0.33024  0.52307  0.57202  1.0000 0.1093677067
H   H155      1.0  0.17533  0.54320  0.50460  1.0000 0.1196766184
H   H156      1.0  0.17374  0.53124  0.43314  1.0000 0.1093677067
H   H157      1.0  0.30298  0.30764  0.72209  1.0000 0.1093677067
H   H158      1.0  0.33486  0.20516  0.77808  1.0000 0.1196766184
H   H159      1.0  0.21073  0.22727  0.79709  1.0000 0.1093677067
H   H160      1.0  0.17837  0.32946  0.74046  1.0000 0.1196766184
H   H161      1.0  0.16848  0.71142  0.70255  1.0000 0.1196766184
H   H162      1.0  0.17857  0.82514  0.74833  1.0000 0.1093677067
H   H163      1.0  0.33136  0.82112  0.79569  1.0000 0.1196766184
H   H164      1.0  0.32105  0.70621  0.75093  1.0000 0.1093677067
H   H165      1.0  0.36879  0.40201  0.64763  1.0000 0.0997418842
H   H166      1.0  0.43631  0.23010  0.73386  1.0000 0.1387491962
H   H167      1.0  0.38411  0.18658  0.69725  1.0000 0.1387491962
H   H168      1.0  0.38269  0.25949  0.72873  1.0000 0.1468044531
H   H169      1.0  0.41308  0.31764  0.62609  1.0000 0.1285596583
H   H170      1.0  0.40139  0.22430  0.63001  1.0000 0.1387491962
H   H171      1.0  0.45442  0.26365  0.66816  1.0000 0.1387491962
H   H172      1.0  0.12669  0.32127  0.58457  1.0000 0.1093677067
H   H173      1.0  0.09801  0.36195  0.46163  1.0000 0.1285596583
H   H174      1.0  0.13897  0.29103  0.47305  1.0000 0.1285596583
H   H175      1.0  0.15682  0.37564  0.50003  1.0000 0.1468044531
H   H176      1.0  0.10306  0.18699  0.50632  1.0000 0.1387491962
H   H177      1.0  0.05304  0.24309  0.48215  1.0000 0.1387491962
H   H178      1.0  0.07840  0.22169  0.53653  1.0000 0.1387491962
H   H179      1.0  0.37501  0.30553  0.42059  1.0000 0.1093677067
H   H180      1.0  0.41617  0.32188  0.55022  1.0000 0.1196766184
H   H181      1.0  0.36166  0.27815  0.53070  1.0000 0.1285596583
H   H182      1.0  0.36474  0.36868  0.51488  1.0000 0.1468044531
H   H183      1.0  0.39027  0.16394  0.49341  1.0000 0.1387491962
H   H184      1.0  0.44528  0.20703  0.51698  1.0000 0.1387491962
H   H185      1.0  0.41423  0.19355  0.46164  1.0000 0.1387491962
H   H186      1.0  0.13315  0.11589  0.85918  1.0000 0.0997418842
H   H187      1.0  0.13168  0.27813  0.79445  1.0000 0.1468044531
H   H188      1.0  0.11155  0.33899  0.81996  1.0000 0.1387491962
H   H189      1.0  0.07136  0.28901  0.77515  1.0000 0.1387491962
H   H190      1.0  0.04078  0.24399  0.83496  1.0000 0.1387491962
H   H191      1.0  0.09078  0.27895  0.87937  1.0000 0.1285596583
H   H192      1.0  0.07891  0.18395  0.87531  1.0000 0.1285596583
H   H193      1.0  0.39376  0.40361  0.77745  1.0000 0.0997418842
H   H194      1.0  0.27944  0.52932  0.77207  1.0000 0.0997418842
H   H195      1.0  0.29929  0.48701  0.84624  1.0000 0.1285596583
H   H196      1.0  0.36532  0.39178  0.88553  1.0000 0.1196766184
H   H197      1.0  0.53327  0.24827  0.76136  1.0000 0.1196766184
H   H198      1.0  0.56249  0.21023  0.70899  1.0000 0.1196766184
H   H199      1.0  0.61393  0.09589  0.72564  1.0000 0.0997418842
H   H200      1.0  0.61305  0.06069  0.84417  1.0000 0.0997418842
H   H201      1.0  0.61075  0.06574  0.02567  1.0000 0.1196766184
H   H202      1.0  0.57865  0.00424  0.12467  1.0000 0.1196766184
H   H203      1.0  0.49672  0.05765  0.08290  1.0000 0.1285596583
H   H204      1.0  0.47246  0.12212  0.01147  1.0000 0.1093677067
H   H205      1.0  0.11311  0.36581  0.23189  1.0000 0.0997418842
H   H206      1.0  0.23445  0.47736  0.24161  1.0000 0.1093677067
H   H207      1.0  0.22051  0.42194  0.17146  1.0000 0.1285596583
H   H208      1.0  0.15017  0.33463  0.13026  1.0000 0.1093677067
H   H209      1.0  0.97667  0.19305  0.24929  1.0000 0.1093677067
H   H210      1.0  0.94211  0.15269  0.29742  1.0000 0.1196766184
H   H211      1.0  0.88038  0.05237  0.27126  1.0000 0.0997418842
H   H212      1.0  0.88367  0.03216  0.15301  1.0000 0.0997418842
H   H213      1.0  0.88771  0.05065  0.97322  1.0000 0.1093677067
H   H214      1.0  0.91211  0.02866  0.86586  1.0000 0.1196766184
H   H215      1.0  0.99615  0.07251  0.91005  1.0000 0.1196766184
H   H216      1.0  0.02473  0.11637  0.98692  1.0000 0.1093677067
H   H217      1.0  0.67071  0.02136  0.99920  1.0000 0.1196766184
H   H218      1.0  0.66976  0.02307  0.92798  1.0000 0.1093677067
H   H219      1.0  0.82467  0.04320  0.99540  1.0000 0.1196766184
H   H220      1.0  0.82626  0.03124  0.06686  1.0000 0.1093677067
H   H221      1.0  0.69702  0.80764  0.77791  1.0000 0.1093677067
H   H222      1.0  0.66514  0.70516  0.72192  1.0000 0.1196766184
H   H223      1.0  0.78927  0.72727  0.70291  1.0000 0.1093677067
H   H224      1.0  0.82163  0.82946  0.75954  1.0000 0.1196766184
H   H225      1.0  0.83152  0.21142  0.79745  1.0000 0.1196766184
H   H226      1.0  0.82143  0.32514  0.75167  1.0000 0.1093677067
H   H227      1.0  0.66864  0.32112  0.70431  1.0000 0.1196766184
H   H228      1.0  0.67895  0.20621  0.74907  1.0000 0.1093677067
H   H229      1.0  0.63121  0.90201  0.85237  1.0000 0.0997418842
H   H230      1.0  0.56369  0.73010  0.76614  1.0000 0.1387491962
H   H231      1.0  0.61589  0.68658  0.80275  1.0000 0.1387491962
H   H232      1.0  0.61731  0.75949  0.77127  1.0000 0.1468044531
H   H233      1.0  0.58692  0.81764  0.87391  1.0000 0.1285596583
H   H234      1.0  0.59861  0.72430  0.86999  1.0000 0.1387491962
H   H235      1.0  0.54558  0.76365  0.83184  1.0000 0.1387491962
H   H236      1.0  0.87331  0.82127  0.91543  1.0000 0.1093677067
H   H237      1.0  0.90199  0.86195  0.03837  1.0000 0.1285596583
H   H238      1.0  0.86103  0.79103  0.02695  1.0000 0.1285596583
H   H239      1.0  0.84318  0.87564  0.99997  1.0000 0.1468044531
H   H240      1.0  0.89694  0.68699  0.99368  1.0000 0.1387491962
H   H241      1.0  0.94696  0.74309  0.01785  1.0000 0.1387491962
H   H242      1.0  0.92160  0.72169  0.96347  1.0000 0.1387491962
H   H243      1.0  0.62499  0.80553  0.07941  1.0000 0.1093677067
H   H244      1.0  0.58383  0.82188  0.94978  1.0000 0.1196766184
H   H245      1.0  0.63834  0.77815  0.96930  1.0000 0.1285596583
H   H246      1.0  0.63526  0.86868  0.98512  1.0000 0.1468044531
H   H247      1.0  0.60973  0.66394  0.00659  1.0000 0.1387491962
H   H248      1.0  0.55472  0.70703  0.98302  1.0000 0.1387491962
H   H249      1.0  0.58577  0.69355  0.03836  1.0000 0.1387491962
H   H250      1.0  0.86685  0.61589  0.64082  1.0000 0.0997418842
H   H251      1.0  0.86832  0.77813  0.70555  1.0000 0.1468044531
H   H252      1.0  0.88845  0.83899  0.68004  1.0000 0.1387491962
H   H253      1.0  0.92864  0.78901  0.72485  1.0000 0.1387491962
H   H254      1.0  0.95922  0.74399  0.66504  1.0000 0.1387491962
H   H255      1.0  0.90922  0.77895  0.62063  1.0000 0.1285596583
H   H256      1.0  0.92109  0.68395  0.62469  1.0000 0.1285596583
C   C1        1.0  0.37358  0.08100  0.29134  1.0000 0.0516659173
C   C2        1.0  0.30752  0.00660  0.28837  1.0000 0.0705301906
C   C3        1.0  0.31851  0.03270  0.33223  1.0000 -0.1397448882
C   C4        1.0  0.35799  0.08810  0.35577  1.0000 -0.0714496806
C   C5        1.0  0.38647  0.11340  0.33499  1.0000 -0.0125281187
C   C6        1.0  0.42792  0.17510  0.35495  1.0000 0.3599227756
C   C7        1.0  0.48736  0.24520  0.34515  1.0000 0.3700929462
C   C8        1.0  0.54668  0.32270  0.33832  1.0000 0.3700929462
C   C9        1.0  0.56888  0.34400  0.30749  1.0000 -0.0125281187
C   C10       1.0  0.55461  0.29790  0.26750  1.0000 -0.0794977655
C   C11       1.0  0.57194  0.32000  0.23666  1.0000 -0.1515479868
C   C12       1.0  0.60344  0.38740  0.24743  1.0000 0.0795277923
C   C13       1.0  0.60224  0.40880  0.31635  1.0000 0.0516659173
C   C14       1.0  0.53977  0.34420  0.40413  1.0000 0.3793083613
C   C15       1.0  0.52586  0.35920  0.46601  1.0000 0.3599227756
C   C16       1.0  0.53975  0.39930  0.51124  1.0000 -0.0197331762
C   C17       1.0  0.58741  0.43460  0.53758  1.0000 0.0588895365
C   C18       1.0  0.56848  0.47120  0.59525  1.0000 0.0795277923
C   C19       1.0  0.51990  0.43900  0.57087  1.0000 -0.1397448882
C   C20       1.0  0.50550  0.40170  0.52859  1.0000 -0.0794977655
C   C21       1.0  0.47504  0.26590  0.41206  1.0000 0.3793083613
C   C22       1.0  0.50094  0.28480  0.38723  1.0000 -0.2042648401
C   C23       1.0  0.13520  0.12270  0.71936  1.0000 0.0516659173
C   C24       1.0  0.20590  0.05760  0.72514  1.0000 0.0795277923
C   C25       1.0  0.19795  0.09050  0.68334  1.0000 -0.1397448882
C   C26       1.0  0.15645  0.14190  0.65901  1.0000 -0.0714496806
C   C27       1.0  0.12441  0.15820  0.67749  1.0000 -0.0125281187
C   C28       1.0  0.08069  0.21630  0.65568  1.0000 0.3700929462
C   C29       1.0  0.01950  0.28630  0.66300  1.0000 0.3700929462
C   C30       1.0  0.95734  0.36190  0.66634  1.0000 0.3700929462
C   C31       1.0  0.93415  0.38530  0.69625  1.0000 -0.0125281187
C   C32       1.0  0.95125  0.34810  0.73928  1.0000 -0.0714496806
C   C33       1.0  0.93083  0.37170  0.76777  1.0000 -0.1515479868
C   C34       1.0  0.89401  0.43120  0.75175  1.0000 0.0795277923
C   C35       1.0  0.89625  0.44340  0.68285  1.0000 0.0516659173
C   C36       1.0  0.96240  0.37410  0.59937  1.0000 0.3793083613
C   C37       1.0  0.97461  0.38000  0.53594  1.0000 0.3599227756
C   C38       1.0  0.95854  0.41030  0.48794  1.0000 -0.0125281187
C   C39       1.0  0.90977  0.44260  0.46018  1.0000 0.0588895365
C   C40       1.0  0.92449  0.45700  0.39763  1.0000 0.0875107369
C   C41       1.0  0.97404  0.42940  0.42326  1.0000 -0.1347665822
C   C42       1.0  0.99099  0.40460  0.46880  1.0000 -0.0794977655
C   C43       1.0  0.02982  0.29810  0.59468  1.0000 0.3793083613
C   C44       1.0  0.00361  0.31910  0.61897  1.0000 -0.2042648401
C   C45       1.0  0.74867  0.48380  0.58566  1.0000 0.5958620216
C   C46       1.0  0.74855  0.47450  0.54001  1.0000 -0.0125281187
C   C47       1.0  0.70211  0.47610  0.49844  1.0000 -0.1116721804
C   C48       1.0  0.70153  0.47400  0.45623  1.0000 -0.1116721804
C   C49       1.0  0.74721  0.46760  0.45464  1.0000 -0.0125281187
C   C50       1.0  0.79348  0.46340  0.49620  1.0000 -0.1116721804
C   C51       1.0  0.79439  0.46890  0.53863  1.0000 -0.1163368781
C   C52       1.0  0.74705  0.46970  0.40887  1.0000 0.5895755608
C   C53       1.0  0.78390  0.60900  0.31110  1.0000 0.5498544912
C   C54       1.0  0.76237  0.67250  0.27423  1.0000 -0.0125281187
C   C55       1.0  0.71585  0.70900  0.26291  1.0000 -0.1116721804
C   C56       1.0  0.69700  0.76990  0.22969  1.0000 -0.1116721804
C   C57       1.0  0.72441  0.79480  0.20757  1.0000 -0.0197331762
C   C58       1.0  0.77082  0.75690  0.21841  1.0000 -0.1116721804
C   C59       1.0  0.78994  0.69600  0.25188  1.0000 -0.1163368781
C   C60       1.0  0.70524  0.86310  0.17375  1.0000 0.5498544912
C   C61       1.0  0.76125  0.37900  0.30465  1.0000 0.5895755608
C   C62       1.0  0.75625  0.30330  0.27744  1.0000 -0.0197331762
C   C63       1.0  0.79821  0.26700  0.27821  1.0000 -0.1116721804
C   C64       1.0  0.79219  0.19890  0.25105  1.0000 -0.1116721804
C   C65       1.0  0.74381  0.16570  0.22296  1.0000 -0.0197331762
C   C66       1.0  0.70188  0.20130  0.22283  1.0000 -0.1116721804
C   C67       1.0  0.70817  0.26960  0.24969  1.0000 -0.1163368781
C   C68       1.0  0.73756  0.09260  0.19354  1.0000 0.5895755608
C   C69       1.0  0.62906  0.63400  0.32890  1.0000 0.2780294123
C   C70       1.0  0.60024  0.76170  0.28810  1.0000 -0.3396655335
C   C71       1.0  0.58232  0.72650  0.35224  1.0000 -0.359903298
C   C72       1.0  0.86395  0.65790  0.43725  1.0000 0.2892622615
C   C73       1.0  0.87118  0.66400  0.51368  1.0000 -0.3396655335
C   C74       1.0  0.91450  0.76670  0.48910  1.0000 -0.3518298676
C   C75       1.0  0.62974  0.67250  0.55501  1.0000 0.2892622615
C   C76       1.0  0.61813  0.68410  0.47690  1.0000 -0.3396655335
C   C77       1.0  0.58893  0.79420  0.51062  1.0000 -0.3518298676
C   C78       1.0  0.86730  0.84360  0.16158  1.0000 0.2780294123
C   C79       1.0  0.89490  0.71260  0.19670  1.0000 -0.3396655335
C   C80       1.0  0.92320  0.76680  0.14220  1.0000 -0.359903298
C   C81       1.0  0.62642  0.58100  0.20866  1.0000 0.0516659173
C   C82       1.0  0.69248  0.50660  0.21163  1.0000 0.0705301906
C   C83       1.0  0.68149  0.53270  0.16777  1.0000 -0.1397448882
C   C84       1.0  0.64201  0.58810  0.14423  1.0000 -0.0714496806
C   C85       1.0  0.61353  0.61340  0.16501  1.0000 -0.0125281187
C   C86       1.0  0.57208  0.67510  0.14505  1.0000 0.3599227756
C   C87       1.0  0.51264  0.74520  0.15485  1.0000 0.3700929462
C   C88       1.0  0.45332  0.82270  0.16168  1.0000 0.3700929462
C   C89       1.0  0.43112  0.84400  0.19251  1.0000 -0.0125281187
C   C90       1.0  0.44539  0.79790  0.23250  1.0000 -0.0794977655
C   C91       1.0  0.42806  0.82000  0.26334  1.0000 -0.1515479868
C   C92       1.0  0.39656  0.88740  0.25257  1.0000 0.0795277923
C   C93       1.0  0.39776  0.90880  0.18365  1.0000 0.0516659173
C   C94       1.0  0.46023  0.84420  0.09587  1.0000 0.3793083613
C   C95       1.0  0.47414  0.85920  0.03399  1.0000 0.3599227756
C   C96       1.0  0.46025  0.89930  0.98876  1.0000 -0.0197331762
C   C97       1.0  0.41259  0.93460  0.96242  1.0000 0.0588895365
C   C98       1.0  0.43152  0.97120  0.90475  1.0000 0.0795277923
C   C99       1.0  0.48010  0.93900  0.92913  1.0000 -0.1397448882
C   C100      1.0  0.49450  0.90170  0.97141  1.0000 -0.0794977655
C   C101      1.0  0.52496  0.76590  0.08794  1.0000 0.3793083613
C   C102      1.0  0.49906  0.78480  0.11277  1.0000 -0.2042648401
C   C103      1.0  0.86480  0.62270  0.78064  1.0000 0.0516659173
C   C104      1.0  0.79410  0.55760  0.77486  1.0000 0.0795277923
C   C105      1.0  0.80205  0.59050  0.81666  1.0000 -0.1397448882
C   C106      1.0  0.84355  0.64190  0.84099  1.0000 -0.0714496806
C   C107      1.0  0.87559  0.65820  0.82251  1.0000 -0.0125281187
C   C108      1.0  0.91931  0.71630  0.84432  1.0000 0.3700929462
C   C109      1.0  0.98050  0.78630  0.83700  1.0000 0.3700929462
C   C110      1.0  0.04266  0.86190  0.83366  1.0000 0.3700929462
C   C111      1.0  0.06585  0.88530  0.80375  1.0000 -0.0125281187
C   C112      1.0  0.04875  0.84810  0.76072  1.0000 -0.0714496806
C   C113      1.0  0.06917  0.87170  0.73223  1.0000 -0.1515479868
C   C114      1.0  0.10599  0.93120  0.74825  1.0000 0.0795277923
C   C115      1.0  0.10375  0.94340  0.81715  1.0000 0.0516659173
C   C116      1.0  0.03760  0.87410  0.90063  1.0000 0.3793083613
C   C117      1.0  0.02539  0.88000  0.96406  1.0000 0.3599227756
C   C118      1.0  0.04146  0.91030  0.01206  1.0000 -0.0125281187
C   C119      1.0  0.09023  0.94260  0.03982  1.0000 0.0588895365
C   C120      1.0  0.07551  0.95700  0.10237  1.0000 0.0875107369
C   C121      1.0  0.02596  0.92940  0.07674  1.0000 -0.1347665822
C   C122      1.0  0.00901  0.90460  0.03120  1.0000 -0.0794977655
C   C123      1.0  0.97018  0.79810  0.90532  1.0000 0.3793083613
C   C124      1.0  0.99639  0.81910  0.88103  1.0000 -0.2053464835
C   C125      1.0  0.25133  0.98380  0.91434  1.0000 0.5958620216
C   C126      1.0  0.25145  0.97450  0.95999  1.0000 -0.0125281187
C   C127      1.0  0.29789  0.97610  0.00156  1.0000 -0.1116721804
C   C128      1.0  0.29847  0.97400  0.04377  1.0000 -0.1116721804
C   C129      1.0  0.25279  0.96760  0.04536  1.0000 -0.0125281187
C   C130      1.0  0.20652  0.96340  0.00380  1.0000 -0.1116721804
C   C131      1.0  0.20561  0.96890  0.96137  1.0000 -0.1163368781
C   C132      1.0  0.25295  0.96970  0.09113  1.0000 0.5958620216
C   C133      1.0  0.21610  0.10900  0.18890  1.0000 0.5498544912
C   C134      1.0  0.23763  0.17250  0.22577  1.0000 -0.0125281187
C   C135      1.0  0.28415  0.20900  0.23709  1.0000 -0.1116721804
C   C136      1.0  0.30300  0.26990  0.27031  1.0000 -0.1116721804
C   C137      1.0  0.27559  0.29480  0.29243  1.0000 -0.0197331762
C   C138      1.0  0.22918  0.25690  0.28159  1.0000 -0.1116721804
C   C139      1.0  0.21006  0.19600  0.24812  1.0000 -0.1163368781
C   C140      1.0  0.29476  0.36310  0.32625  1.0000 0.5498544912
C   C141      1.0  0.23875  0.87900  0.19535  1.0000 0.5895755608
C   C142      1.0  0.24375  0.80330  0.22256  1.0000 -0.0197331762
C   C143      1.0  0.20179  0.76700  0.22179  1.0000 -0.1116721804
C   C144      1.0  0.20781  0.69890  0.24895  1.0000 -0.1116721804
C   C145      1.0  0.25619  0.66570  0.27704  1.0000 -0.0197331762
C   C146      1.0  0.29812  0.70130  0.27717  1.0000 -0.1116721804
C   C147      1.0  0.29183  0.76960  0.25031  1.0000 -0.1163368781
C   C148      1.0  0.26244  0.59260  0.30646  1.0000 0.5895755608
C   C149      1.0  0.37094  0.13400  0.17110  1.0000 0.2780294123
C   C150      1.0  0.39976  0.26170  0.21190  1.0000 -0.3396655335
C   C151      1.0  0.41768  0.22650  0.14776  1.0000 -0.359903298
C   C152      1.0  0.13605  0.15790  0.06275  1.0000 0.2892622615
C   C153      1.0  0.12882  0.16400  0.98632  1.0000 -0.3396655335
C   C154      1.0  0.08550  0.26670  0.01090  1.0000 -0.3518298676
C   C155      1.0  0.37026  0.17250  0.94499  1.0000 0.2892622615
C   C156      1.0  0.38187  0.18410  0.02310  1.0000 -0.3396655335
C   C157      1.0  0.41107  0.29420  0.98938  1.0000 -0.3518298676
C   C158      1.0  0.13270  0.34360  0.33842  1.0000 0.2780294123
C   C159      1.0  0.10510  0.21260  0.30330  1.0000 -0.3396655335
C   C160      1.0  0.07680  0.26680  0.35780  1.0000 -0.359903298
C   C161      1.0  0.62642  0.91900  0.70866  1.0000 0.0516659173
C   C162      1.0  0.69248  0.99340  0.71163  1.0000 0.0705301906
C   C163      1.0  0.68149  0.96730  0.66777  1.0000 -0.1397448882
C   C164      1.0  0.64201  0.91190  0.64423  1.0000 -0.0714496806
C   C165      1.0  0.61353  0.88660  0.66501  1.0000 -0.0125281187
C   C166      1.0  0.57208  0.82490  0.64505  1.0000 0.3599227756
C   C167      1.0  0.51264  0.75480  0.65485  1.0000 0.3700929462
C   C168      1.0  0.45332  0.67730  0.66168  1.0000 0.3700929462
C   C169      1.0  0.43112  0.65600  0.69251  1.0000 -0.0125281187
C   C170      1.0  0.44539  0.70210  0.73250  1.0000 -0.0794977655
C   C171      1.0  0.42806  0.68000  0.76334  1.0000 -0.1515479868
C   C172      1.0  0.39656  0.61260  0.75257  1.0000 0.0795277923
C   C173      1.0  0.39776  0.59120  0.68365  1.0000 0.0516659173
C   C174      1.0  0.46023  0.65580  0.59587  1.0000 0.3793083613
C   C175      1.0  0.47414  0.64080  0.53399  1.0000 0.3599227756
C   C176      1.0  0.46025  0.60070  0.48876  1.0000 -0.0197331762
C   C177      1.0  0.41259  0.56540  0.46242  1.0000 0.0588895365
C   C178      1.0  0.43152  0.52880  0.40475  1.0000 0.0795277923
C   C179      1.0  0.48010  0.56100  0.42913  1.0000 -0.1397448882
C   C180      1.0  0.49450  0.59830  0.47141  1.0000 -0.0794977655
C   C181      1.0  0.52496  0.73410  0.58794  1.0000 0.3793083613
C   C182      1.0  0.49906  0.71520  0.61277  1.0000 -0.2042648401
C   C183      1.0  0.86480  0.87730  0.28064  1.0000 0.0516659173
C   C184      1.0  0.79410  0.94240  0.27486  1.0000 0.0795277923
C   C185      1.0  0.80205  0.90950  0.31666  1.0000 -0.1397448882
C   C186      1.0  0.84355  0.85810  0.34099  1.0000 -0.0714496806
C   C187      1.0  0.87559  0.84180  0.32251  1.0000 -0.0125281187
C   C188      1.0  0.91931  0.78370  0.34432  1.0000 0.3700929462
C   C189      1.0  0.98050  0.71370  0.33700  1.0000 0.3700929462
C   C190      1.0  0.04266  0.63810  0.33366  1.0000 0.3700929462
C   C191      1.0  0.06585  0.61470  0.30375  1.0000 -0.0125281187
C   C192      1.0  0.04875  0.65190  0.26072  1.0000 -0.0714496806
C   C193      1.0  0.06917  0.62830  0.23223  1.0000 -0.1515479868
C   C194      1.0  0.10599  0.56880  0.24825  1.0000 0.0795277923
C   C195      1.0  0.10375  0.55660  0.31715  1.0000 0.0516659173
C   C196      1.0  0.03760  0.62590  0.40063  1.0000 0.3793083613
C   C197      1.0  0.02539  0.62000  0.46406  1.0000 0.3599227756
C   C198      1.0  0.04146  0.58970  0.51206  1.0000 -0.0125281187
C   C199      1.0  0.09023  0.55740  0.53982  1.0000 0.0588895365
C   C200      1.0  0.07551  0.54300  0.60237  1.0000 0.0875107369
C   C201      1.0  0.02596  0.57060  0.57674  1.0000 -0.1397448882
C   C202      1.0  0.00901  0.59540  0.53120  1.0000 -0.0794977655
C   C203      1.0  0.97018  0.70190  0.40532  1.0000 0.3793083613
C   C204      1.0  0.99639  0.68090  0.38103  1.0000 -0.2042648401
C   C205      1.0  0.25133  0.51620  0.41434  1.0000 0.5958620216
C   C206      1.0  0.25145  0.52550  0.45999  1.0000 -0.0125281187
C   C207      1.0  0.29789  0.52390  0.50156  1.0000 -0.1116721804
C   C208      1.0  0.29847  0.52600  0.54377  1.0000 -0.1116721804
C   C209      1.0  0.25279  0.53240  0.54536  1.0000 -0.0125281187
C   C210      1.0  0.20652  0.53660  0.50380  1.0000 -0.1116721804
C   C211      1.0  0.20561  0.53110  0.46137  1.0000 -0.1163368781
C   C212      1.0  0.25295  0.53030  0.59113  1.0000 0.5895755608
C   C213      1.0  0.21610  0.39100  0.68890  1.0000 0.5498544912
C   C214      1.0  0.23763  0.32750  0.72577  1.0000 -0.0125281187
C   C215      1.0  0.28415  0.29100  0.73709  1.0000 -0.1116721804
C   C216      1.0  0.30300  0.23010  0.77031  1.0000 -0.1116721804
C   C217      1.0  0.27559  0.20520  0.79243  1.0000 -0.0197331762
C   C218      1.0  0.22918  0.24310  0.78159  1.0000 -0.1116721804
C   C219      1.0  0.21006  0.30400  0.74812  1.0000 -0.1163368781
C   C220      1.0  0.29476  0.13690  0.82625  1.0000 0.5498544912
C   C221      1.0  0.23875  0.62100  0.69535  1.0000 0.5895755608
C   C222      1.0  0.24375  0.69670  0.72256  1.0000 -0.0197331762
C   C223      1.0  0.20179  0.73300  0.72179  1.0000 -0.1116721804
C   C224      1.0  0.20781  0.80110  0.74895  1.0000 -0.1116721804
C   C225      1.0  0.25619  0.83430  0.77704  1.0000 -0.0197331762
C   C226      1.0  0.29812  0.79870  0.77717  1.0000 -0.1116721804
C   C227      1.0  0.29183  0.73040  0.75031  1.0000 -0.1163368781
C   C228      1.0  0.26244  0.90740  0.80646  1.0000 0.5895755608
C   C229      1.0  0.37094  0.36600  0.67110  1.0000 0.2780294123
C   C230      1.0  0.39976  0.23830  0.71190  1.0000 -0.3349578117
C   C231      1.0  0.41768  0.27350  0.64776  1.0000 -0.359903298
C   C232      1.0  0.13605  0.34210  0.56275  1.0000 0.2892622615
C   C233      1.0  0.12882  0.33600  0.48632  1.0000 -0.3396655335
C   C234      1.0  0.08550  0.23330  0.51090  1.0000 -0.3518298676
C   C235      1.0  0.37026  0.32750  0.44499  1.0000 0.2892622615
C   C236      1.0  0.38187  0.31590  0.52310  1.0000 -0.3396655335
C   C237      1.0  0.41107  0.20580  0.48938  1.0000 -0.3518298676
C   C238      1.0  0.13270  0.15640  0.83842  1.0000 0.2780294123
C   C239      1.0  0.10510  0.28740  0.80330  1.0000 -0.3396655335
C   C240      1.0  0.07680  0.23320  0.85780  1.0000 -0.359903298
C   C241      1.0  0.37358  0.41900  0.79134  1.0000 0.0516659173
C   C242      1.0  0.30752  0.49340  0.78837  1.0000 0.0705301906
C   C243      1.0  0.31851  0.46730  0.83223  1.0000 -0.1397448882
C   C244      1.0  0.35799  0.41190  0.85577  1.0000 -0.0714496806
C   C245      1.0  0.38647  0.38660  0.83499  1.0000 -0.0125281187
C   C246      1.0  0.42792  0.32490  0.85495  1.0000 0.3599227756
C   C247      1.0  0.48736  0.25480  0.84515  1.0000 0.3700929462
C   C248      1.0  0.54668  0.17730  0.83832  1.0000 0.3700929462
C   C249      1.0  0.56888  0.15600  0.80749  1.0000 -0.0125281187
C   C250      1.0  0.55461  0.20210  0.76750  1.0000 -0.0794977655
C   C251      1.0  0.57194  0.18000  0.73666  1.0000 -0.1515479868
C   C252      1.0  0.60344  0.11260  0.74743  1.0000 0.0795277923
C   C253      1.0  0.60224  0.09120  0.81635  1.0000 0.0516659173
C   C254      1.0  0.53977  0.15580  0.90413  1.0000 0.3793083613
C   C255      1.0  0.52586  0.14080  0.96601  1.0000 0.3599227756
C   C256      1.0  0.53975  0.10070  0.01124  1.0000 -0.0197331762
C   C257      1.0  0.58741  0.06540  0.03758  1.0000 0.0588895365
C   C258      1.0  0.56848  0.02880  0.09525  1.0000 0.0795277923
C   C259      1.0  0.51990  0.06100  0.07087  1.0000 -0.1397448882
C   C260      1.0  0.50550  0.09830  0.02859  1.0000 -0.0794977655
C   C261      1.0  0.47504  0.23410  0.91206  1.0000 0.3793083613
C   C262      1.0  0.50094  0.21520  0.88723  1.0000 -0.2042648401
C   C263      1.0  0.13520  0.37730  0.21936  1.0000 0.0516659173
C   C264      1.0  0.20590  0.44240  0.22514  1.0000 0.0795277923
C   C265      1.0  0.19795  0.40950  0.18334  1.0000 -0.1397448882
C   C266      1.0  0.15645  0.35810  0.15901  1.0000 -0.0714496806
C   C267      1.0  0.12441  0.34180  0.17749  1.0000 -0.0125281187
C   C268      1.0  0.08069  0.28370  0.15568  1.0000 0.3700929462
C   C269      1.0  0.01950  0.21370  0.16300  1.0000 0.3700929462
C   C270      1.0  0.95734  0.13810  0.16634  1.0000 0.3700929462
C   C271      1.0  0.93415  0.11470  0.19625  1.0000 -0.0125281187
C   C272      1.0  0.95125  0.15190  0.23928  1.0000 -0.0714496806
C   C273      1.0  0.93083  0.12830  0.26777  1.0000 -0.1515479868
C   C274      1.0  0.89401  0.06880  0.25175  1.0000 0.0705301906
C   C275      1.0  0.89625  0.05660  0.18285  1.0000 0.0516659173
C   C276      1.0  0.96240  0.12590  0.09937  1.0000 0.3793083613
C   C277      1.0  0.97461  0.12000  0.03594  1.0000 0.3599227756
C   C278      1.0  0.95854  0.08970  0.98794  1.0000 -0.0125281187
C   C279      1.0  0.90977  0.05740  0.96018  1.0000 0.0588895365
C   C280      1.0  0.92449  0.04300  0.89763  1.0000 0.0875107369
C   C281      1.0  0.97404  0.07060  0.92326  1.0000 -0.1347665822
C   C282      1.0  0.99099  0.09540  0.96880  1.0000 -0.0794977655
C   C283      1.0  0.02982  0.20190  0.09468  1.0000 0.3700929462
C   C284      1.0  0.00361  0.18090  0.11897  1.0000 -0.2042648401
C   C285      1.0  0.74867  0.01620  0.08566  1.0000 0.5958620216
C   C286      1.0  0.74855  0.02550  0.04001  1.0000 -0.0125281187
C   C287      1.0  0.70211  0.02390  0.99844  1.0000 -0.1116721804
C   C288      1.0  0.70153  0.02600  0.95623  1.0000 -0.1116721804
C   C289      1.0  0.74721  0.03240  0.95464  1.0000 -0.0125281187
C   C290      1.0  0.79348  0.03660  0.99620  1.0000 -0.1116721804
C   C291      1.0  0.79439  0.03110  0.03863  1.0000 -0.1116721804
C   C292      1.0  0.74705  0.03030  0.90887  1.0000 0.5895755608
C   C293      1.0  0.78390  0.89100  0.81110  1.0000 0.5498544912
C   C294      1.0  0.76237  0.82750  0.77423  1.0000 -0.0125281187
C   C295      1.0  0.71585  0.79100  0.76291  1.0000 -0.1116721804
C   C296      1.0  0.69700  0.73010  0.72969  1.0000 -0.1116721804
C   C297      1.0  0.72441  0.70520  0.70757  1.0000 -0.0197331762
C   C298      1.0  0.77082  0.74310  0.71841  1.0000 -0.1116721804
C   C299      1.0  0.78994  0.80400  0.75188  1.0000 -0.1163368781
C   C300      1.0  0.70524  0.63690  0.67375  1.0000 0.5498544912
C   C301      1.0  0.76125  0.12100  0.80465  1.0000 0.5895755608
C   C302      1.0  0.75625  0.19670  0.77744  1.0000 -0.0197331762
C   C303      1.0  0.79821  0.23300  0.77821  1.0000 -0.1116721804
C   C304      1.0  0.79219  0.30110  0.75105  1.0000 -0.1116721804
C   C305      1.0  0.74381  0.33430  0.72296  1.0000 -0.0197331762
C   C306      1.0  0.70188  0.29870  0.72283  1.0000 -0.1116721804
C   C307      1.0  0.70817  0.23040  0.74969  1.0000 -0.1163368781
C   C308      1.0  0.73756  0.40740  0.69354  1.0000 0.5895755608
C   C309      1.0  0.62906  0.86600  0.82890  1.0000 0.2780294123
C   C310      1.0  0.60024  0.73830  0.78810  1.0000 -0.3349578117
C   C311      1.0  0.58232  0.77350  0.85224  1.0000 -0.359903298
C   C312      1.0  0.86395  0.84210  0.93725  1.0000 0.2892622615
C   C313      1.0  0.87118  0.83600  0.01368  1.0000 -0.3396655335
C   C314      1.0  0.91450  0.73330  0.98910  1.0000 -0.3518298676
C   C315      1.0  0.62974  0.82750  0.05501  1.0000 0.2892622615
C   C316      1.0  0.61813  0.81590  0.97690  1.0000 -0.3396655335
C   C317      1.0  0.58893  0.70580  0.01062  1.0000 -0.3518298676
C   C318      1.0  0.86730  0.65640  0.66158  1.0000 0.2780294123
C   C319      1.0  0.89490  0.78740  0.69670  1.0000 -0.3396655335
C   C320      1.0  0.92320  0.73320  0.64220  1.0000 -0.359903298
N   N1        1.0  0.33471  0.02970  0.26773  1.0000 -0.2624435857
N   N2        1.0  0.44978  0.18980  0.32864  1.0000 -0.4292673391
N   N3        1.0  0.51116  0.26440  0.32031  1.0000 -0.4426874404
N   N4        1.0  0.61986  0.43010  0.28677  1.0000 -0.2385065777
N   N5        1.0  0.56281  0.36450  0.37837  1.0000 -0.450185506
N   N6        1.0  0.55276  0.38220  0.44497  1.0000 -0.4426874404
N   N7        1.0  0.60212  0.46920  0.57914  1.0000 -0.2385065777
N   N8        1.0  0.48761  0.30440  0.45251  1.0000 -0.450185506
N   N9        1.0  0.43736  0.20900  0.39541  1.0000 -0.450185506
N   N10       1.0  0.17533  0.07270  0.74359  1.0000 -0.2653338348
N   N11       1.0  0.05876  0.23300  0.68195  1.0000 -0.4292673391
N   N12       1.0  0.99544  0.30780  0.68739  1.0000 -0.450185506
N   N13       1.0  0.87619  0.46740  0.70989  1.0000 -0.2385065777
N   N14       1.0  0.93886  0.39640  0.62422  1.0000 -0.450185506
N   N15       1.0  0.94716  0.40470  0.55609  1.0000 -0.450185506
N   N16       1.0  0.89292  0.46450  0.41572  1.0000 -0.2385065777
N   N17       1.0  0.01536  0.32990  0.55231  1.0000 -0.450185506
N   N18       1.0  0.06929  0.24420  0.61337  1.0000 -0.4591583495
N   N19       1.0  0.60591  0.70420  0.32391  1.0000 0.0354066466
N   N20       1.0  0.88179  0.69460  0.47765  1.0000 0.0354066466
N   N21       1.0  0.61361  0.71550  0.51641  1.0000 0.0354066466
N   N22       1.0  0.89382  0.77780  0.16656  1.0000 0.0331665466
N   N23       1.0  0.66529  0.52970  0.23227  1.0000 -0.2624435857
N   N24       1.0  0.55022  0.68980  0.17136  1.0000 -0.4292673391
N   N25       1.0  0.48884  0.76440  0.17969  1.0000 -0.4426874404
N   N26       1.0  0.38014  0.93010  0.21323  1.0000 -0.2385065777
N   N27       1.0  0.43719  0.86450  0.12163  1.0000 -0.450185506
N   N28       1.0  0.44724  0.88220  0.05503  1.0000 -0.4426874404
N   N29       1.0  0.39788  0.96920  0.92086  1.0000 -0.2385065777
N   N30       1.0  0.51239  0.80440  0.04749  1.0000 -0.450185506
N   N31       1.0  0.56264  0.70900  0.10459  1.0000 -0.450185506
N   N32       1.0  0.82467  0.57270  0.75641  1.0000 -0.2653338348
N   N33       1.0  0.94124  0.73300  0.81805  1.0000 -0.4292673391
N   N34       1.0  0.00456  0.80780  0.81261  1.0000 -0.450185506
N   N35       1.0  0.12381  0.96740  0.79011  1.0000 -0.2385065777
N   N36       1.0  0.06114  0.89640  0.87578  1.0000 -0.450185506
N   N37       1.0  0.05284  0.90470  0.94391  1.0000 -0.450185506
N   N38       1.0  0.10708  0.96450  0.08428  1.0000 -0.2385065777
N   N39       1.0  0.98464  0.82990  0.94769  1.0000 -0.450185506
N   N40       1.0  0.93071  0.74420  0.88663  1.0000 -0.4591583495
N   N41       1.0  0.39409  0.20420  0.17609  1.0000 0.0354066466
N   N42       1.0  0.11821  0.19460  0.02235  1.0000 0.0354066466
N   N43       1.0  0.38639  0.21550  0.98359  1.0000 0.0354066466
N   N44       1.0  0.10618  0.27780  0.33344  1.0000 0.0331665466
N   N45       1.0  0.66529  0.97030  0.73227  1.0000 -0.2624435857
N   N46       1.0  0.55022  0.81020  0.67136  1.0000 -0.4292673391
N   N47       1.0  0.48884  0.73560  0.67969  1.0000 -0.4426874404
N   N48       1.0  0.38014  0.56990  0.71323  1.0000 -0.2385065777
N   N49       1.0  0.43719  0.63550  0.62163  1.0000 -0.450185506
N   N50       1.0  0.44724  0.61780  0.55503  1.0000 -0.4426874404
N   N51       1.0  0.39788  0.53080  0.42086  1.0000 -0.2385065777
N   N52       1.0  0.51239  0.69560  0.54749  1.0000 -0.450185506
N   N53       1.0  0.56264  0.79100  0.60459  1.0000 -0.450185506
N   N54       1.0  0.82467  0.92730  0.25641  1.0000 -0.2624435857
N   N55       1.0  0.94124  0.76700  0.31805  1.0000 -0.4292673391
N   N56       1.0  0.00456  0.69220  0.31261  1.0000 -0.450185506
N   N57       1.0  0.12381  0.53260  0.29011  1.0000 -0.2385065777
N   N58       1.0  0.06114  0.60360  0.37578  1.0000 -0.450185506
N   N59       1.0  0.05284  0.59530  0.44391  1.0000 -0.450185506
N   N60       1.0  0.10708  0.53550  0.58428  1.0000 -0.2385065777
N   N61       1.0  0.98464  0.67010  0.44769  1.0000 -0.450185506
N   N62       1.0  0.93071  0.75580  0.38663  1.0000 -0.4591583495
N   N63       1.0  0.39409  0.29580  0.67609  1.0000 0.0354066466
N   N64       1.0  0.11821  0.30540  0.52235  1.0000 0.0354066466
N   N65       1.0  0.38639  0.28450  0.48359  1.0000 0.0354066466
N   N66       1.0  0.10618  0.22220  0.83344  1.0000 0.0331665466
N   N67       1.0  0.33471  0.47030  0.76773  1.0000 -0.2624435857
N   N68       1.0  0.44978  0.31020  0.82864  1.0000 -0.4292673391
N   N69       1.0  0.51116  0.23560  0.82031  1.0000 -0.4426874404
N   N70       1.0  0.61986  0.06990  0.78677  1.0000 -0.2385065777
N   N71       1.0  0.56281  0.13550  0.87837  1.0000 -0.450185506
N   N72       1.0  0.55276  0.11780  0.94497  1.0000 -0.4426874404
N   N73       1.0  0.60212  0.03080  0.07914  1.0000 -0.2385065777
N   N74       1.0  0.48761  0.19560  0.95251  1.0000 -0.450185506
N   N75       1.0  0.43736  0.29100  0.89541  1.0000 -0.450185506
N   N76       1.0  0.17533  0.42730  0.24359  1.0000 -0.2624435857
N   N77       1.0  0.05876  0.26700  0.18195  1.0000 -0.4292673391
N   N78       1.0  0.99544  0.19220  0.18739  1.0000 -0.450185506
N   N79       1.0  0.87619  0.03260  0.20989  1.0000 -0.2385065777
N   N80       1.0  0.93886  0.10360  0.12422  1.0000 -0.450185506
N   N81       1.0  0.94716  0.09530  0.05609  1.0000 -0.450185506
N   N82       1.0  0.89292  0.03550  0.91572  1.0000 -0.2385065777
N   N83       1.0  0.01536  0.17010  0.05231  1.0000 -0.450185506
N   N84       1.0  0.06929  0.25580  0.11337  1.0000 -0.4591583495
N   N85       1.0  0.60591  0.79580  0.82391  1.0000 0.0354066466
N   N86       1.0  0.88179  0.80540  0.97765  1.0000 0.0354066466
N   N87       1.0  0.61361  0.78450  0.01641  1.0000 0.0354066466
N   N88       1.0  0.89382  0.72220  0.66656  1.0000 0.0331665466
O   O1        1.0  0.70871  0.46220  0.58640  1.0000 -0.547531936
O   O2        1.0  0.78891  0.51338  0.61904  1.0000 -0.5710671951
O   O3        1.0  0.70665  0.49547  0.37418  1.0000 -0.578277651
O   O4        1.0  0.78733  0.44709  0.40879  1.0000 -0.547531936
O   O5        1.0  0.75504  0.57741  0.32552  1.0000 -0.5710671951
O   O6        1.0  0.83011  0.58828  0.32892  1.0000 -0.5319090818
O   O7        1.0  0.66029  0.88878  0.15807  1.0000 -0.5353368257
O   O8        1.0  0.73519  0.89585  0.16064  1.0000 -0.578277651
O   O9        1.0  0.80468  0.41157  0.32719  1.0000 -0.547531936
O   O10       1.0  0.72025  0.40426  0.30210  1.0000 -0.5710671951
O   O11       1.0  0.69318  0.06362  0.16969  1.0000 -0.547531936
O   O12       1.0  0.77812  0.06604  0.19596  1.0000 -0.5710671951
O   O13       1.0  0.64821  0.61277  0.30442  1.0000 -0.450185506
O   O14       1.0  0.83557  0.59768  0.42578  1.0000 -0.4426874404
O   O15       1.0  0.65059  0.60560  0.56152  1.0000 -0.4426874404
O   O16       1.0  0.84264  0.85615  0.18239  1.0000 -0.450185506
O   O17       1.0  0.29129  0.96220  0.91360  1.0000 -0.547531936
O   O18       1.0  0.21109  0.01338  0.88096  1.0000 -0.5710671951
O   O19       1.0  0.29335  0.99547  0.12582  1.0000 -0.578277651
O   O20       1.0  0.21267  0.94709  0.09121  1.0000 -0.547531936
O   O21       1.0  0.24496  0.07741  0.17448  1.0000 -0.5710671951
O   O22       1.0  0.16989  0.08828  0.17108  1.0000 -0.5319090818
O   O23       1.0  0.33971  0.38878  0.34193  1.0000 -0.5353368257
O   O24       1.0  0.26481  0.39585  0.33936  1.0000 -0.578277651
O   O25       1.0  0.19532  0.91157  0.17281  1.0000 -0.547531936
O   O26       1.0  0.27975  0.90426  0.19790  1.0000 -0.5710671951
O   O27       1.0  0.30682  0.56362  0.33031  1.0000 -0.547531936
O   O28       1.0  0.22188  0.56604  0.30404  1.0000 -0.5710671951
O   O29       1.0  0.35179  0.11277  0.19558  1.0000 -0.450185506
O   O30       1.0  0.16443  0.09768  0.07422  1.0000 -0.4426874404
O   O31       1.0  0.34941  0.10560  0.93848  1.0000 -0.4426874404
O   O32       1.0  0.15736  0.35615  0.31761  1.0000 -0.450185506
O   O33       1.0  0.29129  0.53780  0.41360  1.0000 -0.547531936
O   O34       1.0  0.21109  0.48662  0.38096  1.0000 -0.5710671951
O   O35       1.0  0.29335  0.50453  0.62582  1.0000 -0.578277651
O   O36       1.0  0.21267  0.55291  0.59121  1.0000 -0.547531936
O   O37       1.0  0.24496  0.42259  0.67448  1.0000 -0.5710671951
O   O38       1.0  0.16989  0.41172  0.67108  1.0000 -0.5319090818
O   O39       1.0  0.33971  0.11122  0.84193  1.0000 -0.5353368257
O   O40       1.0  0.26481  0.10415  0.83936  1.0000 -0.578277651
O   O41       1.0  0.19532  0.58843  0.67281  1.0000 -0.547531936
O   O42       1.0  0.27975  0.59574  0.69790  1.0000 -0.5710671951
O   O43       1.0  0.30682  0.93638  0.83031  1.0000 -0.547531936
O   O44       1.0  0.22188  0.93396  0.80404  1.0000 -0.5710671951
O   O45       1.0  0.35179  0.38723  0.69558  1.0000 -0.450185506
O   O46       1.0  0.16443  0.40232  0.57422  1.0000 -0.4426874404
O   O47       1.0  0.34941  0.39440  0.43848  1.0000 -0.4426874404
O   O48       1.0  0.15736  0.14385  0.81761  1.0000 -0.450185506
O   O49       1.0  0.70871  0.03780  0.08640  1.0000 -0.547531936
O   O50       1.0  0.78891  0.98662  0.11904  1.0000 -0.5710671951
O   O51       1.0  0.70665  0.00453  0.87418  1.0000 -0.578277651
O   O52       1.0  0.78733  0.05291  0.90879  1.0000 -0.547531936
O   O53       1.0  0.75504  0.92259  0.82552  1.0000 -0.5710671951
O   O54       1.0  0.83011  0.91172  0.82892  1.0000 -0.5319090818
O   O55       1.0  0.66029  0.61122  0.65807  1.0000 -0.5353368257
O   O56       1.0  0.73519  0.60415  0.66064  1.0000 -0.578277651
O   O57       1.0  0.80468  0.08843  0.82719  1.0000 -0.547531936
O   O58       1.0  0.72025  0.09574  0.80210  1.0000 -0.5710671951
O   O59       1.0  0.69318  0.43638  0.66969  1.0000 -0.547531936
O   O60       1.0  0.77812  0.43396  0.69596  1.0000 -0.5710671951
O   O61       1.0  0.64821  0.88723  0.80442  1.0000 -0.450185506
O   O62       1.0  0.83557  0.90232  0.92578  1.0000 -0.4426874404
O   O63       1.0  0.65059  0.89440  0.06152  1.0000 -0.4426874404
O   O64       1.0  0.84264  0.64385  0.68239  1.0000 -0.450185506
