# DDEC6 charges by PACMAN v1.1 (https://github.com/mtap-research/PACMAN-charge/)
data_2021[Zn][pcu]3[FSR]13
_chemical_formula_sum              "Zn8 H144 C216 N24 O80"
_cell_length_a       15.3689
_cell_length_b       15.3689
_cell_length_c       28.1065
_cell_angle_alpha    90
_cell_angle_beta     90
_cell_angle_gamma    90

_symmetry_space_group_name_H-M    "P 1"
_symmetry_Int_Tables_number       1

loop_
  _symmetry_equiv_pos_as_xyz
  'x, y, z'

loop_
  _atom_site_type_symbol
  _atom_site_label
  _atom_site_symmetry_multiplicity
  _atom_site_fract_x
  _atom_site_fract_y
  _atom_site_fract_z
  _atom_site_occupancy
  _atom_site_charge
Zn  Zn1       1.0  0.50000  0.00000  0.30220  1.0000 0.8300088896
Zn  Zn2       1.0  0.50000  0.00000  0.80220  1.0000 0.8300088896
Zn  Zn3       1.0  0.50000  0.00000  0.19780  1.0000 0.8300088896
Zn  Zn4       1.0  0.50000  0.00000  0.69780  1.0000 0.8300088896
Zn  Zn5       1.0  0.00000  0.50000  0.19780  1.0000 0.8300088896
Zn  Zn6       1.0  0.00000  0.50000  0.69780  1.0000 0.8300088896
Zn  Zn7       1.0  0.00000  0.50000  0.30220  1.0000 0.8300088896
Zn  Zn8       1.0  0.00000  0.50000  0.80220  1.0000 0.8300088896
H   H1        1.0  0.74484  0.85737  0.19141  1.0000 0.1291097848
H   H2        1.0  0.85796  0.85206  0.13850  1.0000 0.1114352998
H   H3        1.0  0.81240  0.76200  0.12341  1.0000 0.1114352998
H   H4        1.0  0.01982  0.72917  0.16355  1.0000 0.1291097848
H   H5        1.0  0.14228  0.69037  0.12011  1.0000 0.1168765976
H   H6        1.0  0.14510  0.70722  0.03766  1.0000 0.1114352998
H   H7        1.0  0.02028  0.75451  0.99816  1.0000 0.1291097848
H   H8        1.0  0.61190  0.93761  0.38179  1.0000 0.1114352998
H   H9        1.0  0.61539  0.93609  0.46440  1.0000 0.1291097848
H   H10       1.0  0.25516  0.14263  0.19141  1.0000 0.1291097848
H   H11       1.0  0.14204  0.14794  0.13850  1.0000 0.1114352998
H   H12       1.0  0.18760  0.23800  0.12341  1.0000 0.1114352998
H   H13       1.0  0.98018  0.27083  0.16355  1.0000 0.1291097848
H   H14       1.0  0.85772  0.30963  0.12011  1.0000 0.1168765976
H   H15       1.0  0.85490  0.29278  0.03766  1.0000 0.1114352998
H   H16       1.0  0.97972  0.24549  0.99816  1.0000 0.1291097848
H   H17       1.0  0.38810  0.06239  0.38179  1.0000 0.1114352998
H   H18       1.0  0.38461  0.06391  0.46440  1.0000 0.1291097848
H   H19       1.0  0.64263  0.24484  0.69141  1.0000 0.1291097848
H   H20       1.0  0.64794  0.35796  0.63850  1.0000 0.1114352998
H   H21       1.0  0.73800  0.31240  0.62341  1.0000 0.1114352998
H   H22       1.0  0.77083  0.51982  0.66355  1.0000 0.1291097848
H   H23       1.0  0.80963  0.64228  0.62011  1.0000 0.1168765976
H   H24       1.0  0.79278  0.64510  0.53766  1.0000 0.1114352998
H   H25       1.0  0.74549  0.52028  0.49816  1.0000 0.1291097848
H   H26       1.0  0.56239  0.11190  0.88179  1.0000 0.1114352998
H   H27       1.0  0.56391  0.11539  0.96440  1.0000 0.1291097848
H   H28       1.0  0.35737  0.75516  0.69141  1.0000 0.1291097848
H   H29       1.0  0.35206  0.64204  0.63850  1.0000 0.1114352998
H   H30       1.0  0.26200  0.68760  0.62341  1.0000 0.1114352998
H   H31       1.0  0.22917  0.48018  0.66355  1.0000 0.1291097848
H   H32       1.0  0.19037  0.35772  0.62011  1.0000 0.1168765976
H   H33       1.0  0.20722  0.35490  0.53766  1.0000 0.1114352998
H   H34       1.0  0.25451  0.47972  0.49816  1.0000 0.1291097848
H   H35       1.0  0.43761  0.88810  0.88179  1.0000 0.1114352998
H   H36       1.0  0.43609  0.88461  0.96440  1.0000 0.1291097848
H   H37       1.0  0.25516  0.85737  0.30859  1.0000 0.1291097848
H   H38       1.0  0.14204  0.85206  0.36150  1.0000 0.1114352998
H   H39       1.0  0.18760  0.76200  0.37659  1.0000 0.1114352998
H   H40       1.0  0.98018  0.72917  0.33645  1.0000 0.1291097848
H   H41       1.0  0.85772  0.69037  0.37989  1.0000 0.1168765976
H   H42       1.0  0.85490  0.70722  0.46234  1.0000 0.1114352998
H   H43       1.0  0.97972  0.75451  0.50184  1.0000 0.1291097848
H   H44       1.0  0.38810  0.93761  0.11821  1.0000 0.1114352998
H   H45       1.0  0.38461  0.93609  0.03560  1.0000 0.1291097848
H   H46       1.0  0.74484  0.14263  0.30859  1.0000 0.1291097848
H   H47       1.0  0.85796  0.14794  0.36150  1.0000 0.1114352998
H   H48       1.0  0.81240  0.23800  0.37659  1.0000 0.1114352998
H   H49       1.0  0.01982  0.27083  0.33645  1.0000 0.1291097848
H   H50       1.0  0.14228  0.30963  0.37989  1.0000 0.1168765976
H   H51       1.0  0.14510  0.29278  0.46234  1.0000 0.1114352998
H   H52       1.0  0.02028  0.24549  0.50184  1.0000 0.1291097848
H   H53       1.0  0.61190  0.06239  0.11821  1.0000 0.1114352998
H   H54       1.0  0.61539  0.06391  0.03560  1.0000 0.1291097848
H   H55       1.0  0.35737  0.24484  0.80859  1.0000 0.1291097848
H   H56       1.0  0.35206  0.35796  0.86150  1.0000 0.1114352998
H   H57       1.0  0.26200  0.31240  0.87659  1.0000 0.1114352998
H   H58       1.0  0.22917  0.51982  0.83645  1.0000 0.1291097848
H   H59       1.0  0.19037  0.64228  0.87989  1.0000 0.1168765976
H   H60       1.0  0.20722  0.64510  0.96234  1.0000 0.1114352998
H   H61       1.0  0.25451  0.52028  0.00184  1.0000 0.1291097848
H   H62       1.0  0.43761  0.11190  0.61821  1.0000 0.1114352998
H   H63       1.0  0.43609  0.11539  0.53560  1.0000 0.1291097848
H   H64       1.0  0.64263  0.75516  0.80859  1.0000 0.1291097848
H   H65       1.0  0.64794  0.64204  0.86150  1.0000 0.1114352998
H   H66       1.0  0.73800  0.68760  0.87659  1.0000 0.1114352998
H   H67       1.0  0.77083  0.48018  0.83645  1.0000 0.1291097848
H   H68       1.0  0.80963  0.35772  0.87989  1.0000 0.1168765976
H   H69       1.0  0.79278  0.35490  0.96234  1.0000 0.1114352998
H   H70       1.0  0.74549  0.47972  0.00184  1.0000 0.1291097848
H   H71       1.0  0.56239  0.88810  0.61821  1.0000 0.1114352998
H   H72       1.0  0.56391  0.88461  0.53560  1.0000 0.1291097848
H   H73       1.0  0.75516  0.64263  0.30859  1.0000 0.1291097848
H   H74       1.0  0.64204  0.64794  0.36150  1.0000 0.1114352998
H   H75       1.0  0.68760  0.73800  0.37659  1.0000 0.1114352998
H   H76       1.0  0.48018  0.77083  0.33645  1.0000 0.1291097848
H   H77       1.0  0.35772  0.80963  0.37989  1.0000 0.1168765976
H   H78       1.0  0.35490  0.79278  0.46234  1.0000 0.1114352998
H   H79       1.0  0.47972  0.74549  0.50184  1.0000 0.1291097848
H   H80       1.0  0.88810  0.56239  0.11821  1.0000 0.1114352998
H   H81       1.0  0.88461  0.56391  0.03560  1.0000 0.1291097848
H   H82       1.0  0.24484  0.35737  0.30859  1.0000 0.1291097848
H   H83       1.0  0.35796  0.35206  0.36150  1.0000 0.1114352998
H   H84       1.0  0.31240  0.26200  0.37659  1.0000 0.1114352998
H   H85       1.0  0.51982  0.22917  0.33645  1.0000 0.1291097848
H   H86       1.0  0.64228  0.19037  0.37989  1.0000 0.1168765976
H   H87       1.0  0.64510  0.20722  0.46234  1.0000 0.1114352998
H   H88       1.0  0.52028  0.25451  0.50184  1.0000 0.1291097848
H   H89       1.0  0.11190  0.43761  0.11821  1.0000 0.1114352998
H   H90       1.0  0.11539  0.43609  0.03560  1.0000 0.1291097848
H   H91       1.0  0.85737  0.25516  0.80859  1.0000 0.1291097848
H   H92       1.0  0.85206  0.14204  0.86150  1.0000 0.1114352998
H   H93       1.0  0.76200  0.18760  0.87659  1.0000 0.1114352998
H   H94       1.0  0.72917  0.98018  0.83645  1.0000 0.1291097848
H   H95       1.0  0.69037  0.85772  0.87989  1.0000 0.1168765976
H   H96       1.0  0.70722  0.85490  0.96234  1.0000 0.1114352998
H   H97       1.0  0.75451  0.97972  0.00184  1.0000 0.1291097848
H   H98       1.0  0.93761  0.38810  0.61821  1.0000 0.1114352998
H   H99       1.0  0.93609  0.38461  0.53560  1.0000 0.1291097848
H   H100      1.0  0.14263  0.74484  0.80859  1.0000 0.1291097848
H   H101      1.0  0.14794  0.85796  0.86150  1.0000 0.1114352998
H   H102      1.0  0.23800  0.81240  0.87659  1.0000 0.1114352998
H   H103      1.0  0.27083  0.01982  0.83645  1.0000 0.1291097848
H   H104      1.0  0.30963  0.14228  0.87989  1.0000 0.1168765976
H   H105      1.0  0.29278  0.14510  0.96234  1.0000 0.1114352998
H   H106      1.0  0.24549  0.02028  0.00184  1.0000 0.1291097848
H   H107      1.0  0.06239  0.61190  0.61821  1.0000 0.1114352998
H   H108      1.0  0.06391  0.61539  0.53560  1.0000 0.1291097848
H   H109      1.0  0.24484  0.64263  0.19141  1.0000 0.1291097848
H   H110      1.0  0.35796  0.64794  0.13850  1.0000 0.1114352998
H   H111      1.0  0.31240  0.73800  0.12341  1.0000 0.1114352998
H   H112      1.0  0.51982  0.77083  0.16355  1.0000 0.1291097848
H   H113      1.0  0.64228  0.80963  0.12011  1.0000 0.1168765976
H   H114      1.0  0.64510  0.79278  0.03766  1.0000 0.1114352998
H   H115      1.0  0.52028  0.74549  0.99816  1.0000 0.1291097848
H   H116      1.0  0.11190  0.56239  0.38179  1.0000 0.1114352998
H   H117      1.0  0.11539  0.56391  0.46440  1.0000 0.1291097848
H   H118      1.0  0.75516  0.35737  0.19141  1.0000 0.1291097848
H   H119      1.0  0.64204  0.35206  0.13850  1.0000 0.1114352998
H   H120      1.0  0.68760  0.26200  0.12341  1.0000 0.1114352998
H   H121      1.0  0.48018  0.22917  0.16355  1.0000 0.1291097848
H   H122      1.0  0.35772  0.19037  0.12011  1.0000 0.1168765976
H   H123      1.0  0.35490  0.20722  0.03766  1.0000 0.1114352998
H   H124      1.0  0.47972  0.25451  0.99816  1.0000 0.1291097848
H   H125      1.0  0.88810  0.43761  0.38179  1.0000 0.1114352998
H   H126      1.0  0.88461  0.43609  0.46440  1.0000 0.1291097848
H   H127      1.0  0.14263  0.25516  0.69141  1.0000 0.1291097848
H   H128      1.0  0.14794  0.14204  0.63850  1.0000 0.1114352998
H   H129      1.0  0.23800  0.18760  0.62341  1.0000 0.1114352998
H   H130      1.0  0.27083  0.98018  0.66355  1.0000 0.1291097848
H   H131      1.0  0.30963  0.85772  0.62011  1.0000 0.1168765976
H   H132      1.0  0.29278  0.85490  0.53766  1.0000 0.1114352998
H   H133      1.0  0.24549  0.97972  0.49816  1.0000 0.1291097848
H   H134      1.0  0.06239  0.38810  0.88179  1.0000 0.1114352998
H   H135      1.0  0.06391  0.38461  0.96440  1.0000 0.1291097848
H   H136      1.0  0.85737  0.74484  0.69141  1.0000 0.1291097848
H   H137      1.0  0.85206  0.85796  0.63850  1.0000 0.1114352998
H   H138      1.0  0.76200  0.81240  0.62341  1.0000 0.1114352998
H   H139      1.0  0.72917  0.01982  0.66355  1.0000 0.1291097848
H   H140      1.0  0.69037  0.14228  0.62011  1.0000 0.1168765976
H   H141      1.0  0.70722  0.14510  0.53766  1.0000 0.1114352998
H   H142      1.0  0.75451  0.02028  0.49816  1.0000 0.1291097848
H   H143      1.0  0.93761  0.61190  0.88179  1.0000 0.1114352998
H   H144      1.0  0.93609  0.61539  0.96440  1.0000 0.1291097848
C   C1        1.0  0.61690  0.88238  0.25138  1.0000 0.6065133317
C   C2        1.0  0.68459  0.81249  0.25090  1.0000 -0.1026394511
C   C3        1.0  0.74709  0.81386  0.21538  1.0000 -0.2489434378
C   C4        1.0  0.81281  0.75226  0.21458  1.0000 0.2155169705
C   C5        1.0  0.86557  0.78813  0.13722  1.0000 -0.0718755505
C   C6        1.0  0.94420  0.76493  0.10765  1.0000 0.0499438542
C   C7        1.0  0.01898  0.73459  0.12988  1.0000 -0.124286483
C   C8        1.0  0.09243  0.71205  0.10402  1.0000 -0.0718755505
C   C9        1.0  0.09388  0.72079  0.05507  1.0000 -0.0772177697
C   C10       1.0  0.02060  0.74926  0.03183  1.0000 -0.1428287196
C   C11       1.0  0.94706  0.77028  0.05803  1.0000 0.0114420893
C   C12       1.0  0.56539  0.96360  0.39893  1.0000 0.0955752494
C   C13       1.0  0.56790  0.96234  0.44820  1.0000 -0.1961254225
C   C14       1.0  0.38310  0.11762  0.25138  1.0000 0.6065133317
C   C15       1.0  0.31541  0.18751  0.25090  1.0000 -0.1026394511
C   C16       1.0  0.25291  0.18614  0.21538  1.0000 -0.2489434378
C   C17       1.0  0.18719  0.24774  0.21458  1.0000 0.2155169705
C   C18       1.0  0.13443  0.21187  0.13722  1.0000 -0.0718755505
C   C19       1.0  0.05580  0.23507  0.10765  1.0000 0.0499438542
C   C20       1.0  0.98102  0.26541  0.12988  1.0000 -0.124286483
C   C21       1.0  0.90757  0.28795  0.10402  1.0000 -0.0718755505
C   C22       1.0  0.90612  0.27921  0.05507  1.0000 -0.0772177697
C   C23       1.0  0.97940  0.25074  0.03183  1.0000 -0.1428287196
C   C24       1.0  0.05294  0.22972  0.05803  1.0000 0.0114420893
C   C25       1.0  0.43461  0.03640  0.39893  1.0000 0.0955752494
C   C26       1.0  0.43210  0.03766  0.44820  1.0000 -0.1961254225
C   C27       1.0  0.61762  0.11690  0.75138  1.0000 0.6065133317
C   C28       1.0  0.68751  0.18459  0.75090  1.0000 -0.1026394511
C   C29       1.0  0.68614  0.24709  0.71538  1.0000 -0.2489434378
C   C30       1.0  0.74774  0.31281  0.71458  1.0000 0.2155169705
C   C31       1.0  0.71187  0.36557  0.63722  1.0000 -0.0718755505
C   C32       1.0  0.73507  0.44420  0.60765  1.0000 0.0499438542
C   C33       1.0  0.76541  0.51898  0.62988  1.0000 -0.124286483
C   C34       1.0  0.78795  0.59243  0.60402  1.0000 -0.0718755505
C   C35       1.0  0.77921  0.59388  0.55507  1.0000 -0.0772177697
C   C36       1.0  0.75074  0.52060  0.53183  1.0000 -0.1428287196
C   C37       1.0  0.72972  0.44706  0.55803  1.0000 0.0114420893
C   C38       1.0  0.53640  0.06539  0.89893  1.0000 0.0955752494
C   C39       1.0  0.53766  0.06790  0.94820  1.0000 -0.1961254225
C   C40       1.0  0.38238  0.88310  0.75138  1.0000 0.6065133317
C   C41       1.0  0.31249  0.81541  0.75090  1.0000 -0.1026394511
C   C42       1.0  0.31386  0.75291  0.71538  1.0000 -0.2489434378
C   C43       1.0  0.25226  0.68719  0.71458  1.0000 0.2155169705
C   C44       1.0  0.28813  0.63443  0.63722  1.0000 -0.0718755505
C   C45       1.0  0.26493  0.55580  0.60765  1.0000 0.0499438542
C   C46       1.0  0.23459  0.48102  0.62988  1.0000 -0.124286483
C   C47       1.0  0.21205  0.40757  0.60402  1.0000 -0.0718755505
C   C48       1.0  0.22079  0.40612  0.55507  1.0000 -0.0772177697
C   C49       1.0  0.24926  0.47940  0.53183  1.0000 -0.1428287196
C   C50       1.0  0.27028  0.55294  0.55803  1.0000 0.0114420893
C   C51       1.0  0.46360  0.93461  0.89893  1.0000 0.0955752494
C   C52       1.0  0.46234  0.93210  0.94820  1.0000 -0.1961254225
C   C53       1.0  0.38310  0.88238  0.24862  1.0000 0.6065133317
C   C54       1.0  0.31541  0.81249  0.24910  1.0000 -0.1026394511
C   C55       1.0  0.25291  0.81386  0.28462  1.0000 -0.2489434378
C   C56       1.0  0.18719  0.75226  0.28542  1.0000 0.2155169705
C   C57       1.0  0.13443  0.78813  0.36278  1.0000 -0.0718755505
C   C58       1.0  0.05580  0.76493  0.39235  1.0000 0.0499438542
C   C59       1.0  0.98102  0.73459  0.37012  1.0000 -0.124286483
C   C60       1.0  0.90757  0.71205  0.39598  1.0000 -0.0718755505
C   C61       1.0  0.90612  0.72079  0.44493  1.0000 -0.0772177697
C   C62       1.0  0.97940  0.74926  0.46817  1.0000 -0.1428287196
C   C63       1.0  0.05294  0.77028  0.44197  1.0000 0.0114420893
C   C64       1.0  0.43461  0.96360  0.10107  1.0000 0.0955752494
C   C65       1.0  0.43210  0.96234  0.05180  1.0000 -0.1961254225
C   C66       1.0  0.61690  0.11762  0.24862  1.0000 0.6065133317
C   C67       1.0  0.68459  0.18751  0.24910  1.0000 -0.1026394511
C   C68       1.0  0.74709  0.18614  0.28462  1.0000 -0.2489434378
C   C69       1.0  0.81281  0.24774  0.28542  1.0000 0.2155169705
C   C70       1.0  0.86557  0.21187  0.36278  1.0000 -0.0718755505
C   C71       1.0  0.94420  0.23507  0.39235  1.0000 0.0499438542
C   C72       1.0  0.01898  0.26541  0.37012  1.0000 -0.124286483
C   C73       1.0  0.09243  0.28795  0.39598  1.0000 -0.0718755505
C   C74       1.0  0.09388  0.27921  0.44493  1.0000 -0.0772177697
C   C75       1.0  0.02060  0.25074  0.46817  1.0000 -0.1428287196
C   C76       1.0  0.94706  0.22972  0.44197  1.0000 0.0114420893
C   C77       1.0  0.56539  0.03640  0.10107  1.0000 0.0955752494
C   C78       1.0  0.56790  0.03766  0.05180  1.0000 -0.1961254225
C   C79       1.0  0.38238  0.11690  0.74862  1.0000 0.6065133317
C   C80       1.0  0.31249  0.18459  0.74910  1.0000 -0.1026394511
C   C81       1.0  0.31386  0.24709  0.78462  1.0000 -0.2489434378
C   C82       1.0  0.25226  0.31281  0.78542  1.0000 0.2155169705
C   C83       1.0  0.28813  0.36557  0.86278  1.0000 -0.0718755505
C   C84       1.0  0.26493  0.44420  0.89235  1.0000 0.0499438542
C   C85       1.0  0.23459  0.51898  0.87012  1.0000 -0.124286483
C   C86       1.0  0.21205  0.59243  0.89598  1.0000 -0.0718755505
C   C87       1.0  0.22079  0.59388  0.94493  1.0000 -0.0772177697
C   C88       1.0  0.24926  0.52060  0.96817  1.0000 -0.1428287196
C   C89       1.0  0.27028  0.44706  0.94197  1.0000 0.0114420893
C   C90       1.0  0.46360  0.06539  0.60107  1.0000 0.0955752494
C   C91       1.0  0.46234  0.06790  0.55180  1.0000 -0.1961254225
C   C92       1.0  0.61762  0.88310  0.74862  1.0000 0.6065133317
C   C93       1.0  0.68751  0.81541  0.74910  1.0000 -0.1026394511
C   C94       1.0  0.68614  0.75291  0.78462  1.0000 -0.2489434378
C   C95       1.0  0.74774  0.68719  0.78542  1.0000 0.2155169705
C   C96       1.0  0.71187  0.63443  0.86278  1.0000 -0.0718755505
C   C97       1.0  0.73507  0.55580  0.89235  1.0000 0.0499438542
C   C98       1.0  0.76541  0.48102  0.87012  1.0000 -0.124286483
C   C99       1.0  0.78795  0.40757  0.89598  1.0000 -0.0718755505
C   C100      1.0  0.77921  0.40612  0.94493  1.0000 -0.0772177697
C   C101      1.0  0.75074  0.47940  0.96817  1.0000 -0.1428287196
C   C102      1.0  0.72972  0.55294  0.94197  1.0000 0.0114420893
C   C103      1.0  0.53640  0.93461  0.60107  1.0000 0.0955752494
C   C104      1.0  0.53766  0.93210  0.55180  1.0000 -0.1961254225
C   C105      1.0  0.88310  0.61762  0.24862  1.0000 0.6065133317
C   C106      1.0  0.81541  0.68751  0.24910  1.0000 -0.1026394511
C   C107      1.0  0.75291  0.68614  0.28462  1.0000 -0.2489434378
C   C108      1.0  0.68719  0.74774  0.28542  1.0000 0.2155169705
C   C109      1.0  0.63443  0.71187  0.36278  1.0000 -0.0718755505
C   C110      1.0  0.55580  0.73507  0.39235  1.0000 0.0499438542
C   C111      1.0  0.48102  0.76541  0.37012  1.0000 -0.124286483
C   C112      1.0  0.40757  0.78795  0.39598  1.0000 -0.0718755505
C   C113      1.0  0.40612  0.77921  0.44493  1.0000 -0.0772177697
C   C114      1.0  0.47940  0.75074  0.46817  1.0000 -0.1428287196
C   C115      1.0  0.55294  0.72972  0.44197  1.0000 0.0114420893
C   C116      1.0  0.93461  0.53640  0.10107  1.0000 0.0955752494
C   C117      1.0  0.93210  0.53766  0.05180  1.0000 -0.1961254225
C   C118      1.0  0.11690  0.38238  0.24862  1.0000 0.6065133317
C   C119      1.0  0.18459  0.31249  0.24910  1.0000 -0.1026394511
C   C120      1.0  0.24709  0.31386  0.28462  1.0000 -0.2489434378
C   C121      1.0  0.31281  0.25226  0.28542  1.0000 0.2155169705
C   C122      1.0  0.36557  0.28813  0.36278  1.0000 -0.0718755505
C   C123      1.0  0.44420  0.26493  0.39235  1.0000 0.0499438542
C   C124      1.0  0.51898  0.23459  0.37012  1.0000 -0.124286483
C   C125      1.0  0.59243  0.21205  0.39598  1.0000 -0.0718755505
C   C126      1.0  0.59388  0.22079  0.44493  1.0000 -0.0772177697
C   C127      1.0  0.52060  0.24926  0.46817  1.0000 -0.1428287196
C   C128      1.0  0.44706  0.27028  0.44197  1.0000 0.0114420893
C   C129      1.0  0.06539  0.46360  0.10107  1.0000 0.0955752494
C   C130      1.0  0.06790  0.46234  0.05180  1.0000 -0.1961254225
C   C131      1.0  0.88238  0.38310  0.74862  1.0000 0.6065133317
C   C132      1.0  0.81249  0.31541  0.74910  1.0000 -0.1026394511
C   C133      1.0  0.81386  0.25291  0.78462  1.0000 -0.2489434378
C   C134      1.0  0.75226  0.18719  0.78542  1.0000 0.2155169705
C   C135      1.0  0.78813  0.13443  0.86278  1.0000 -0.0718755505
C   C136      1.0  0.76493  0.05580  0.89235  1.0000 0.0499438542
C   C137      1.0  0.73459  0.98102  0.87012  1.0000 -0.124286483
C   C138      1.0  0.71205  0.90757  0.89598  1.0000 -0.0718755505
C   C139      1.0  0.72079  0.90612  0.94493  1.0000 -0.0772177697
C   C140      1.0  0.74926  0.97940  0.96817  1.0000 -0.1428287196
C   C141      1.0  0.77028  0.05294  0.94197  1.0000 0.0114420893
C   C142      1.0  0.96360  0.43461  0.60107  1.0000 0.0955752494
C   C143      1.0  0.96234  0.43210  0.55180  1.0000 -0.1961254225
C   C144      1.0  0.11762  0.61690  0.74862  1.0000 0.6065133317
C   C145      1.0  0.18751  0.68459  0.74910  1.0000 -0.1026394511
C   C146      1.0  0.18614  0.74709  0.78462  1.0000 -0.2489434378
C   C147      1.0  0.24774  0.81281  0.78542  1.0000 0.2155169705
C   C148      1.0  0.21187  0.86557  0.86278  1.0000 -0.0718755505
C   C149      1.0  0.23507  0.94420  0.89235  1.0000 0.0499438542
C   C150      1.0  0.26541  0.01898  0.87012  1.0000 -0.124286483
C   C151      1.0  0.28795  0.09243  0.89598  1.0000 -0.0718755505
C   C152      1.0  0.27921  0.09388  0.94493  1.0000 -0.0772177697
C   C153      1.0  0.25074  0.02060  0.96817  1.0000 -0.1428287196
C   C154      1.0  0.22972  0.94706  0.94197  1.0000 0.0114420893
C   C155      1.0  0.03640  0.56539  0.60107  1.0000 0.0955752494
C   C156      1.0  0.03766  0.56790  0.55180  1.0000 -0.1961254225
C   C157      1.0  0.11690  0.61762  0.25138  1.0000 0.6065133317
C   C158      1.0  0.18459  0.68751  0.25090  1.0000 -0.1026394511
C   C159      1.0  0.24709  0.68614  0.21538  1.0000 -0.2489434378
C   C160      1.0  0.31281  0.74774  0.21458  1.0000 0.2155169705
C   C161      1.0  0.36557  0.71187  0.13722  1.0000 -0.0718755505
C   C162      1.0  0.44420  0.73507  0.10765  1.0000 0.0499438542
C   C163      1.0  0.51898  0.76541  0.12988  1.0000 -0.124286483
C   C164      1.0  0.59243  0.78795  0.10402  1.0000 -0.0718755505
C   C165      1.0  0.59388  0.77921  0.05507  1.0000 -0.0772177697
C   C166      1.0  0.52060  0.75074  0.03183  1.0000 -0.1428287196
C   C167      1.0  0.44706  0.72972  0.05803  1.0000 0.0114420893
C   C168      1.0  0.06539  0.53640  0.39893  1.0000 0.0955752494
C   C169      1.0  0.06790  0.53766  0.44820  1.0000 -0.1961254225
C   C170      1.0  0.88310  0.38238  0.25138  1.0000 0.6065133317
C   C171      1.0  0.81541  0.31249  0.25090  1.0000 -0.1026394511
C   C172      1.0  0.75291  0.31386  0.21538  1.0000 -0.2489434378
C   C173      1.0  0.68719  0.25226  0.21458  1.0000 0.2155169705
C   C174      1.0  0.63443  0.28813  0.13722  1.0000 -0.0718755505
C   C175      1.0  0.55580  0.26493  0.10765  1.0000 0.0499438542
C   C176      1.0  0.48102  0.23459  0.12988  1.0000 -0.124286483
C   C177      1.0  0.40757  0.21205  0.10402  1.0000 -0.0718755505
C   C178      1.0  0.40612  0.22079  0.05507  1.0000 -0.0772177697
C   C179      1.0  0.47940  0.24926  0.03183  1.0000 -0.1428287196
C   C180      1.0  0.55294  0.27028  0.05803  1.0000 0.0114420893
C   C181      1.0  0.93461  0.46360  0.39893  1.0000 0.0955752494
C   C182      1.0  0.93210  0.46234  0.44820  1.0000 -0.1961254225
C   C183      1.0  0.11762  0.38310  0.75138  1.0000 0.6065133317
C   C184      1.0  0.18751  0.31541  0.75090  1.0000 -0.1026394511
C   C185      1.0  0.18614  0.25291  0.71538  1.0000 -0.2489434378
C   C186      1.0  0.24774  0.18719  0.71458  1.0000 0.2155169705
C   C187      1.0  0.21187  0.13443  0.63722  1.0000 -0.0718755505
C   C188      1.0  0.23507  0.05580  0.60765  1.0000 0.0499438542
C   C189      1.0  0.26541  0.98102  0.62988  1.0000 -0.124286483
C   C190      1.0  0.28795  0.90757  0.60402  1.0000 -0.0718755505
C   C191      1.0  0.27921  0.90612  0.55507  1.0000 -0.0772177697
C   C192      1.0  0.25074  0.97940  0.53183  1.0000 -0.1428287196
C   C193      1.0  0.22972  0.05294  0.55803  1.0000 0.0114420893
C   C194      1.0  0.03640  0.43461  0.89893  1.0000 0.0955752494
C   C195      1.0  0.03766  0.43210  0.94820  1.0000 -0.1961254225
C   C196      1.0  0.88238  0.61690  0.75138  1.0000 0.6065133317
C   C197      1.0  0.81249  0.68459  0.75090  1.0000 -0.1026394511
C   C198      1.0  0.81386  0.74709  0.71538  1.0000 -0.2489434378
C   C199      1.0  0.75226  0.81281  0.71458  1.0000 0.2155169705
C   C200      1.0  0.78813  0.86557  0.63722  1.0000 -0.0718755505
C   C201      1.0  0.76493  0.94420  0.60765  1.0000 0.0499438542
C   C202      1.0  0.73459  0.01898  0.62988  1.0000 -0.124286483
C   C203      1.0  0.71205  0.09243  0.60402  1.0000 -0.0718755505
C   C204      1.0  0.72079  0.09388  0.55507  1.0000 -0.0772177697
C   C205      1.0  0.74926  0.02060  0.53183  1.0000 -0.1428287196
C   C206      1.0  0.77028  0.94706  0.55803  1.0000 0.0114420893
C   C207      1.0  0.96360  0.56539  0.89893  1.0000 0.0955752494
C   C208      1.0  0.96234  0.56790  0.94820  1.0000 -0.1961254225
C   C209      1.0  0.50000  0.00000  0.47366  1.0000 0.1114352998
C   C210      1.0  0.50000  0.00000  0.97366  1.0000 0.1114352998
C   C211      1.0  0.50000  0.00000  0.02634  1.0000 0.1114352998
C   C212      1.0  0.50000  0.00000  0.52634  1.0000 0.1114352998
C   C213      1.0  0.00000  0.50000  0.02634  1.0000 0.1114352998
C   C214      1.0  0.00000  0.50000  0.52634  1.0000 0.1114352998
C   C215      1.0  0.00000  0.50000  0.47366  1.0000 0.1114352998
C   C216      1.0  0.00000  0.50000  0.97366  1.0000 0.1114352998
N   N1        1.0  0.87059  0.79681  0.03090  1.0000 0.5086046002
N   N2        1.0  0.12941  0.20319  0.03090  1.0000 0.5086046002
N   N3        1.0  0.70319  0.37059  0.53090  1.0000 0.5086046002
N   N4        1.0  0.29681  0.62941  0.53090  1.0000 0.5086046002
N   N5        1.0  0.12941  0.79681  0.46910  1.0000 0.5086046002
N   N6        1.0  0.87059  0.20319  0.46910  1.0000 0.5086046002
N   N7        1.0  0.29681  0.37059  0.96910  1.0000 0.5086046002
N   N8        1.0  0.70319  0.62941  0.96910  1.0000 0.5086046002
N   N9        1.0  0.62941  0.70319  0.46910  1.0000 0.5086046002
N   N10       1.0  0.37059  0.29681  0.46910  1.0000 0.5086046002
N   N11       1.0  0.79681  0.12941  0.96910  1.0000 0.5086046002
N   N12       1.0  0.20319  0.87059  0.96910  1.0000 0.5086046002
N   N13       1.0  0.37059  0.70319  0.03090  1.0000 0.5086046002
N   N14       1.0  0.62941  0.29681  0.03090  1.0000 0.5086046002
N   N15       1.0  0.20319  0.12941  0.53090  1.0000 0.5086046002
N   N16       1.0  0.79681  0.87059  0.53090  1.0000 0.5086046002
N   N17       1.0  0.50000  0.00000  0.37449  1.0000 -0.21724327
N   N18       1.0  0.50000  0.00000  0.87449  1.0000 -0.21724327
N   N19       1.0  0.50000  0.00000  0.12551  1.0000 -0.21724327
N   N20       1.0  0.50000  0.00000  0.62551  1.0000 -0.21724327
N   N21       1.0  0.00000  0.50000  0.12551  1.0000 -0.21724327
N   N22       1.0  0.00000  0.50000  0.62551  1.0000 -0.21724327
N   N23       1.0  0.00000  0.50000  0.37449  1.0000 -0.21724327
N   N24       1.0  0.00000  0.50000  0.87449  1.0000 -0.21724327
O   O1        1.0  0.60111  0.91882  0.29040  1.0000 -0.5307275252
O   O2        1.0  0.58230  0.89994  0.21227  1.0000 -0.5380573617
O   O3        1.0  0.88092  0.75455  0.18327  1.0000 -0.1568973315
O   O4        1.0  0.86536  0.77316  0.98912  1.0000 -0.3335750495
O   O5        1.0  0.81460  0.84073  0.05072  1.0000 -0.3335750495
O   O6        1.0  0.39889  0.08118  0.29040  1.0000 -0.5307275252
O   O7        1.0  0.41770  0.10006  0.21227  1.0000 -0.5380573617
O   O8        1.0  0.11908  0.24545  0.18327  1.0000 -0.1568973315
O   O9        1.0  0.13464  0.22684  0.98912  1.0000 -0.3335750495
O   O10       1.0  0.18540  0.15927  0.05072  1.0000 -0.3335750495
O   O11       1.0  0.58118  0.10111  0.79040  1.0000 -0.5307275252
O   O12       1.0  0.60006  0.08230  0.71227  1.0000 -0.5380573617
O   O13       1.0  0.74545  0.38092  0.68327  1.0000 -0.1568973315
O   O14       1.0  0.72684  0.36536  0.48912  1.0000 -0.3335750495
O   O15       1.0  0.65927  0.31460  0.55072  1.0000 -0.3335750495
O   O16       1.0  0.41882  0.89889  0.79040  1.0000 -0.5307275252
O   O17       1.0  0.39994  0.91770  0.71227  1.0000 -0.5380573617
O   O18       1.0  0.25455  0.61908  0.68327  1.0000 -0.1568973315
O   O19       1.0  0.27316  0.63464  0.48912  1.0000 -0.3335750495
O   O20       1.0  0.34073  0.68540  0.55072  1.0000 -0.3356356667
O   O21       1.0  0.39889  0.91882  0.20960  1.0000 -0.5307275252
O   O22       1.0  0.41770  0.89994  0.28773  1.0000 -0.5380573617
O   O23       1.0  0.11908  0.75455  0.31673  1.0000 -0.1568973315
O   O24       1.0  0.13464  0.77316  0.51088  1.0000 -0.3335750495
O   O25       1.0  0.18540  0.84073  0.44928  1.0000 -0.3335750495
O   O26       1.0  0.60111  0.08118  0.20960  1.0000 -0.5307275252
O   O27       1.0  0.58230  0.10006  0.28773  1.0000 -0.5380573617
O   O28       1.0  0.88092  0.24545  0.31673  1.0000 -0.1568973315
O   O29       1.0  0.86536  0.22684  0.51088  1.0000 -0.3335750495
O   O30       1.0  0.81460  0.15927  0.44928  1.0000 -0.3335750495
O   O31       1.0  0.41882  0.10111  0.70960  1.0000 -0.5307275252
O   O32       1.0  0.39994  0.08230  0.78773  1.0000 -0.5380573617
O   O33       1.0  0.25455  0.38092  0.81673  1.0000 -0.1568973315
O   O34       1.0  0.27316  0.36536  0.01088  1.0000 -0.3335750495
O   O35       1.0  0.34073  0.31460  0.94928  1.0000 -0.3335750495
O   O36       1.0  0.58118  0.89889  0.70960  1.0000 -0.5307275252
O   O37       1.0  0.60006  0.91770  0.78773  1.0000 -0.5380573617
O   O38       1.0  0.74545  0.61908  0.81673  1.0000 -0.1568973315
O   O39       1.0  0.72684  0.63464  0.01088  1.0000 -0.3335750495
O   O40       1.0  0.65927  0.68540  0.94928  1.0000 -0.3335750495
O   O41       1.0  0.89889  0.58118  0.20960  1.0000 -0.5307275252
O   O42       1.0  0.91770  0.60006  0.28773  1.0000 -0.5380573617
O   O43       1.0  0.61908  0.74545  0.31673  1.0000 -0.1568973315
O   O44       1.0  0.63464  0.72684  0.51088  1.0000 -0.3335750495
O   O45       1.0  0.68540  0.65927  0.44928  1.0000 -0.3335750495
O   O46       1.0  0.10111  0.41882  0.20960  1.0000 -0.5307275252
O   O47       1.0  0.08230  0.39994  0.28773  1.0000 -0.5380573617
O   O48       1.0  0.38092  0.25455  0.31673  1.0000 -0.1568973315
O   O49       1.0  0.36536  0.27316  0.51088  1.0000 -0.3335750495
O   O50       1.0  0.31460  0.34073  0.44928  1.0000 -0.3335750495
O   O51       1.0  0.91882  0.39889  0.70960  1.0000 -0.5307275252
O   O52       1.0  0.89994  0.41770  0.78773  1.0000 -0.5380573617
O   O53       1.0  0.75455  0.11908  0.81673  1.0000 -0.1568973315
O   O54       1.0  0.77316  0.13464  0.01088  1.0000 -0.3335750495
O   O55       1.0  0.84073  0.18540  0.94928  1.0000 -0.3335750495
O   O56       1.0  0.08118  0.60111  0.70960  1.0000 -0.5307275252
O   O57       1.0  0.10006  0.58230  0.78773  1.0000 -0.5380573617
O   O58       1.0  0.24545  0.88092  0.81673  1.0000 -0.1568973315
O   O59       1.0  0.22684  0.86536  0.01088  1.0000 -0.3335750495
O   O60       1.0  0.15927  0.81460  0.94928  1.0000 -0.3335750495
O   O61       1.0  0.10111  0.58118  0.29040  1.0000 -0.5307275252
O   O62       1.0  0.08230  0.60006  0.21227  1.0000 -0.5380573617
O   O63       1.0  0.38092  0.74545  0.18327  1.0000 -0.1568973315
O   O64       1.0  0.36536  0.72684  0.98912  1.0000 -0.3335750495
O   O65       1.0  0.31460  0.65927  0.05072  1.0000 -0.3335750495
O   O66       1.0  0.89889  0.41882  0.29040  1.0000 -0.5307275252
O   O67       1.0  0.91770  0.39994  0.21227  1.0000 -0.5380573617
O   O68       1.0  0.61908  0.25455  0.18327  1.0000 -0.1568973315
O   O69       1.0  0.63464  0.27316  0.98912  1.0000 -0.3335750495
O   O70       1.0  0.68540  0.34073  0.05072  1.0000 -0.3335750495
O   O71       1.0  0.08118  0.39889  0.79040  1.0000 -0.5307275252
O   O72       1.0  0.10006  0.41770  0.71227  1.0000 -0.5380573617
O   O73       1.0  0.24545  0.11908  0.68327  1.0000 -0.1568973315
O   O74       1.0  0.22684  0.13464  0.48912  1.0000 -0.3335750495
O   O75       1.0  0.15927  0.18540  0.55072  1.0000 -0.3335750495
O   O76       1.0  0.91882  0.60111  0.79040  1.0000 -0.5307275252
O   O77       1.0  0.89994  0.58230  0.71227  1.0000 -0.5380573617
O   O78       1.0  0.75455  0.88092  0.68327  1.0000 -0.1568973315
O   O79       1.0  0.77316  0.86536  0.48912  1.0000 -0.3335750495
O   O80       1.0  0.84073  0.81460  0.55072  1.0000 -0.3335750495
