# DDEC6 charges by PACMAN v1.1 (https://github.com/mtap-research/PACMAN-charge/)
data_2021[Co][pcu]3[FSR]2
_chemical_formula_sum              "Co8 H112 C192 S32 N16 O32"
_cell_length_a       17.4639
_cell_length_b       17.8922
_cell_length_c       19.0086
_cell_angle_alpha    90
_cell_angle_beta     90
_cell_angle_gamma    90

_symmetry_space_group_name_H-M    "P 1"
_symmetry_Int_Tables_number       1

loop_
  _symmetry_equiv_pos_as_xyz
  'x, y, z'

loop_
  _atom_site_type_symbol
  _atom_site_label
  _atom_site_symmetry_multiplicity
  _atom_site_fract_x
  _atom_site_fract_y
  _atom_site_fract_z
  _atom_site_occupancy
  _atom_site_charge
Co  Co1       1.0  0.16711  0.82232  0.11865  1.0000 0.854566393
Co  Co2       1.0  0.33714  0.67968  0.16221  1.0000 0.8407245405
Co  Co3       1.0  0.66711  0.17768  0.11865  1.0000 0.854566393
Co  Co4       1.0  0.83714  0.32032  0.16221  1.0000 0.8407245405
Co  Co5       1.0  0.16711  0.17768  0.88135  1.0000 0.854566393
Co  Co6       1.0  0.33714  0.32032  0.83779  1.0000 0.8407245405
Co  Co7       1.0  0.66711  0.82232  0.88135  1.0000 0.854566393
Co  Co8       1.0  0.83714  0.67968  0.83779  1.0000 0.8407245405
H   H1        1.0  0.04697  0.71892  0.77895  1.0000 0.1740121297
H   H2        1.0  0.29359  0.92205  0.46110  1.0000 0.1530306763
H   H3        1.0  0.08062  0.73561  0.00673  1.0000 0.1107922865
H   H4        1.0  0.06524  0.72103  0.88848  1.0000 0.1396129698
H   H5        1.0  0.23381  0.87169  0.85857  1.0000 0.1305932732
H   H6        1.0  0.24303  0.88646  0.98013  1.0000 0.1107922865
H   H7        1.0  0.24072  0.92216  0.22831  1.0000 0.1107922865
H   H8        1.0  0.25821  0.93587  0.34727  1.0000 0.1305932732
H   H9        1.0  0.12474  0.75163  0.37748  1.0000 0.1305932732
H   H10       1.0  0.11483  0.74332  0.25369  1.0000 0.1008258526
H   H11       1.0  0.44515  0.79536  0.82225  1.0000 0.1764098085
H   H12       1.0  0.21532  0.58010  0.50182  1.0000 0.1530306763
H   H13       1.0  0.25866  0.62299  0.02904  1.0000 0.1107922865
H   H14       1.0  0.26818  0.63605  0.90609  1.0000 0.1305932732
H   H15       1.0  0.44684  0.77640  0.93384  1.0000 0.1396129698
H   H16       1.0  0.43624  0.75580  0.05419  1.0000 0.1008258526
H   H17       1.0  0.38710  0.76494  0.30223  1.0000 0.1107922865
H   H18       1.0  0.37268  0.75650  0.42029  1.0000 0.1305932732
H   H19       1.0  0.25048  0.56946  0.39409  1.0000 0.1305932732
H   H20       1.0  0.26535  0.58102  0.27428  1.0000 0.1107922865
H   H21       1.0  0.32332  0.98548  0.09295  1.0000 0.121325538
H   H22       1.0  0.41309  0.08142  0.08353  1.0000 0.121325538
H   H23       1.0  0.57574  0.93891  0.15926  1.0000 0.1107922865
H   H24       1.0  0.48352  0.84659  0.16599  1.0000 0.121325538
H   H25       1.0  0.18352  0.50570  0.16741  1.0000 0.121325538
H   H26       1.0  0.09149  0.41215  0.18211  1.0000 0.121325538
H   H27       1.0  0.92589  0.55734  0.13148  1.0000 0.121325538
H   H28       1.0  0.01215  0.65372  0.13117  1.0000 0.1107922865
H   H29       1.0  0.54697  0.28108  0.77895  1.0000 0.1740121297
H   H30       1.0  0.79359  0.07795  0.46110  1.0000 0.1530306763
H   H31       1.0  0.58062  0.26439  0.00673  1.0000 0.1107922865
H   H32       1.0  0.56524  0.27897  0.88848  1.0000 0.1396129698
H   H33       1.0  0.73381  0.12831  0.85857  1.0000 0.1305932732
H   H34       1.0  0.74303  0.11354  0.98013  1.0000 0.1107922865
H   H35       1.0  0.74072  0.07784  0.22831  1.0000 0.1107922865
H   H36       1.0  0.75821  0.06413  0.34727  1.0000 0.1305932732
H   H37       1.0  0.62474  0.24837  0.37748  1.0000 0.1305932732
H   H38       1.0  0.61483  0.25668  0.25369  1.0000 0.1008258526
H   H39       1.0  0.94515  0.20464  0.82225  1.0000 0.1764098085
H   H40       1.0  0.71532  0.41990  0.50182  1.0000 0.1530306763
H   H41       1.0  0.75866  0.37701  0.02904  1.0000 0.1107922865
H   H42       1.0  0.76818  0.36395  0.90609  1.0000 0.1305932732
H   H43       1.0  0.94684  0.22360  0.93384  1.0000 0.1396129698
H   H44       1.0  0.93624  0.24420  0.05419  1.0000 0.1008258526
H   H45       1.0  0.88710  0.23506  0.30223  1.0000 0.1107922865
H   H46       1.0  0.87268  0.24350  0.42029  1.0000 0.1305932732
H   H47       1.0  0.75048  0.43054  0.39409  1.0000 0.1305932732
H   H48       1.0  0.76535  0.41898  0.27428  1.0000 0.1107922865
H   H49       1.0  0.82332  0.01452  0.09295  1.0000 0.121325538
H   H50       1.0  0.91309  0.91858  0.08353  1.0000 0.121325538
H   H51       1.0  0.07574  0.06109  0.15926  1.0000 0.1107922865
H   H52       1.0  0.98352  0.15341  0.16599  1.0000 0.121325538
H   H53       1.0  0.68352  0.49430  0.16741  1.0000 0.121325538
H   H54       1.0  0.59149  0.58785  0.18211  1.0000 0.121325538
H   H55       1.0  0.42589  0.44266  0.13148  1.0000 0.121325538
H   H56       1.0  0.51215  0.34628  0.13117  1.0000 0.1107922865
H   H57       1.0  0.04697  0.28108  0.22105  1.0000 0.1740121297
H   H58       1.0  0.29359  0.07795  0.53890  1.0000 0.1530306763
H   H59       1.0  0.08062  0.26439  0.99327  1.0000 0.1107922865
H   H60       1.0  0.06524  0.27897  0.11152  1.0000 0.1396129698
H   H61       1.0  0.23381  0.12831  0.14143  1.0000 0.1305932732
H   H62       1.0  0.24303  0.11354  0.01987  1.0000 0.1107922865
H   H63       1.0  0.24072  0.07784  0.77169  1.0000 0.1107922865
H   H64       1.0  0.25821  0.06413  0.65273  1.0000 0.1305932732
H   H65       1.0  0.12474  0.24837  0.62252  1.0000 0.1305932732
H   H66       1.0  0.11483  0.25668  0.74631  1.0000 0.1008258526
H   H67       1.0  0.44515  0.20464  0.17775  1.0000 0.1764098085
H   H68       1.0  0.21532  0.41990  0.49818  1.0000 0.1530306763
H   H69       1.0  0.25866  0.37701  0.97096  1.0000 0.1107922865
H   H70       1.0  0.26818  0.36395  0.09391  1.0000 0.1305932732
H   H71       1.0  0.44684  0.22360  0.06616  1.0000 0.1396129698
H   H72       1.0  0.43624  0.24420  0.94581  1.0000 0.1008258526
H   H73       1.0  0.38710  0.23506  0.69777  1.0000 0.1107922865
H   H74       1.0  0.37268  0.24350  0.57971  1.0000 0.1305932732
H   H75       1.0  0.25048  0.43054  0.60591  1.0000 0.1305932732
H   H76       1.0  0.26535  0.41898  0.72572  1.0000 0.1107922865
H   H77       1.0  0.32332  0.01452  0.90705  1.0000 0.121325538
H   H78       1.0  0.41309  0.91858  0.91647  1.0000 0.121325538
H   H79       1.0  0.57574  0.06109  0.84074  1.0000 0.1107922865
H   H80       1.0  0.48352  0.15341  0.83401  1.0000 0.121325538
H   H81       1.0  0.18352  0.49430  0.83259  1.0000 0.121325538
H   H82       1.0  0.09149  0.58785  0.81789  1.0000 0.121325538
H   H83       1.0  0.92589  0.44266  0.86852  1.0000 0.121325538
H   H84       1.0  0.01215  0.34628  0.86883  1.0000 0.1107922865
H   H85       1.0  0.54697  0.71892  0.22105  1.0000 0.1740121297
H   H86       1.0  0.79359  0.92205  0.53890  1.0000 0.1530306763
H   H87       1.0  0.58062  0.73561  0.99327  1.0000 0.1107922865
H   H88       1.0  0.56524  0.72103  0.11152  1.0000 0.1396129698
H   H89       1.0  0.73381  0.87169  0.14143  1.0000 0.1305932732
H   H90       1.0  0.74303  0.88646  0.01987  1.0000 0.1107922865
H   H91       1.0  0.74072  0.92216  0.77169  1.0000 0.1107922865
H   H92       1.0  0.75821  0.93587  0.65273  1.0000 0.1305932732
H   H93       1.0  0.62474  0.75163  0.62252  1.0000 0.1305932732
H   H94       1.0  0.61483  0.74332  0.74631  1.0000 0.1008258526
H   H95       1.0  0.94515  0.79536  0.17775  1.0000 0.1764098085
H   H96       1.0  0.71532  0.58010  0.49818  1.0000 0.1530306763
H   H97       1.0  0.75866  0.62299  0.97096  1.0000 0.1107922865
H   H98       1.0  0.76818  0.63605  0.09391  1.0000 0.1305932732
H   H99       1.0  0.94684  0.77640  0.06616  1.0000 0.1396129698
H   H100      1.0  0.93624  0.75580  0.94581  1.0000 0.1008258526
H   H101      1.0  0.88710  0.76494  0.69777  1.0000 0.1107922865
H   H102      1.0  0.87268  0.75650  0.57971  1.0000 0.1305932732
H   H103      1.0  0.75048  0.56946  0.60591  1.0000 0.1305932732
H   H104      1.0  0.76535  0.58102  0.72572  1.0000 0.1107922865
H   H105      1.0  0.82332  0.98548  0.90705  1.0000 0.121325538
H   H106      1.0  0.91309  0.08142  0.91647  1.0000 0.121325538
H   H107      1.0  0.07574  0.93891  0.84074  1.0000 0.1107922865
H   H108      1.0  0.98352  0.84659  0.83401  1.0000 0.121325538
H   H109      1.0  0.68352  0.50570  0.83259  1.0000 0.121325538
H   H110      1.0  0.59149  0.41215  0.81789  1.0000 0.121325538
H   H111      1.0  0.42589  0.55734  0.86852  1.0000 0.121325538
H   H112      1.0  0.51215  0.65372  0.86883  1.0000 0.1107922865
C   C1        1.0  0.13510  0.79060  0.78210  1.0000 -0.0204354527
C   C2        1.0  0.08090  0.74900  0.75200  1.0000 -0.2184051577
C   C3        1.0  0.15360  0.81270  0.65180  1.0000 -0.119505118
C   C4        1.0  0.17740  0.83560  0.58690  1.0000 -0.1104658176
C   C5        1.0  0.20300  0.85240  0.45170  1.0000 -0.0046051251
C   C6        1.0  0.25620  0.89480  0.48680  1.0000 -0.258039216
C   C7        1.0  0.11250  0.76440  0.97670  1.0000 0.0876542823
C   C8        1.0  0.10260  0.75510  0.90550  1.0000 -0.2002976063
C   C9        1.0  0.14660  0.79480  0.85930  1.0000 0.121325538
C   C10       1.0  0.20100  0.84380  0.88860  1.0000 -0.2184051577
C   C11       1.0  0.20720  0.85170  0.96160  1.0000 0.0876542823
C   C12       1.0  0.21730  0.88790  0.25990  1.0000 0.0522022523
C   C13       1.0  0.22770  0.89620  0.32940  1.0000 -0.1814952217
C   C14       1.0  0.19270  0.84540  0.37490  1.0000 0.1396129698
C   C15       1.0  0.14910  0.78710  0.34780  1.0000 -0.2304854537
C   C16       1.0  0.14310  0.78340  0.27380  1.0000 0.1396129698
C   C17       1.0  0.36360  0.71920  0.82730  1.0000 -0.0204354527
C   C18       1.0  0.41140  0.76510  0.79530  1.0000 -0.2107429863
C   C19       1.0  0.33710  0.70210  0.69430  1.0000 -0.119505118
C   C20       1.0  0.31190  0.68050  0.63200  1.0000 -0.1104658176
C   C21       1.0  0.29880  0.65890  0.49930  1.0000 -0.0204354527
C   C22       1.0  0.24670  0.61230  0.52920  1.0000 -0.2465214454
C   C23       1.0  0.29680  0.65430  0.00890  1.0000 0.1305932732
C   C24       1.0  0.30260  0.66300  0.93530  1.0000 -0.2304854537
C   C25       1.0  0.35630  0.70940  0.90370  1.0000 0.1305932732
C   C26       1.0  0.40760  0.74460  0.95130  1.0000 -0.2002976063
C   C27       1.0  0.40100  0.73310  0.02270  1.0000 0.0753212847
C   C28       1.0  0.35830  0.72410  0.32020  1.0000 0.0619587106
C   C29       1.0  0.34950  0.72000  0.39090  1.0000 -0.2107429863
C   C30       1.0  0.30590  0.66180  0.42130  1.0000 0.121325538
C   C31       1.0  0.27800  0.61110  0.37620  1.0000 -0.2002976063
C   C32       1.0  0.28830  0.61800  0.30330  1.0000 0.1008258526
C   C33       1.0  0.39690  0.90810  0.13220  1.0000 -0.0471848971
C   C34       1.0  0.37500  0.97710  0.10650  1.0000 -0.0994560856
C   C35       1.0  0.42810  0.03370  0.10060  1.0000 -0.119505118
C   C36       1.0  0.50590  0.02010  0.12030  1.0000 -0.0204354527
C   C37       1.0  0.52470  0.94950  0.14530  1.0000 -0.0994560856
C   C38       1.0  0.46950  0.89490  0.14980  1.0000 -0.0938661014
C   C39       1.0  0.34170  0.84750  0.13800  1.0000 0.5619588323
C   C40       1.0  0.56360  0.07930  0.11900  1.0000 0.5327721365
C   C41       1.0  0.10890  0.59070  0.15170  1.0000 -0.0938661014
C   C42       1.0  0.13070  0.51760  0.16350  1.0000 -0.0836170338
C   C43       1.0  0.07650  0.46140  0.16960  1.0000 -0.119505118
C   C44       1.0  0.00060  0.47790  0.15740  1.0000 0.0169388517
C   C45       1.0  0.97820  0.54770  0.14160  1.0000 -0.0994560856
C   C46       1.0  0.02930  0.60430  0.14010  1.0000 -0.0938661014
C   C47       1.0  0.15830  0.65160  0.14340  1.0000 0.5387629397
C   C48       1.0  0.94040  0.41500  0.16110  1.0000 0.5327721365
C   C49       1.0  0.63510  0.20940  0.78210  1.0000 -0.0204354527
C   C50       1.0  0.58090  0.25100  0.75200  1.0000 -0.2184051577
C   C51       1.0  0.65360  0.18730  0.65180  1.0000 -0.119505118
C   C52       1.0  0.67740  0.16440  0.58690  1.0000 -0.1104658176
C   C53       1.0  0.70300  0.14760  0.45170  1.0000 -0.0046051251
C   C54       1.0  0.75620  0.10520  0.48680  1.0000 -0.258039216
C   C55       1.0  0.61250  0.23560  0.97670  1.0000 0.0876542823
C   C56       1.0  0.60260  0.24490  0.90550  1.0000 -0.2002976063
C   C57       1.0  0.64660  0.20520  0.85930  1.0000 0.121325538
C   C58       1.0  0.70100  0.15620  0.88860  1.0000 -0.2184051577
C   C59       1.0  0.70720  0.14830  0.96160  1.0000 0.0876542823
C   C60       1.0  0.71730  0.11210  0.25990  1.0000 0.0522022523
C   C61       1.0  0.72770  0.10380  0.32940  1.0000 -0.1814952217
C   C62       1.0  0.69270  0.15460  0.37490  1.0000 0.1396129698
C   C63       1.0  0.64910  0.21290  0.34780  1.0000 -0.2304854537
C   C64       1.0  0.64310  0.21660  0.27380  1.0000 0.1396129698
C   C65       1.0  0.86360  0.28080  0.82730  1.0000 -0.0251539521
C   C66       1.0  0.91140  0.23490  0.79530  1.0000 -0.2107429863
C   C67       1.0  0.83710  0.29790  0.69430  1.0000 -0.119505118
C   C68       1.0  0.81190  0.31950  0.63200  1.0000 -0.1104658176
C   C69       1.0  0.79880  0.34110  0.49930  1.0000 -0.0204354527
C   C70       1.0  0.74670  0.38770  0.52920  1.0000 -0.2465214454
C   C71       1.0  0.79680  0.34570  0.00890  1.0000 0.1305932732
C   C72       1.0  0.80260  0.33700  0.93530  1.0000 -0.2304854537
C   C73       1.0  0.85630  0.29060  0.90370  1.0000 0.1305932732
C   C74       1.0  0.90760  0.25540  0.95130  1.0000 -0.2002976063
C   C75       1.0  0.90100  0.26690  0.02270  1.0000 0.0704385988
C   C76       1.0  0.85830  0.27590  0.32020  1.0000 0.0619587106
C   C77       1.0  0.84950  0.28000  0.39090  1.0000 -0.2107429863
C   C78       1.0  0.80590  0.33820  0.42130  1.0000 0.121325538
C   C79       1.0  0.77800  0.38890  0.37620  1.0000 -0.2002976063
C   C80       1.0  0.78830  0.38200  0.30330  1.0000 0.1008258526
C   C81       1.0  0.89690  0.09190  0.13220  1.0000 -0.0471848971
C   C82       1.0  0.87500  0.02290  0.10650  1.0000 -0.0994560856
C   C83       1.0  0.92810  0.96630  0.10060  1.0000 -0.119505118
C   C84       1.0  0.00590  0.97990  0.12030  1.0000 -0.0204354527
C   C85       1.0  0.02470  0.05050  0.14530  1.0000 -0.0994560856
C   C86       1.0  0.96950  0.10510  0.14980  1.0000 -0.0938661014
C   C87       1.0  0.84170  0.15250  0.13800  1.0000 0.5619588323
C   C88       1.0  0.06360  0.92070  0.11900  1.0000 0.5327721365
C   C89       1.0  0.60890  0.40930  0.15170  1.0000 -0.0938661014
C   C90       1.0  0.63070  0.48240  0.16350  1.0000 -0.0836170338
C   C91       1.0  0.57650  0.53860  0.16960  1.0000 -0.119505118
C   C92       1.0  0.50060  0.52210  0.15740  1.0000 0.0169388517
C   C93       1.0  0.47820  0.45230  0.14160  1.0000 -0.0994560856
C   C94       1.0  0.52930  0.39570  0.14010  1.0000 -0.0994560856
C   C95       1.0  0.65830  0.34840  0.14340  1.0000 0.5387629397
C   C96       1.0  0.44040  0.58500  0.16110  1.0000 0.5327721365
C   C97       1.0  0.13510  0.20940  0.21790  1.0000 -0.0204354527
C   C98       1.0  0.08090  0.25100  0.24800  1.0000 -0.2184051577
C   C99       1.0  0.15360  0.18730  0.34820  1.0000 -0.119505118
C   C100      1.0  0.17740  0.16440  0.41310  1.0000 -0.1104658176
C   C101      1.0  0.20300  0.14760  0.54830  1.0000 -0.0046051251
C   C102      1.0  0.25620  0.10520  0.51320  1.0000 -0.258039216
C   C103      1.0  0.11250  0.23560  0.02330  1.0000 0.0876542823
C   C104      1.0  0.10260  0.24490  0.09450  1.0000 -0.2002976063
C   C105      1.0  0.14660  0.20520  0.14070  1.0000 0.121325538
C   C106      1.0  0.20100  0.15620  0.11140  1.0000 -0.2184051577
C   C107      1.0  0.20720  0.14830  0.03840  1.0000 0.0876542823
C   C108      1.0  0.21730  0.11210  0.74010  1.0000 0.0522022523
C   C109      1.0  0.22770  0.10380  0.67060  1.0000 -0.1814952217
C   C110      1.0  0.19270  0.15460  0.62510  1.0000 0.1396129698
C   C111      1.0  0.14910  0.21290  0.65220  1.0000 -0.2304854537
C   C112      1.0  0.14310  0.21660  0.72620  1.0000 0.1396129698
C   C113      1.0  0.36360  0.28080  0.17270  1.0000 -0.0204354527
C   C114      1.0  0.41140  0.23490  0.20470  1.0000 -0.2107429863
C   C115      1.0  0.33710  0.29790  0.30570  1.0000 -0.119505118
C   C116      1.0  0.31190  0.31950  0.36800  1.0000 -0.1104658176
C   C117      1.0  0.29880  0.34110  0.50070  1.0000 -0.0204354527
C   C118      1.0  0.24670  0.38770  0.47080  1.0000 -0.2465214454
C   C119      1.0  0.29680  0.34570  0.99110  1.0000 0.1305932732
C   C120      1.0  0.30260  0.33700  0.06470  1.0000 -0.2304854537
C   C121      1.0  0.35630  0.29060  0.09630  1.0000 0.1305932732
C   C122      1.0  0.40760  0.25540  0.04870  1.0000 -0.2002976063
C   C123      1.0  0.40100  0.26690  0.97730  1.0000 0.0753212847
C   C124      1.0  0.35830  0.27590  0.67980  1.0000 0.0619587106
C   C125      1.0  0.34950  0.28000  0.60910  1.0000 -0.2107429863
C   C126      1.0  0.30590  0.33820  0.57870  1.0000 0.121325538
C   C127      1.0  0.27800  0.38890  0.62380  1.0000 -0.2002976063
C   C128      1.0  0.28830  0.38200  0.69670  1.0000 0.1008258526
C   C129      1.0  0.39690  0.09190  0.86780  1.0000 -0.0471848971
C   C130      1.0  0.37500  0.02290  0.89350  1.0000 -0.0994560856
C   C131      1.0  0.42810  0.96630  0.89940  1.0000 -0.119505118
C   C132      1.0  0.50590  0.97990  0.87970  1.0000 -0.0204354527
C   C133      1.0  0.52470  0.05050  0.85470  1.0000 -0.0994560856
C   C134      1.0  0.46950  0.10510  0.85020  1.0000 -0.0938661014
C   C135      1.0  0.34170  0.15250  0.86200  1.0000 0.5619588323
C   C136      1.0  0.56360  0.92070  0.88100  1.0000 0.5327721365
C   C137      1.0  0.10890  0.40930  0.84830  1.0000 -0.0938661014
C   C138      1.0  0.13070  0.48240  0.83650  1.0000 -0.0836170338
C   C139      1.0  0.07650  0.53860  0.83040  1.0000 -0.119505118
C   C140      1.0  0.00060  0.52210  0.84260  1.0000 0.0169388517
C   C141      1.0  0.97820  0.45230  0.85840  1.0000 -0.0994560856
C   C142      1.0  0.02930  0.39570  0.85990  1.0000 -0.0994560856
C   C143      1.0  0.15830  0.34840  0.85660  1.0000 0.5387629397
C   C144      1.0  0.94040  0.58500  0.83890  1.0000 0.5327721365
C   C145      1.0  0.63510  0.79060  0.21790  1.0000 -0.0204354527
C   C146      1.0  0.58090  0.74900  0.24800  1.0000 -0.2184051577
C   C147      1.0  0.65360  0.81270  0.34820  1.0000 -0.119505118
C   C148      1.0  0.67740  0.83560  0.41310  1.0000 -0.1104658176
C   C149      1.0  0.70300  0.85240  0.54830  1.0000 -0.0046051251
C   C150      1.0  0.75620  0.89480  0.51320  1.0000 -0.258039216
C   C151      1.0  0.61250  0.76440  0.02330  1.0000 0.0876542823
C   C152      1.0  0.60260  0.75510  0.09450  1.0000 -0.2002976063
C   C153      1.0  0.64660  0.79480  0.14070  1.0000 0.121325538
C   C154      1.0  0.70100  0.84380  0.11140  1.0000 -0.2184051577
C   C155      1.0  0.70720  0.85170  0.03840  1.0000 0.0876542823
C   C156      1.0  0.71730  0.88790  0.74010  1.0000 0.0522022523
C   C157      1.0  0.72770  0.89620  0.67060  1.0000 -0.1814952217
C   C158      1.0  0.69270  0.84540  0.62510  1.0000 0.1396129698
C   C159      1.0  0.64910  0.78710  0.65220  1.0000 -0.2304854537
C   C160      1.0  0.64310  0.78340  0.72620  1.0000 0.1396129698
C   C161      1.0  0.86360  0.71920  0.17270  1.0000 -0.0204354527
C   C162      1.0  0.91140  0.76510  0.20470  1.0000 -0.2107429863
C   C163      1.0  0.83710  0.70210  0.30570  1.0000 -0.119505118
C   C164      1.0  0.81190  0.68050  0.36800  1.0000 -0.1104658176
C   C165      1.0  0.79880  0.65890  0.50070  1.0000 -0.0204354527
C   C166      1.0  0.74670  0.61230  0.47080  1.0000 -0.2465214454
C   C167      1.0  0.79680  0.65430  0.99110  1.0000 0.1305932732
C   C168      1.0  0.80260  0.66300  0.06470  1.0000 -0.2304854537
C   C169      1.0  0.85630  0.70940  0.09630  1.0000 0.1305932732
C   C170      1.0  0.90760  0.74460  0.04870  1.0000 -0.2002976063
C   C171      1.0  0.90100  0.73310  0.97730  1.0000 0.0753212847
C   C172      1.0  0.85830  0.72410  0.67980  1.0000 0.0619587106
C   C173      1.0  0.84950  0.72000  0.60910  1.0000 -0.2107429863
C   C174      1.0  0.80590  0.66180  0.57870  1.0000 0.121325538
C   C175      1.0  0.77800  0.61110  0.62380  1.0000 -0.2002976063
C   C176      1.0  0.78830  0.61800  0.69670  1.0000 0.1008258526
C   C177      1.0  0.89690  0.90810  0.86780  1.0000 -0.0471848971
C   C178      1.0  0.87500  0.97710  0.89350  1.0000 -0.0994560856
C   C179      1.0  0.92810  0.03370  0.89940  1.0000 -0.119505118
C   C180      1.0  0.00590  0.02010  0.87970  1.0000 -0.0204354527
C   C181      1.0  0.02470  0.94950  0.85470  1.0000 -0.0994560856
C   C182      1.0  0.96950  0.89490  0.85020  1.0000 -0.0938661014
C   C183      1.0  0.84170  0.84750  0.86200  1.0000 0.5619588323
C   C184      1.0  0.06360  0.07930  0.88100  1.0000 0.5327721365
C   C185      1.0  0.60890  0.59070  0.84830  1.0000 -0.0938661014
C   C186      1.0  0.63070  0.51760  0.83650  1.0000 -0.0836170338
C   C187      1.0  0.57650  0.46140  0.83040  1.0000 -0.119505118
C   C188      1.0  0.50060  0.47790  0.84260  1.0000 0.0169388517
C   C189      1.0  0.47820  0.54770  0.85840  1.0000 -0.0994560856
C   C190      1.0  0.52930  0.60430  0.85990  1.0000 -0.0994560856
C   C191      1.0  0.65830  0.65160  0.85660  1.0000 0.5387629397
C   C192      1.0  0.44040  0.41500  0.83890  1.0000 0.5327721365
S   S1        1.0  0.19410  0.84620  0.72932  1.0000 0.0704385988
S   S2        1.0  0.07570  0.75290  0.66160  1.0000 0.1396129698
S   S3        1.0  0.25540  0.89860  0.57768  1.0000 0.121325538
S   S4        1.0  0.13700  0.80490  0.50827  1.0000 0.0619587106
S   S5        1.0  0.41280  0.77040  0.70460  1.0000 0.1107922865
S   S6        1.0  0.30230  0.66790  0.77233  1.0000 0.0876542823
S   S7        1.0  0.35290  0.71510  0.55113  1.0000 0.0619587106
S   S8        1.0  0.24070  0.61490  0.61990  1.0000 0.1396129698
S   S9        1.0  0.69410  0.15380  0.72932  1.0000 0.0704385988
S   S10       1.0  0.57570  0.24710  0.66160  1.0000 0.1396129698
S   S11       1.0  0.75540  0.10140  0.57768  1.0000 0.121325538
S   S12       1.0  0.63700  0.19510  0.50827  1.0000 0.0619587106
S   S13       1.0  0.91280  0.22960  0.70460  1.0000 0.1107922865
S   S14       1.0  0.80230  0.33210  0.77233  1.0000 0.0876542823
S   S15       1.0  0.85290  0.28490  0.55113  1.0000 0.0619587106
S   S16       1.0  0.74070  0.38510  0.61990  1.0000 0.1396129698
S   S17       1.0  0.19410  0.15380  0.27068  1.0000 0.0704385988
S   S18       1.0  0.07570  0.24710  0.33840  1.0000 0.1396129698
S   S19       1.0  0.25540  0.10140  0.42232  1.0000 0.121325538
S   S20       1.0  0.13700  0.19510  0.49173  1.0000 0.0619587106
S   S21       1.0  0.41280  0.22960  0.29540  1.0000 0.1107922865
S   S22       1.0  0.30230  0.33210  0.22767  1.0000 0.0876542823
S   S23       1.0  0.35290  0.28490  0.44887  1.0000 0.0619587106
S   S24       1.0  0.24070  0.38510  0.38010  1.0000 0.1305932732
S   S25       1.0  0.69410  0.84620  0.27068  1.0000 0.0704385988
S   S26       1.0  0.57570  0.75290  0.33840  1.0000 0.1396129698
S   S27       1.0  0.75540  0.89860  0.42232  1.0000 0.121325538
S   S28       1.0  0.63700  0.80490  0.49173  1.0000 0.0619587106
S   S29       1.0  0.91280  0.77040  0.29540  1.0000 0.1107922865
S   S30       1.0  0.80230  0.66790  0.22767  1.0000 0.0876542823
S   S31       1.0  0.85290  0.71510  0.44887  1.0000 0.0619587106
S   S32       1.0  0.74070  0.61490  0.38010  1.0000 0.1396129698
N   N1        1.0  0.16280  0.81040  0.00760  1.0000 -0.258039216
N   N2        1.0  0.17310  0.83010  0.23330  1.0000 -0.2304854537
N   N3        1.0  0.34440  0.68960  0.04780  1.0000 -0.2304854537
N   N4        1.0  0.32830  0.67300  0.27100  1.0000 -0.2776187383
N   N5        1.0  0.66280  0.18960  0.00760  1.0000 -0.258039216
N   N6        1.0  0.67310  0.16990  0.23330  1.0000 -0.2304854537
N   N7        1.0  0.84440  0.31040  0.04780  1.0000 -0.2304854537
N   N8        1.0  0.82830  0.32700  0.27100  1.0000 -0.2776187383
N   N9        1.0  0.16280  0.18960  0.99240  1.0000 -0.258039216
N   N10       1.0  0.17310  0.16990  0.76670  1.0000 -0.2304854537
N   N11       1.0  0.34440  0.31040  0.95220  1.0000 -0.2304854537
N   N12       1.0  0.32830  0.32700  0.72900  1.0000 -0.2776187383
N   N13       1.0  0.66280  0.81040  0.99240  1.0000 -0.258039216
N   N14       1.0  0.67310  0.83010  0.76670  1.0000 -0.2304854537
N   N15       1.0  0.84440  0.68960  0.95220  1.0000 -0.2304854537
N   N16       1.0  0.82830  0.67300  0.72900  1.0000 -0.2776187383
O   O1        1.0  0.27620  0.85470  0.10640  1.0000 -0.5694324993
O   O2        1.0  0.35890  0.78860  0.17190  1.0000 -0.5594532512
O   O3        1.0  0.54460  0.14860  0.11940  1.0000 -0.5594532512
O   O4        1.0  0.63400  0.06330  0.11650  1.0000 -0.5167117738
O   O5        1.0  0.13580  0.71570  0.12760  1.0000 -0.5401141964
O   O6        1.0  0.23010  0.64090  0.15700  1.0000 -0.5594532512
O   O7        1.0  0.87160  0.43500  0.15980  1.0000 -0.5167117738
O   O8        1.0  0.96040  0.34940  0.16580  1.0000 -0.5266522192
O   O9        1.0  0.77620  0.14530  0.10640  1.0000 -0.5694324993
O   O10       1.0  0.85890  0.21140  0.17190  1.0000 -0.5594532512
O   O11       1.0  0.04460  0.85140  0.11940  1.0000 -0.5594532512
O   O12       1.0  0.13400  0.93670  0.11650  1.0000 -0.5167117738
O   O13       1.0  0.63580  0.28430  0.12760  1.0000 -0.5401141964
O   O14       1.0  0.73010  0.35910  0.15700  1.0000 -0.5594532512
O   O15       1.0  0.37160  0.56500  0.15980  1.0000 -0.5167117738
O   O16       1.0  0.46040  0.65060  0.16580  1.0000 -0.5266522192
O   O17       1.0  0.27620  0.14530  0.89360  1.0000 -0.5694324993
O   O18       1.0  0.35890  0.21140  0.82810  1.0000 -0.5594532512
O   O19       1.0  0.54460  0.85140  0.88060  1.0000 -0.5594532512
O   O20       1.0  0.63400  0.93670  0.88350  1.0000 -0.5167117738
O   O21       1.0  0.13580  0.28430  0.87240  1.0000 -0.5401141964
O   O22       1.0  0.23010  0.35910  0.84300  1.0000 -0.5594532512
O   O23       1.0  0.87160  0.56500  0.84020  1.0000 -0.5167117738
O   O24       1.0  0.96040  0.65060  0.83420  1.0000 -0.5266522192
O   O25       1.0  0.77620  0.85470  0.89360  1.0000 -0.5694324993
O   O26       1.0  0.85890  0.78860  0.82810  1.0000 -0.5594532512
O   O27       1.0  0.04460  0.14860  0.88060  1.0000 -0.5594532512
O   O28       1.0  0.13400  0.06330  0.88350  1.0000 -0.5167117738
O   O29       1.0  0.63580  0.71570  0.87240  1.0000 -0.5401141964
O   O30       1.0  0.73010  0.64090  0.84300  1.0000 -0.5594532512
O   O31       1.0  0.37160  0.43500  0.84020  1.0000 -0.5167117738
O   O32       1.0  0.46040  0.34940  0.83420  1.0000 -0.5266522192
