# DDEC6 charges by PACMAN v1.1 (https://github.com/mtap-research/PACMAN-charge/)
data_2021[Co][scu]3[FSR]1
_chemical_formula_sum              "Co4 H12 C24 N8 O16"
_cell_length_a       7.4004
_cell_length_b       7.8438
_cell_length_c       13.606
_cell_angle_alpha    102.841
_cell_angle_beta     97.755
_cell_angle_gamma    88.43

_symmetry_space_group_name_H-M    "P 1"
_symmetry_Int_Tables_number       1

loop_
  _symmetry_equiv_pos_as_xyz
  'x, y, z'

loop_
  _atom_site_type_symbol
  _atom_site_label
  _atom_site_symmetry_multiplicity
  _atom_site_fract_x
  _atom_site_fract_y
  _atom_site_fract_z
  _atom_site_occupancy
  _atom_site_charge
Co  Co1       1.0  0.97276  0.97254  0.38257  1.0000 0.9322983859
Co  Co2       1.0  0.54365  0.82860  0.28194  1.0000 0.9153347848
Co  Co3       1.0  0.02724  0.02746  0.61743  1.0000 0.9322983859
Co  Co4       1.0  0.45635  0.17140  0.71806  1.0000 0.9153347848
H   H1        1.0  0.61970  0.43430  0.23570  1.0000 0.3061790255
H   H2        1.0  0.29070  0.11670  0.20700  1.0000 0.3268439708
H   H3        1.0  0.31120  0.29730  0.19200  1.0000 0.3184434561
H   H4        1.0  0.81180  0.48780  0.53600  1.0000 0.1314015886
H   H5        1.0  0.30330  0.47670  0.97970  1.0000 0.1378114012
H   H6        1.0  0.91860  0.35510  0.30860  1.0000 0.1314015886
H   H7        1.0  0.38030  0.56570  0.76430  1.0000 0.3061790255
H   H8        1.0  0.70930  0.88330  0.79300  1.0000 0.3268439708
H   H9        1.0  0.68880  0.70270  0.80800  1.0000 0.3184434561
H   H10       1.0  0.18820  0.51220  0.46400  1.0000 0.1314015886
H   H11       1.0  0.69670  0.52330  0.02030  1.0000 0.1378114012
H   H12       1.0  0.08140  0.64490  0.69140  1.0000 0.1314015886
C   C1        1.0  0.31050  0.79710  0.43790  1.0000 0.6058537302
C   C2        1.0  0.74390  0.77950  0.49140  1.0000 0.6175938187
C   C3        1.0  0.60910  0.64230  0.49160  1.0000 -0.0470936472
C   C4        1.0  0.41640  0.65050  0.47070  1.0000 -0.0470936472
C   C5        1.0  0.68560  0.49240  0.52110  1.0000 -0.1300228226
C   C6        1.0  0.88370  0.69870  0.18760  1.0000 0.589129859
C   C7        1.0  0.94580  0.59240  0.09120  1.0000 -0.0392363655
C   C8        1.0  0.13240  0.58210  0.07920  1.0000 -0.0142236963
C   C9        1.0  0.28080  0.66300  0.16050  1.0000 0.5732359228
C   C10       1.0  0.18040  0.48700  0.98780  1.0000 -0.1300228226
C   C11       1.0  0.81300  0.28770  0.29470  1.0000 0.1545573858
C   C12       1.0  0.53260  0.20570  0.24840  1.0000 0.5133711932
C   C13       1.0  0.68950  0.20290  0.56210  1.0000 0.6058537302
C   C14       1.0  0.25610  0.22050  0.50860  1.0000 0.6175938187
C   C15       1.0  0.39090  0.35770  0.50840  1.0000 -0.0470936472
C   C16       1.0  0.58360  0.34950  0.52930  1.0000 -0.0470936472
C   C17       1.0  0.31440  0.50760  0.47890  1.0000 -0.1300228226
C   C18       1.0  0.11630  0.30130  0.81240  1.0000 0.589129859
C   C19       1.0  0.05420  0.40760  0.90880  1.0000 -0.0392363655
C   C20       1.0  0.86760  0.41790  0.92080  1.0000 -0.0142236963
C   C21       1.0  0.71920  0.33700  0.83950  1.0000 0.5732359228
C   C22       1.0  0.81960  0.51300  0.01220  1.0000 -0.1300228226
C   C23       1.0  0.18700  0.71230  0.70530  1.0000 0.1545573858
C   C24       1.0  0.46740  0.79430  0.75160  1.0000 0.5133711932
N   N1        1.0  0.80080  0.13310  0.31080  1.0000 -0.215561791
N   N2        1.0  0.62160  0.07930  0.28070  1.0000 -0.341707951
N   N3        1.0  0.64610  0.33750  0.25400  1.0000 -0.3188716533
N   N4        1.0  0.35770  0.20670  0.21150  1.0000 -0.5859460297
N   N5        1.0  0.19920  0.86690  0.68920  1.0000 -0.215561791
N   N6        1.0  0.37840  0.92070  0.71930  1.0000 -0.341707951
N   N7        1.0  0.35390  0.66250  0.74600  1.0000 -0.3188716533
N   N8        1.0  0.64230  0.79330  0.78850  1.0000 -0.5859460297
O   O1        1.0  0.14940  0.81950  0.45900  1.0000 -0.5638596477
O   O2        1.0  0.38370  0.89240  0.39020  1.0000 -0.5421207609
O   O3        1.0  0.85370  0.82120  0.57140  1.0000 -0.5204355779
O   O4        1.0  0.75400  0.83440  0.41150  1.0000 -0.5825598898
O   O5        1.0  0.99460  0.79850  0.24870  1.0000 -0.4985823097
O   O6        1.0  0.33990  0.81230  0.15970  1.0000 -0.5421207609
O   O7        1.0  0.35340  0.57710  0.22230  1.0000 -0.5638596477
O   O8        1.0  0.71790  0.67620  0.19810  1.0000 -0.5701370897
O   O9        1.0  0.85060  0.18050  0.54100  1.0000 -0.5638596477
O   O10       1.0  0.61630  0.10760  0.60980  1.0000 -0.5421207609
O   O11       1.0  0.14630  0.17880  0.42860  1.0000 -0.5204355779
O   O12       1.0  0.24600  0.16560  0.58850  1.0000 -0.5825598898
O   O13       1.0  0.00540  0.20150  0.75130  1.0000 -0.4985823097
O   O14       1.0  0.66010  0.18770  0.84030  1.0000 -0.5421207609
O   O15       1.0  0.64660  0.42290  0.77770  1.0000 -0.5638596477
O   O16       1.0  0.28210  0.32380  0.80190  1.0000 -0.5701370897
