# DDEC6 charges by PACMAN v1.1 (https://github.com/mtap-research/PACMAN-charge/)
data_2021[V][nan]3[FSR]8
_chemical_formula_sum              "V4 H12 C32 O20"
_cell_length_a       12.242
_cell_length_b       12.242
_cell_length_c       12.242
_cell_angle_alpha    103.967
_cell_angle_beta     103.967
_cell_angle_gamma    121.149

_symmetry_space_group_name_H-M    "P 1"
_symmetry_Int_Tables_number       1

loop_
  _symmetry_equiv_pos_as_xyz
  'x, y, z'

loop_
  _atom_site_type_symbol
  _atom_site_label
  _atom_site_symmetry_multiplicity
  _atom_site_fract_x
  _atom_site_fract_y
  _atom_site_fract_z
  _atom_site_occupancy
  _atom_site_charge
V   V1        1.0  0.69502  0.69502  0.39004  1.0000 1.8521000883
V   V2        1.0  0.30498  0.30498  0.60996  1.0000 1.8521000883
V   V3        1.0  0.94502  0.05498  0.50000  1.0000 1.8521000883
V   V4        1.0  0.55498  0.44502  0.50000  1.0000 1.8521000883
H   H1        1.0  0.98107  0.03351  0.17964  1.0000 0.1374991155
H   H2        1.0  0.85387  0.80143  0.82036  1.0000 0.1374991155
H   H3        1.0  0.28351  0.60387  0.55244  1.0000 0.1374991155
H   H4        1.0  0.05143  0.73107  0.44756  1.0000 0.1374991155
H   H5        1.0  0.26893  0.94857  0.55244  1.0000 0.1374991155
H   H6        1.0  0.39613  0.71649  0.44756  1.0000 0.1374991155
H   H7        1.0  0.96649  0.01893  0.82036  1.0000 0.1374991155
H   H8        1.0  0.19857  0.14613  0.17964  1.0000 0.1374991155
H   H9        1.0  0.62739  0.62739  0.00000  1.0000 0.1465994745
H   H10       1.0  0.87739  0.37739  0.50000  1.0000 0.1465994745
H   H11       1.0  0.62261  0.12261  0.50000  1.0000 0.1465994745
H   H12       1.0  0.37261  0.37261  0.00000  1.0000 0.1465994745
C   C1        1.0  0.91770  0.94770  0.10740  1.0000 -0.1233664145
C   C2        1.0  0.80390  0.83100  0.10950  1.0000 -0.0158705691
C   C3        1.0  0.79410  0.84370  0.23040  1.0000 0.6243579528
C   C4        1.0  0.84030  0.81030  0.89260  1.0000 -0.1233664145
C   C5        1.0  0.72150  0.69440  0.89050  1.0000 -0.0158705691
C   C6        1.0  0.61330  0.56370  0.76960  1.0000 0.6243579528
C   C7        1.0  0.19770  0.59030  0.53000  1.0000 -0.1233664145
C   C8        1.0  0.08100  0.47150  0.52710  1.0000 -0.0158705691
C   C9        1.0  0.09370  0.36330  0.54960  1.0000 0.6243579528
C   C10       1.0  0.06030  0.66770  0.47000  1.0000 -0.1233664145
C   C11       1.0  0.94440  0.55390  0.47290  1.0000 -0.0146682643
C   C12       1.0  0.81370  0.54410  0.45040  1.0000 0.6243579528
C   C13       1.0  0.33230  0.93970  0.53000  1.0000 -0.1233664145
C   C14       1.0  0.44610  0.05560  0.52710  1.0000 -0.0158705691
C   C15       1.0  0.45590  0.18630  0.54960  1.0000 0.6243579528
C   C16       1.0  0.40970  0.80230  0.47000  1.0000 -0.1233664145
C   C17       1.0  0.52850  0.91900  0.47290  1.0000 -0.0158705691
C   C18       1.0  0.63670  0.90630  0.45040  1.0000 0.6243579528
C   C19       1.0  0.05230  0.08230  0.89260  1.0000 -0.1233664145
C   C20       1.0  0.16900  0.19610  0.89050  1.0000 -0.0158705691
C   C21       1.0  0.15630  0.20590  0.76960  1.0000 0.6243579528
C   C22       1.0  0.18970  0.15970  0.10740  1.0000 -0.1233664145
C   C23       1.0  0.30560  0.27850  0.10950  1.0000 -0.0158705691
C   C24       1.0  0.43630  0.38670  0.23040  1.0000 0.6243579528
C   C25       1.0  0.93770  0.93770  0.00000  1.0000 0.0644905559
C   C26       1.0  0.70470  0.70470  0.00000  1.0000 -0.0891743497
C   C27       1.0  0.18770  0.68770  0.50000  1.0000 0.0644905559
C   C28       1.0  0.95470  0.45470  0.50000  1.0000 -0.0891743497
C   C29       1.0  0.31230  0.81230  0.50000  1.0000 0.0644905559
C   C30       1.0  0.54530  0.04530  0.50000  1.0000 -0.0891743497
C   C31       1.0  0.06230  0.06230  0.00000  1.0000 0.0644905559
C   C32       1.0  0.29530  0.29530  0.00000  1.0000 -0.0891743497
O   O1        1.0  0.85890  0.97000  0.31490  1.0000 -0.5838430234
O   O2        1.0  0.72710  0.72990  0.24180  1.0000 -0.5544624188
O   O3        1.0  0.65510  0.54400  0.68510  1.0000 -0.5838430234
O   O4        1.0  0.48810  0.48530  0.75820  1.0000 -0.5544624188
O   O5        1.0  0.22000  0.40510  0.61110  1.0000 -0.5838430234
O   O6        1.0  0.97990  0.23810  0.50280  1.0000 -0.5544624188
O   O7        1.0  0.79400  0.60890  0.38890  1.0000 -0.5838430234
O   O8        1.0  0.73530  0.47710  0.49720  1.0000 -0.5552521207
O   O9        1.0  0.39110  0.20600  0.61110  1.0000 -0.5838430234
O   O10       1.0  0.52290  0.26470  0.50280  1.0000 -0.5552521207
O   O11       1.0  0.59490  0.78000  0.38890  1.0000 -0.5838430234
O   O12       1.0  0.76190  0.02010  0.49720  1.0000 -0.5544624188
O   O13       1.0  0.03000  0.14110  0.68510  1.0000 -0.5838430234
O   O14       1.0  0.27010  0.27290  0.75820  1.0000 -0.5552521207
O   O15       1.0  0.45600  0.34490  0.31490  1.0000 -0.5838430234
O   O16       1.0  0.51470  0.51190  0.24180  1.0000 -0.5544624188
O   O17       1.0  0.86910  0.87500  0.49410  1.0000 -0.9423533538
O   O18       1.0  0.38090  0.37500  0.50590  1.0000 -0.9423533538
O   O19       1.0  0.12500  0.13090  0.50590  1.0000 -0.9423533538
O   O20       1.0  0.62500  0.61910  0.49410  1.0000 -0.9423533538
