# DDEC6 charges by PACMAN v1.1 (https://github.com/mtap-research/PACMAN-charge/)
data_2021[Al][nan]3[FSR]9
_chemical_formula_sum              "Al8 H24 C40 N16 O40"
_cell_length_a       12.287
_cell_length_b       14.697
_cell_length_c       14.11
_cell_angle_alpha    90
_cell_angle_beta     101.809
_cell_angle_gamma    90

_symmetry_space_group_name_H-M    "P 1"
_symmetry_Int_Tables_number       1

loop_
  _symmetry_equiv_pos_as_xyz
  'x, y, z'

loop_
  _atom_site_type_symbol
  _atom_site_label
  _atom_site_symmetry_multiplicity
  _atom_site_fract_x
  _atom_site_fract_y
  _atom_site_fract_z
  _atom_site_occupancy
  _atom_site_charge
Al  Al1       1.0  0.73662  0.56159  0.44129  1.0000 1.6143165779
Al  Al2       1.0  0.26338  0.06159  0.05871  1.0000 1.6154415162
Al  Al3       1.0  0.26338  0.43841  0.55871  1.0000 1.6154415162
Al  Al4       1.0  0.73662  0.93841  0.94129  1.0000 1.6154415162
Al  Al5       1.0  0.00000  0.50000  0.50000  1.0000 1.6323426119
Al  Al6       1.0  0.00000  0.00000  0.00000  1.0000 1.6359574747
Al  Al7       1.0  0.50000  0.50000  0.50000  1.0000 1.6323426119
Al  Al8       1.0  0.50000  0.00000  0.00000  1.0000 1.6323426119
H   H1        1.0  0.68750  0.51432  0.58949  1.0000 0.4299676035
H   H2        1.0  0.82825  0.42301  0.49936  1.0000 0.4299676035
H   H3        1.0  0.28466  0.86662  0.27732  1.0000 0.2793118608
H   H4        1.0  0.90916  0.26177  0.85900  1.0000 0.2793118608
H   H5        1.0  0.58345  0.79336  0.25128  1.0000 0.1727767073
H   H6        1.0  0.21364  0.27457  0.81508  1.0000 0.1727767073
H   H7        1.0  0.31250  0.01432  0.91051  1.0000 0.4299676035
H   H8        1.0  0.17175  0.92301  0.00064  1.0000 0.4299676035
H   H9        1.0  0.71534  0.36662  0.22268  1.0000 0.2793118608
H   H10       1.0  0.09084  0.76177  0.64100  1.0000 0.2793118608
H   H11       1.0  0.41655  0.29336  0.24872  1.0000 0.1727767073
H   H12       1.0  0.78636  0.77457  0.68492  1.0000 0.1727767073
H   H13       1.0  0.31250  0.48568  0.41051  1.0000 0.4299676035
H   H14       1.0  0.17175  0.57699  0.50064  1.0000 0.4299676035
H   H15       1.0  0.71534  0.13338  0.72268  1.0000 0.2793118608
H   H16       1.0  0.09084  0.73823  0.14100  1.0000 0.2793118608
H   H17       1.0  0.41655  0.20664  0.74872  1.0000 0.1727767073
H   H18       1.0  0.78636  0.72543  0.18492  1.0000 0.1727767073
H   H19       1.0  0.68750  0.98568  0.08949  1.0000 0.4299676035
H   H20       1.0  0.82825  0.07699  0.99936  1.0000 0.4299676035
H   H21       1.0  0.28466  0.63338  0.77732  1.0000 0.2793118608
H   H22       1.0  0.90916  0.23823  0.35900  1.0000 0.2793118608
H   H23       1.0  0.58345  0.70664  0.75128  1.0000 0.1727767073
H   H24       1.0  0.21364  0.22543  0.31508  1.0000 0.1727767073
C   C1        1.0  0.41647  0.92855  0.16393  1.0000 0.5996209857
C   C2        1.0  0.52929  0.66187  0.38871  1.0000 0.6178557527
C   C3        1.0  0.09228  0.39969  0.67115  1.0000 0.6178557527
C   C4        1.0  0.47434  0.74091  0.33515  1.0000 0.0265893585
C   C5        1.0  0.09370  0.16671  0.93320  1.0000 0.5996209857
C   C6        1.0  0.51418  0.79643  0.26963  1.0000 -0.2327826444
C   C7        1.0  0.06906  0.24311  0.86454  1.0000 0.0265893585
C   C8        1.0  0.06708  0.34415  0.75084  1.0000 0.0265893585
C   C9        1.0  0.13730  0.28438  0.81142  1.0000 -0.2327826444
C   C10       1.0  0.42882  0.85669  0.23802  1.0000 0.0195209671
C   C11       1.0  0.58353  0.42855  0.33607  1.0000 0.5996209857
C   C12       1.0  0.47071  0.16187  0.11129  1.0000 0.6178557527
C   C13       1.0  0.90772  0.89969  0.82885  1.0000 0.6178557527
C   C14       1.0  0.52566  0.24091  0.16485  1.0000 0.0265893585
C   C15       1.0  0.90630  0.66667  0.56680  1.0000 0.5996209857
C   C16       1.0  0.48582  0.29643  0.23037  1.0000 -0.2327826444
C   C17       1.0  0.93094  0.74311  0.63546  1.0000 0.0265893585
C   C18       1.0  0.93292  0.84415  0.74916  1.0000 0.0265893585
C   C19       1.0  0.86270  0.78438  0.68858  1.0000 -0.2327826444
C   C20       1.0  0.57118  0.35669  0.26198  1.0000 0.0195209671
C   C21       1.0  0.58353  0.07145  0.83607  1.0000 0.5996209857
C   C22       1.0  0.47071  0.33813  0.61129  1.0000 0.6178557527
C   C23       1.0  0.90772  0.60031  0.32885  1.0000 0.6178557527
C   C24       1.0  0.52566  0.25909  0.66485  1.0000 0.0265893585
C   C25       1.0  0.90630  0.83329  0.06680  1.0000 0.5996209857
C   C26       1.0  0.48582  0.20357  0.73037  1.0000 -0.2327826444
C   C27       1.0  0.93094  0.75689  0.13546  1.0000 0.0265893585
C   C28       1.0  0.93292  0.65585  0.24916  1.0000 0.0265893585
C   C29       1.0  0.86270  0.71562  0.18858  1.0000 -0.2327826444
C   C30       1.0  0.57118  0.14331  0.76198  1.0000 0.0195209671
C   C31       1.0  0.41647  0.57145  0.66393  1.0000 0.5996209857
C   C32       1.0  0.52929  0.83813  0.88871  1.0000 0.6178557527
C   C33       1.0  0.09228  0.10031  0.17115  1.0000 0.6178557527
C   C34       1.0  0.47434  0.75909  0.83515  1.0000 0.0265893585
C   C35       1.0  0.09370  0.33329  0.43320  1.0000 0.5996209857
C   C36       1.0  0.51418  0.70357  0.76963  1.0000 -0.2327826444
C   C37       1.0  0.06906  0.25689  0.36454  1.0000 0.0265893585
C   C38       1.0  0.06708  0.15585  0.25084  1.0000 0.0265893585
C   C39       1.0  0.13730  0.21562  0.31142  1.0000 -0.2327826444
C   C40       1.0  0.42882  0.64331  0.73802  1.0000 0.0195209671
N   N1        1.0  0.37156  0.76567  0.34354  1.0000 -0.1904357161
N   N2        1.0  0.34684  0.83658  0.28476  1.0000 -0.0631485242
N   N3        1.0  0.96650  0.27827  0.83578  1.0000 -0.0670275513
N   N4        1.0  0.96329  0.34138  0.76748  1.0000 -0.1904357161
N   N5        1.0  0.62844  0.26567  0.15646  1.0000 -0.1904357161
N   N6        1.0  0.65316  0.33658  0.21524  1.0000 -0.0631485242
N   N7        1.0  0.03350  0.77827  0.66422  1.0000 -0.0670275513
N   N8        1.0  0.03671  0.84138  0.73252  1.0000 -0.1904357161
N   N9        1.0  0.62844  0.23433  0.65646  1.0000 -0.1904357161
N   N10       1.0  0.65316  0.16342  0.71524  1.0000 -0.0631485242
N   N11       1.0  0.03350  0.72173  0.16422  1.0000 -0.0631485242
N   N12       1.0  0.03671  0.65862  0.23252  1.0000 -0.1904357161
N   N13       1.0  0.37156  0.73433  0.84354  1.0000 -0.1904357161
N   N14       1.0  0.34684  0.66342  0.78476  1.0000 -0.0631485242
N   N15       1.0  0.96650  0.22173  0.33578  1.0000 -0.0670275513
N   N16       1.0  0.96329  0.15862  0.26748  1.0000 -0.1904357161
O   O1        1.0  0.65009  0.52327  0.52508  1.0000 -1.0180154093
O   O2        1.0  0.18780  0.38979  0.65384  1.0000 -0.5605950552
O   O3        1.0  0.84993  0.48155  0.48375  1.0000 -1.0143126297
O   O4        1.0  0.33214  0.97865  0.15664  1.0000 -0.5861359287
O   O5        1.0  0.01574  0.44864  0.62527  1.0000 -0.569670682
O   O6        1.0  0.63083  0.65253  0.38853  1.0000 -0.5605950552
O   O7        1.0  0.19456  0.15386  0.97017  1.0000 -0.5605950552
O   O8        1.0  0.47006  0.60947  0.42709  1.0000 -0.569670682
O   O9        1.0  0.01268  0.12017  0.94697  1.0000 -0.5838349339
O   O10       1.0  0.48990  0.93261  0.11442  1.0000 -0.5475673574
O   O11       1.0  0.34991  0.02327  0.97492  1.0000 -1.0180154093
O   O12       1.0  0.81220  0.88979  0.84616  1.0000 -0.5605950552
O   O13       1.0  0.15007  0.98155  0.01625  1.0000 -1.0180154093
O   O14       1.0  0.66786  0.47865  0.34336  1.0000 -0.5838349339
O   O15       1.0  0.98426  0.94864  0.87473  1.0000 -0.569670682
O   O16       1.0  0.36917  0.15253  0.11147  1.0000 -0.5605950552
O   O17       1.0  0.80544  0.65386  0.52983  1.0000 -0.5605950552
O   O18       1.0  0.52994  0.10947  0.07291  1.0000 -0.569670682
O   O19       1.0  0.98732  0.62017  0.55303  1.0000 -0.5838349339
O   O20       1.0  0.51010  0.43261  0.38558  1.0000 -0.5475673574
O   O21       1.0  0.34991  0.47673  0.47492  1.0000 -1.0180154093
O   O22       1.0  0.81220  0.61021  0.34616  1.0000 -0.5605950552
O   O23       1.0  0.15007  0.51845  0.51625  1.0000 -1.0143126297
O   O24       1.0  0.66786  0.02135  0.84336  1.0000 -0.5838349339
O   O25       1.0  0.98426  0.55136  0.37473  1.0000 -0.569670682
O   O26       1.0  0.36917  0.34747  0.61147  1.0000 -0.5605950552
O   O27       1.0  0.80544  0.84614  0.02983  1.0000 -0.5605950552
O   O28       1.0  0.52994  0.39053  0.57291  1.0000 -0.569670682
O   O29       1.0  0.98732  0.87983  0.05303  1.0000 -0.5838349339
O   O30       1.0  0.51010  0.06739  0.88558  1.0000 -0.5475673574
O   O31       1.0  0.65009  0.97673  0.02508  1.0000 -1.0180154093
O   O32       1.0  0.18780  0.11021  0.15384  1.0000 -0.5605950552
O   O33       1.0  0.84993  0.01845  0.98375  1.0000 -1.0180154093
O   O34       1.0  0.33214  0.52135  0.65664  1.0000 -0.5838349339
O   O35       1.0  0.01574  0.05136  0.12527  1.0000 -0.569670682
O   O36       1.0  0.63083  0.84747  0.88853  1.0000 -0.5605950552
O   O37       1.0  0.19456  0.34614  0.47017  1.0000 -0.5605950552
O   O38       1.0  0.47006  0.89053  0.92709  1.0000 -0.569670682
O   O39       1.0  0.01268  0.37983  0.44697  1.0000 -0.5838349339
O   O40       1.0  0.48990  0.56739  0.61442  1.0000 -0.5475673574
