# DDEC6 charges by PACMAN v1.1 (https://github.com/mtap-research/PACMAN-charge/)
data_2022[Cu][tbo]3[FSR]10
_chemical_formula_sum              "Cu12 H48 C72 O60"
_cell_length_a       18.5333
_cell_length_b       18.5333
_cell_length_c       18.5333
_cell_angle_alpha    60
_cell_angle_beta     60
_cell_angle_gamma    60

_symmetry_space_group_name_H-M    "P 1"
_symmetry_Int_Tables_number       1

loop_
  _symmetry_equiv_pos_as_xyz
  'x, y, z'

loop_
  _atom_site_type_symbol
  _atom_site_label
  _atom_site_symmetry_multiplicity
  _atom_site_fract_x
  _atom_site_fract_y
  _atom_site_fract_z
  _atom_site_occupancy
  _atom_site_charge
Cu  Cu1       1.0  0.57080  0.42920  0.00000  1.0000 0.8545316381
Cu  Cu2       1.0  0.42920  0.57080  0.00000  1.0000 0.8571343279
Cu  Cu3       1.0  0.00000  0.00000  0.57080  1.0000 0.8571343279
Cu  Cu4       1.0  0.00000  0.00000  0.42920  1.0000 0.8545316381
Cu  Cu5       1.0  0.00000  0.57080  0.42920  1.0000 0.8545316381
Cu  Cu6       1.0  0.00000  0.42920  0.57080  1.0000 0.8571343279
Cu  Cu7       1.0  0.57080  0.00000  0.00000  1.0000 0.8545316381
Cu  Cu8       1.0  0.42920  0.00000  0.00000  1.0000 0.8545316381
Cu  Cu9       1.0  0.42920  0.00000  0.57080  1.0000 0.8545316381
Cu  Cu10      1.0  0.57080  0.00000  0.42920  1.0000 0.8545316381
Cu  Cu11      1.0  0.00000  0.57080  0.00000  1.0000 0.8545316381
Cu  Cu12      1.0  0.00000  0.42920  0.00000  1.0000 0.8545316381
H   H1        1.0  0.51326  0.72934  0.02806  1.0000 0.1298531374
H   H2        1.0  0.72934  0.51326  0.72934  1.0000 0.1298531374
H   H3        1.0  0.02806  0.72934  0.51326  1.0000 0.1298531374
H   H4        1.0  0.72934  0.02806  0.72934  1.0000 0.1298531374
H   H5        1.0  0.02806  0.51326  0.72934  1.0000 0.1298531374
H   H6        1.0  0.72934  0.72934  0.51326  1.0000 0.1298531374
H   H7        1.0  0.51326  0.02806  0.72934  1.0000 0.1298531374
H   H8        1.0  0.72934  0.72934  0.02806  1.0000 0.1298531374
H   H9        1.0  0.72934  0.02806  0.51326  1.0000 0.1298531374
H   H10       1.0  0.51326  0.72934  0.72934  1.0000 0.1298531374
H   H11       1.0  0.72934  0.51326  0.02806  1.0000 0.1298531374
H   H12       1.0  0.02806  0.72934  0.72934  1.0000 0.1298531374
H   H13       1.0  0.48674  0.27066  0.27066  1.0000 0.1298531374
H   H14       1.0  0.27066  0.48674  0.97194  1.0000 0.1298531374
H   H15       1.0  0.97194  0.27066  0.27066  1.0000 0.1298531374
H   H16       1.0  0.27066  0.97194  0.48674  1.0000 0.1298531374
H   H17       1.0  0.97194  0.48674  0.27066  1.0000 0.1298531374
H   H18       1.0  0.27066  0.27066  0.97194  1.0000 0.1298531374
H   H19       1.0  0.48674  0.97194  0.27066  1.0000 0.1298531374
H   H20       1.0  0.27066  0.27066  0.48674  1.0000 0.1298531374
H   H21       1.0  0.27066  0.97194  0.27066  1.0000 0.1298531374
H   H22       1.0  0.48674  0.27066  0.97194  1.0000 0.1298531374
H   H23       1.0  0.27066  0.48674  0.27066  1.0000 0.1298531374
H   H24       1.0  0.97194  0.27066  0.48674  1.0000 0.1298531374
H   H25       1.0  0.71460  0.28540  0.95900  1.0000 0.4058820351
H   H26       1.0  0.28540  0.71460  0.04100  1.0000 0.4058820351
H   H27       1.0  0.95900  0.04100  0.71460  1.0000 0.4058820351
H   H28       1.0  0.04100  0.95900  0.28540  1.0000 0.4058820351
H   H29       1.0  0.95900  0.71460  0.28540  1.0000 0.4058820351
H   H30       1.0  0.04100  0.28540  0.71460  1.0000 0.4058820351
H   H31       1.0  0.71460  0.95900  0.04100  1.0000 0.4058820351
H   H32       1.0  0.28540  0.04100  0.95900  1.0000 0.4058820351
H   H33       1.0  0.28540  0.95900  0.71460  1.0000 0.4058820351
H   H34       1.0  0.71460  0.04100  0.28540  1.0000 0.4058820351
H   H35       1.0  0.04100  0.71460  0.95900  1.0000 0.4058820351
H   H36       1.0  0.95900  0.28540  0.04100  1.0000 0.4058820351
H   H37       1.0  0.28540  0.71460  0.95900  1.0000 0.4058820351
H   H38       1.0  0.71460  0.28540  0.04100  1.0000 0.4058820351
H   H39       1.0  0.04100  0.95900  0.71460  1.0000 0.4058820351
H   H40       1.0  0.95900  0.04100  0.28540  1.0000 0.4058820351
H   H41       1.0  0.04100  0.28540  0.95900  1.0000 0.4058820351
H   H42       1.0  0.95900  0.71460  0.04100  1.0000 0.4058820351
H   H43       1.0  0.28540  0.04100  0.71460  1.0000 0.4058820351
H   H44       1.0  0.71460  0.95900  0.28540  1.0000 0.4058820351
H   H45       1.0  0.71460  0.04100  0.95900  1.0000 0.4058820351
H   H46       1.0  0.28540  0.95900  0.04100  1.0000 0.4058820351
H   H47       1.0  0.95900  0.28540  0.71460  1.0000 0.4058820351
H   H48       1.0  0.04100  0.71460  0.28540  1.0000 0.4058820351
C   C1        1.0  0.56910  0.56910  0.02330  1.0000 0.5721665204
C   C2        1.0  0.61260  0.61260  0.03180  1.0000 -0.03286253
C   C3        1.0  0.56910  0.56910  0.83850  1.0000 0.5721665204
C   C4        1.0  0.61260  0.61260  0.74300  1.0000 -0.03286253
C   C5        1.0  0.02330  0.83850  0.56910  1.0000 0.5721665204
C   C6        1.0  0.03180  0.74300  0.61260  1.0000 -0.03286253
C   C7        1.0  0.83850  0.02330  0.56910  1.0000 0.5721665204
C   C8        1.0  0.74300  0.03180  0.61260  1.0000 -0.03286253
C   C9        1.0  0.02330  0.56910  0.56910  1.0000 0.5721665204
C   C10       1.0  0.03180  0.61260  0.61260  1.0000 -0.03286253
C   C11       1.0  0.83850  0.56910  0.56910  1.0000 0.5721665204
C   C12       1.0  0.74300  0.61260  0.61260  1.0000 -0.03286253
C   C13       1.0  0.56910  0.02330  0.83850  1.0000 0.5721665204
C   C14       1.0  0.61260  0.03180  0.74300  1.0000 -0.03286253
C   C15       1.0  0.56910  0.83850  0.02330  1.0000 0.5721665204
C   C16       1.0  0.61260  0.74300  0.03180  1.0000 -0.03286253
C   C17       1.0  0.56910  0.02330  0.56910  1.0000 0.5721665204
C   C18       1.0  0.61260  0.03180  0.61260  1.0000 -0.03286253
C   C19       1.0  0.56910  0.83850  0.56910  1.0000 0.5721665204
C   C20       1.0  0.61260  0.74300  0.61260  1.0000 -0.03286253
C   C21       1.0  0.83850  0.56910  0.02330  1.0000 0.5721665204
C   C22       1.0  0.74300  0.61260  0.03180  1.0000 -0.03286253
C   C23       1.0  0.02330  0.56910  0.83850  1.0000 0.5721665204
C   C24       1.0  0.03180  0.61260  0.74300  1.0000 -0.03286253
C   C25       1.0  0.43090  0.43090  0.16150  1.0000 0.5721665204
C   C26       1.0  0.38740  0.38740  0.25700  1.0000 -0.03286253
C   C27       1.0  0.43090  0.43090  0.97670  1.0000 0.5721665204
C   C28       1.0  0.38740  0.38740  0.96820  1.0000 -0.03286253
C   C29       1.0  0.97670  0.16150  0.43090  1.0000 0.5721665204
C   C30       1.0  0.96820  0.25700  0.38740  1.0000 -0.03286253
C   C31       1.0  0.16150  0.97670  0.43090  1.0000 0.5721665204
C   C32       1.0  0.25700  0.96820  0.38740  1.0000 -0.03286253
C   C33       1.0  0.97670  0.43090  0.16150  1.0000 0.5721665204
C   C34       1.0  0.96820  0.38740  0.25700  1.0000 -0.03286253
C   C35       1.0  0.16150  0.43090  0.97670  1.0000 0.5721665204
C   C36       1.0  0.25700  0.38740  0.96820  1.0000 -0.03286253
C   C37       1.0  0.43090  0.97670  0.43090  1.0000 0.5721665204
C   C38       1.0  0.38740  0.96820  0.38740  1.0000 -0.03286253
C   C39       1.0  0.43090  0.16150  0.43090  1.0000 0.5721665204
C   C40       1.0  0.38740  0.25700  0.38740  1.0000 -0.03286253
C   C41       1.0  0.43090  0.97670  0.16150  1.0000 0.5721665204
C   C42       1.0  0.38740  0.96820  0.25700  1.0000 -0.03286253
C   C43       1.0  0.43090  0.16150  0.97670  1.0000 0.5721665204
C   C44       1.0  0.38740  0.25700  0.96820  1.0000 -0.03286253
C   C45       1.0  0.16150  0.43090  0.43090  1.0000 0.5721665204
C   C46       1.0  0.25700  0.38740  0.38740  1.0000 -0.03286253
C   C47       1.0  0.97670  0.43090  0.43090  1.0000 0.5721665204
C   C48       1.0  0.96820  0.38740  0.38740  1.0000 -0.03286253
C   C49       1.0  0.57100  0.69940  0.03020  1.0000 -0.0968628986
C   C50       1.0  0.69940  0.57100  0.69940  1.0000 -0.0968628986
C   C51       1.0  0.03020  0.69940  0.57100  1.0000 -0.0968628986
C   C52       1.0  0.69940  0.03020  0.69940  1.0000 -0.0968628986
C   C53       1.0  0.03020  0.57100  0.69940  1.0000 -0.0968628986
C   C54       1.0  0.69940  0.69940  0.57100  1.0000 -0.0968628986
C   C55       1.0  0.57100  0.03020  0.69940  1.0000 -0.0968628986
C   C56       1.0  0.69940  0.69940  0.03020  1.0000 -0.0968628986
C   C57       1.0  0.69940  0.03020  0.57100  1.0000 -0.0968628986
C   C58       1.0  0.57100  0.69940  0.69940  1.0000 -0.0968628986
C   C59       1.0  0.69940  0.57100  0.03020  1.0000 -0.0968628986
C   C60       1.0  0.03020  0.69940  0.69940  1.0000 -0.0968628986
C   C61       1.0  0.42900  0.30060  0.30060  1.0000 -0.0968628986
C   C62       1.0  0.30060  0.42900  0.96980  1.0000 -0.0968628986
C   C63       1.0  0.96980  0.30060  0.30060  1.0000 -0.0968628986
C   C64       1.0  0.30060  0.96980  0.42900  1.0000 -0.0968628986
C   C65       1.0  0.96980  0.42900  0.30060  1.0000 -0.0968628986
C   C66       1.0  0.30060  0.30060  0.96980  1.0000 -0.0968628986
C   C67       1.0  0.42900  0.96980  0.30060  1.0000 -0.0968628986
C   C68       1.0  0.30060  0.30060  0.42900  1.0000 -0.0968628986
C   C69       1.0  0.30060  0.96980  0.30060  1.0000 -0.0968628986
C   C70       1.0  0.42900  0.30060  0.96980  1.0000 -0.0968628986
C   C71       1.0  0.30060  0.42900  0.30060  1.0000 -0.0968628986
C   C72       1.0  0.96980  0.30060  0.42900  1.0000 -0.0968628986
O   O1        1.0  0.61238  0.49256  0.02108  1.0000 -0.5191627822
O   O2        1.0  0.49256  0.61238  0.87398  1.0000 -0.5191627822
O   O3        1.0  0.02108  0.87398  0.61238  1.0000 -0.5191627822
O   O4        1.0  0.87398  0.02108  0.49256  1.0000 -0.5191627822
O   O5        1.0  0.02108  0.61238  0.49256  1.0000 -0.5191627822
O   O6        1.0  0.87398  0.49256  0.61238  1.0000 -0.5191627822
O   O7        1.0  0.61238  0.02108  0.87398  1.0000 -0.5191627822
O   O8        1.0  0.49256  0.87398  0.02108  1.0000 -0.5191627822
O   O9        1.0  0.49256  0.02108  0.61238  1.0000 -0.5191627822
O   O10       1.0  0.61238  0.87398  0.49256  1.0000 -0.5191627822
O   O11       1.0  0.87398  0.61238  0.02108  1.0000 -0.5191627822
O   O12       1.0  0.02108  0.49256  0.87398  1.0000 -0.5191627822
O   O13       1.0  0.38762  0.50744  0.12602  1.0000 -0.5191627822
O   O14       1.0  0.50744  0.38762  0.97892  1.0000 -0.5191627822
O   O15       1.0  0.97892  0.12602  0.50744  1.0000 -0.5191627822
O   O16       1.0  0.12602  0.97892  0.38762  1.0000 -0.5191627822
O   O17       1.0  0.97892  0.38762  0.12602  1.0000 -0.5191627822
O   O18       1.0  0.12602  0.50744  0.97892  1.0000 -0.5191627822
O   O19       1.0  0.38762  0.97892  0.50744  1.0000 -0.5191627822
O   O20       1.0  0.50744  0.12602  0.38762  1.0000 -0.5191627822
O   O21       1.0  0.50744  0.97892  0.12602  1.0000 -0.5191627822
O   O22       1.0  0.38762  0.12602  0.97892  1.0000 -0.5191627822
O   O23       1.0  0.12602  0.38762  0.50744  1.0000 -0.5191627822
O   O24       1.0  0.97892  0.50744  0.38762  1.0000 -0.5191627822
O   O25       1.0  0.38762  0.50744  0.97892  1.0000 -0.5191627822
O   O26       1.0  0.50744  0.38762  0.12602  1.0000 -0.5191627822
O   O27       1.0  0.97892  0.12602  0.38762  1.0000 -0.5191627822
O   O28       1.0  0.12602  0.97892  0.50744  1.0000 -0.5191627822
O   O29       1.0  0.97892  0.38762  0.50744  1.0000 -0.5191627822
O   O30       1.0  0.12602  0.50744  0.38762  1.0000 -0.5191627822
O   O31       1.0  0.38762  0.97892  0.12602  1.0000 -0.5191627822
O   O32       1.0  0.50744  0.12602  0.97892  1.0000 -0.5191627822
O   O33       1.0  0.50744  0.97892  0.38762  1.0000 -0.5191627822
O   O34       1.0  0.38762  0.12602  0.50744  1.0000 -0.5191627822
O   O35       1.0  0.12602  0.38762  0.97892  1.0000 -0.5191627822
O   O36       1.0  0.97892  0.50744  0.12602  1.0000 -0.5191627822
O   O37       1.0  0.61238  0.49256  0.87398  1.0000 -0.5191627822
O   O38       1.0  0.49256  0.61238  0.02108  1.0000 -0.5191627822
O   O39       1.0  0.02108  0.87398  0.49256  1.0000 -0.5191627822
O   O40       1.0  0.87398  0.02108  0.61238  1.0000 -0.5191627822
O   O41       1.0  0.02108  0.61238  0.87398  1.0000 -0.5191627822
O   O42       1.0  0.87398  0.49256  0.02108  1.0000 -0.5191627822
O   O43       1.0  0.61238  0.02108  0.49256  1.0000 -0.5191627822
O   O44       1.0  0.49256  0.87398  0.61238  1.0000 -0.5191627822
O   O45       1.0  0.49256  0.02108  0.87398  1.0000 -0.5191627822
O   O46       1.0  0.61238  0.87398  0.02108  1.0000 -0.5191627822
O   O47       1.0  0.87398  0.61238  0.49256  1.0000 -0.5191627822
O   O48       1.0  0.02108  0.49256  0.61238  1.0000 -0.5191627822
O   O49       1.0  0.68680  0.31320  0.00000  1.0000 -0.7330146377
O   O50       1.0  0.31320  0.68680  0.00000  1.0000 -0.7355067343
O   O51       1.0  0.00000  0.00000  0.68680  1.0000 -0.7355067343
O   O52       1.0  0.00000  0.00000  0.31320  1.0000 -0.7355067343
O   O53       1.0  0.00000  0.68680  0.31320  1.0000 -0.7355067343
O   O54       1.0  0.00000  0.31320  0.68680  1.0000 -0.7330146377
O   O55       1.0  0.68680  0.00000  0.00000  1.0000 -0.7330146377
O   O56       1.0  0.31320  0.00000  0.00000  1.0000 -0.7355067343
O   O57       1.0  0.31320  0.00000  0.68680  1.0000 -0.7355067343
O   O58       1.0  0.68680  0.00000  0.31320  1.0000 -0.7355067343
O   O59       1.0  0.00000  0.68680  0.00000  1.0000 -0.7355067343
O   O60       1.0  0.00000  0.31320  0.00000  1.0000 -0.7355067343
