# DDEC6 charges by PACMAN v1.1 (https://github.com/mtap-research/PACMAN-charge/)
data_2022[U][srs]3[FSR]1
_chemical_formula_sum              "U24 H432 C576 O192"
_cell_length_a       38.1527
_cell_length_b       38.1527
_cell_length_c       38.1527
_cell_angle_alpha    109.471
_cell_angle_beta     109.471
_cell_angle_gamma    109.471

_symmetry_space_group_name_H-M    "P 1"
_symmetry_Int_Tables_number       1

loop_
  _symmetry_equiv_pos_as_xyz
  'x, y, z'

loop_
  _atom_site_type_symbol
  _atom_site_label
  _atom_site_symmetry_multiplicity
  _atom_site_fract_x
  _atom_site_fract_y
  _atom_site_fract_z
  _atom_site_occupancy
  _atom_site_charge
U   U1        1.0  0.65304  0.27436  0.65360  1.0000 2.2792754689
U   U2        1.0  0.37924  0.22564  0.87868  1.0000 2.2792754689
U   U3        1.0  0.87868  0.99944  0.65304  1.0000 2.2792754689
U   U4        1.0  0.65360  0.50056  0.37924  1.0000 2.2792754689
U   U5        1.0  0.84696  0.50056  0.62132  1.0000 2.2792754689
U   U6        1.0  0.12076  0.99944  0.84640  1.0000 2.2792754689
U   U7        1.0  0.84640  0.22564  0.84696  1.0000 2.2792754689
U   U8        1.0  0.62132  0.27436  0.12076  1.0000 2.2792754689
U   U9        1.0  0.99944  0.84640  0.12076  1.0000 2.2792754689
U   U10       1.0  0.50056  0.62132  0.84696  1.0000 2.2792754689
U   U11       1.0  0.27436  0.12076  0.62132  1.0000 2.2792754689
U   U12       1.0  0.22564  0.84696  0.84640  1.0000 2.2792754689
U   U13       1.0  0.22564  0.87868  0.37924  1.0000 2.2792754689
U   U14       1.0  0.27436  0.65360  0.65304  1.0000 2.2792754689
U   U15       1.0  0.50056  0.37924  0.65360  1.0000 2.2792754689
U   U16       1.0  0.99944  0.65304  0.87868  1.0000 2.2792754689
U   U17       1.0  0.87868  0.37924  0.22564  1.0000 2.2792754689
U   U18       1.0  0.65360  0.65304  0.27436  1.0000 2.2792754689
U   U19       1.0  0.37924  0.65360  0.50056  1.0000 2.2792754689
U   U20       1.0  0.65304  0.87868  0.99944  1.0000 2.2792754689
U   U21       1.0  0.84640  0.12076  0.99944  1.0000 2.2792754689
U   U22       1.0  0.62132  0.84696  0.50056  1.0000 2.2792754689
U   U23       1.0  0.12076  0.62132  0.27436  1.0000 2.2792754689
U   U24       1.0  0.84696  0.84640  0.22564  1.0000 2.2792754689
H   H1        1.0  0.76138  0.22947  0.63815  1.0000 0.1294032012
H   H2        1.0  0.69713  0.18491  0.69350  1.0000 0.1394837611
H   H3        1.0  0.79157  0.18547  0.64052  1.0000 0.1294032012
H   H4        1.0  0.86883  0.12446  0.71403  1.0000 0.1294032012
H   H5        1.0  0.76192  0.03686  0.59790  1.0000 0.1294032012
H   H6        1.0  0.73388  0.08309  0.60729  1.0000 0.1294032012
H   H7        1.0  0.85238  0.18166  0.75618  1.0000 0.1770685837
H   H8        1.0  0.83554  0.19922  0.72526  1.0000 0.1294032012
H   H9        1.0  0.87693  0.19425  0.73172  1.0000 0.149305169
H   H10       1.0  0.54230  0.30271  0.68725  1.0000 0.149305169
H   H11       1.0  0.52422  0.20926  0.74224  1.0000 0.1294032012
H   H12       1.0  0.56112  0.20970  0.70404  1.0000 0.1394837611
H   H13       1.0  0.51432  0.33368  0.73844  1.0000 0.1626445335
H   H14       1.0  0.47489  0.29278  0.72967  1.0000 0.1394837611
H   H15       1.0  0.47870  0.29610  0.69024  1.0000 0.1394837611
H   H16       1.0  0.70229  0.12543  0.69816  1.0000 0.149305169
H   H17       1.0  0.75311  0.15191  0.73004  1.0000 0.1626445335
H   H18       1.0  0.73259  0.11109  0.68414  1.0000 0.1394837611
H   H19       1.0  0.40868  0.27053  0.03191  1.0000 0.1294032012
H   H20       1.0  0.50859  0.31509  0.01222  1.0000 0.1394837611
H   H21       1.0  0.45505  0.31453  0.10610  1.0000 0.1294032012
H   H22       1.0  0.58957  0.37554  0.24437  1.0000 0.1294032012
H   H23       1.0  0.56104  0.46314  0.22506  1.0000 0.1294032012
H   H24       1.0  0.52420  0.41691  0.15079  1.0000 0.1294032012
H   H25       1.0  0.57452  0.31834  0.17072  1.0000 0.1770685837
H   H26       1.0  0.52604  0.30078  0.13632  1.0000 0.1294032012
H   H27       1.0  0.53747  0.30575  0.18268  1.0000 0.149305169
H   H28       1.0  0.38454  0.19729  0.73959  1.0000 0.149305169
H   H29       1.0  0.53298  0.29074  0.81496  1.0000 0.1294032012
H   H30       1.0  0.49434  0.29030  0.85142  1.0000 0.1394837611
H   H31       1.0  0.40476  0.16632  0.68064  1.0000 0.1626445335
H   H32       1.0  0.43689  0.20722  0.68211  1.0000 0.1394837611
H   H33       1.0  0.39414  0.20390  0.68260  1.0000 0.1394837611
H   H34       1.0  0.57273  0.37457  0.07686  1.0000 0.149305169
H   H35       1.0  0.57813  0.34809  0.10120  1.0000 0.1626445335
H   H36       1.0  0.57305  0.38891  0.12150  1.0000 0.1394837611
H   H37       1.0  0.03191  0.12323  0.76138  1.0000 0.1294032012
H   H38       1.0  0.01222  0.00363  0.69713  1.0000 0.1394837611
H   H39       1.0  0.10610  0.15105  0.79157  1.0000 0.1294032012
H   H40       1.0  0.24437  0.15480  0.86883  1.0000 0.1294032012
H   H41       1.0  0.22506  0.16402  0.76192  1.0000 0.1294032012
H   H42       1.0  0.15079  0.12659  0.73388  1.0000 0.1294032012
H   H43       1.0  0.17072  0.09620  0.85238  1.0000 0.1770685837
H   H44       1.0  0.13632  0.11028  0.83554  1.0000 0.1294032012
H   H45       1.0  0.18268  0.14521  0.87693  1.0000 0.149305169
H   H46       1.0  0.73959  0.85505  0.54230  1.0000 0.149305169
H   H47       1.0  0.81496  0.78198  0.52422  1.0000 0.1294032012
H   H48       1.0  0.85142  0.85708  0.56112  1.0000 0.1394837611
H   H49       1.0  0.68064  0.77588  0.51432  1.0000 0.1626445335
H   H50       1.0  0.68211  0.74522  0.47489  1.0000 0.1394837611
H   H51       1.0  0.68260  0.78846  0.47870  1.0000 0.1394837611
H   H52       1.0  0.07686  0.00413  0.70229  1.0000 0.149305169
H   H53       1.0  0.10120  0.02307  0.75311  1.0000 0.1626445335
H   H54       1.0  0.12150  0.04845  0.73259  1.0000 0.1394837611
H   H55       1.0  0.63815  0.37677  0.40868  1.0000 0.1294032012
H   H56       1.0  0.69350  0.49637  0.50859  1.0000 0.1394837611
H   H57       1.0  0.64052  0.34895  0.45505  1.0000 0.1294032012
H   H58       1.0  0.71403  0.34520  0.58957  1.0000 0.1294032012
H   H59       1.0  0.59790  0.33598  0.56104  1.0000 0.1294032012
H   H60       1.0  0.60729  0.37341  0.52420  1.0000 0.1294032012
H   H61       1.0  0.75618  0.40380  0.57452  1.0000 0.1770685837
H   H62       1.0  0.72526  0.38972  0.52604  1.0000 0.1294032012
H   H63       1.0  0.73172  0.35479  0.53747  1.0000 0.149305169
H   H64       1.0  0.68725  0.64495  0.38454  1.0000 0.149305169
H   H65       1.0  0.74224  0.71802  0.53298  1.0000 0.1294032012
H   H66       1.0  0.70404  0.64292  0.49434  1.0000 0.1394837611
H   H67       1.0  0.73844  0.72412  0.40476  1.0000 0.1626445335
H   H68       1.0  0.72967  0.75478  0.43689  1.0000 0.1394837611
H   H69       1.0  0.69024  0.71154  0.39414  1.0000 0.1394837611
H   H70       1.0  0.69816  0.49587  0.57273  1.0000 0.149305169
H   H71       1.0  0.73004  0.47693  0.57813  1.0000 0.1626445335
H   H72       1.0  0.68414  0.45155  0.57305  1.0000 0.1394837611
H   H73       1.0  0.73862  0.37677  0.46809  1.0000 0.1294032012
H   H74       1.0  0.80287  0.49637  0.48778  1.0000 0.1394837611
H   H75       1.0  0.70843  0.34895  0.39390  1.0000 0.1294032012
H   H76       1.0  0.63117  0.34520  0.25563  1.0000 0.1294032012
H   H77       1.0  0.73808  0.33598  0.27494  1.0000 0.1294032012
H   H78       1.0  0.76612  0.37341  0.34921  1.0000 0.1294032012
H   H79       1.0  0.64762  0.40380  0.32928  1.0000 0.1770685837
H   H80       1.0  0.66446  0.38972  0.36368  1.0000 0.1294032012
H   H81       1.0  0.62307  0.35479  0.31732  1.0000 0.149305169
H   H82       1.0  0.95770  0.64495  0.76041  1.0000 0.149305169
H   H83       1.0  0.97578  0.71802  0.68504  1.0000 0.1294032012
H   H84       1.0  0.93888  0.64292  0.64858  1.0000 0.1394837611
H   H85       1.0  0.98568  0.72412  0.81936  1.0000 0.1626445335
H   H86       1.0  0.02511  0.75478  0.81789  1.0000 0.1394837611
H   H87       1.0  0.02130  0.71154  0.81740  1.0000 0.1394837611
H   H88       1.0  0.79771  0.49587  0.42314  1.0000 0.149305169
H   H89       1.0  0.74689  0.47693  0.39880  1.0000 0.1626445335
H   H90       1.0  0.76741  0.45155  0.37850  1.0000 0.1394837611
H   H91       1.0  0.09132  0.12323  0.86185  1.0000 0.1294032012
H   H92       1.0  0.99141  0.00363  0.80650  1.0000 0.1394837611
H   H93       1.0  0.04495  0.15105  0.85948  1.0000 0.1294032012
H   H94       1.0  0.91043  0.15480  0.78597  1.0000 0.1294032012
H   H95       1.0  0.93896  0.16402  0.90210  1.0000 0.1294032012
H   H96       1.0  0.97580  0.12659  0.89271  1.0000 0.1294032012
H   H97       1.0  0.92548  0.09620  0.74382  1.0000 0.1770685837
H   H98       1.0  0.97396  0.11028  0.77474  1.0000 0.1294032012
H   H99       1.0  0.96253  0.14521  0.76828  1.0000 0.149305169
H   H100      1.0  0.11546  0.85505  0.81275  1.0000 0.149305169
H   H101      1.0  0.96702  0.78198  0.75776  1.0000 0.1294032012
H   H102      1.0  0.00566  0.85708  0.79596  1.0000 0.1394837611
H   H103      1.0  0.09524  0.77588  0.76156  1.0000 0.1626445335
H   H104      1.0  0.06311  0.74522  0.77033  1.0000 0.1394837611
H   H105      1.0  0.10586  0.78846  0.80976  1.0000 0.1394837611
H   H106      1.0  0.92727  0.00413  0.80184  1.0000 0.149305169
H   H107      1.0  0.92187  0.02307  0.76996  1.0000 0.1626445335
H   H108      1.0  0.92695  0.04845  0.81586  1.0000 0.1394837611
H   H109      1.0  0.86185  0.27053  0.73862  1.0000 0.1294032012
H   H110      1.0  0.80650  0.31509  0.80287  1.0000 0.1394837611
H   H111      1.0  0.85948  0.31453  0.70843  1.0000 0.1294032012
H   H112      1.0  0.78597  0.37554  0.63117  1.0000 0.1294032012
H   H113      1.0  0.90210  0.46314  0.73808  1.0000 0.1294032012
H   H114      1.0  0.89271  0.41691  0.76612  1.0000 0.1294032012
H   H115      1.0  0.74382  0.31834  0.64762  1.0000 0.1770685837
H   H116      1.0  0.77474  0.30078  0.66446  1.0000 0.1294032012
H   H117      1.0  0.76828  0.30575  0.62307  1.0000 0.149305169
H   H118      1.0  0.81275  0.19729  0.95770  1.0000 0.149305169
H   H119      1.0  0.75776  0.29074  0.97578  1.0000 0.1294032012
H   H120      1.0  0.79596  0.29030  0.93888  1.0000 0.1394837611
H   H121      1.0  0.76156  0.16632  0.98568  1.0000 0.1626445335
H   H122      1.0  0.77033  0.20722  0.02511  1.0000 0.1394837611
H   H123      1.0  0.80976  0.20390  0.02130  1.0000 0.1394837611
H   H124      1.0  0.80184  0.37457  0.79771  1.0000 0.149305169
H   H125      1.0  0.76996  0.34809  0.74689  1.0000 0.1626445335
H   H126      1.0  0.81586  0.38891  0.76741  1.0000 0.1394837611
H   H127      1.0  0.46809  0.22947  0.09132  1.0000 0.1294032012
H   H128      1.0  0.48778  0.18491  0.99141  1.0000 0.1394837611
H   H129      1.0  0.39390  0.18547  0.04495  1.0000 0.1294032012
H   H130      1.0  0.25563  0.12446  0.91043  1.0000 0.1294032012
H   H131      1.0  0.27494  0.03686  0.93896  1.0000 0.1294032012
H   H132      1.0  0.34921  0.08309  0.97580  1.0000 0.1294032012
H   H133      1.0  0.32928  0.18166  0.92548  1.0000 0.1770685837
H   H134      1.0  0.36368  0.19922  0.97396  1.0000 0.1294032012
H   H135      1.0  0.31732  0.19425  0.96253  1.0000 0.149305169
H   H136      1.0  0.76041  0.30271  0.11546  1.0000 0.149305169
H   H137      1.0  0.68504  0.20926  0.96702  1.0000 0.1294032012
H   H138      1.0  0.64858  0.20970  0.00566  1.0000 0.1394837611
H   H139      1.0  0.81936  0.33368  0.09524  1.0000 0.1626445335
H   H140      1.0  0.81789  0.29278  0.06311  1.0000 0.1394837611
H   H141      1.0  0.81740  0.29610  0.10586  1.0000 0.1394837611
H   H142      1.0  0.42314  0.12543  0.92727  1.0000 0.149305169
H   H143      1.0  0.39880  0.15191  0.92187  1.0000 0.1626445335
H   H144      1.0  0.37850  0.11109  0.92695  1.0000 0.1394837611
H   H145      1.0  0.12323  0.86185  0.09132  1.0000 0.1294032012
H   H146      1.0  0.00363  0.80650  0.99141  1.0000 0.1394837611
H   H147      1.0  0.15105  0.85948  0.04495  1.0000 0.1294032012
H   H148      1.0  0.15480  0.78597  0.91043  1.0000 0.1294032012
H   H149      1.0  0.16402  0.90210  0.93896  1.0000 0.1294032012
H   H150      1.0  0.12659  0.89271  0.97580  1.0000 0.1294032012
H   H151      1.0  0.09620  0.74382  0.92548  1.0000 0.1770685837
H   H152      1.0  0.11028  0.77474  0.97396  1.0000 0.1294032012
H   H153      1.0  0.14521  0.76828  0.96253  1.0000 0.149305169
H   H154      1.0  0.85505  0.81275  0.11546  1.0000 0.149305169
H   H155      1.0  0.78198  0.75776  0.96702  1.0000 0.1294032012
H   H156      1.0  0.85708  0.79596  0.00566  1.0000 0.1294032012
H   H157      1.0  0.77588  0.76156  0.09524  1.0000 0.1626445335
H   H158      1.0  0.74522  0.77033  0.06311  1.0000 0.1394837611
H   H159      1.0  0.78846  0.80976  0.10586  1.0000 0.1394837611
H   H160      1.0  0.00413  0.80184  0.92727  1.0000 0.149305169
H   H161      1.0  0.02307  0.76996  0.92187  1.0000 0.1626445335
H   H162      1.0  0.04845  0.81586  0.92695  1.0000 0.1394837611
H   H163      1.0  0.37677  0.46809  0.73862  1.0000 0.1294032012
H   H164      1.0  0.49637  0.48778  0.80287  1.0000 0.1394837611
H   H165      1.0  0.34895  0.39390  0.70843  1.0000 0.1294032012
H   H166      1.0  0.34520  0.25563  0.63117  1.0000 0.1294032012
H   H167      1.0  0.33598  0.27494  0.73808  1.0000 0.1294032012
H   H168      1.0  0.37341  0.34921  0.76612  1.0000 0.1294032012
H   H169      1.0  0.40380  0.32928  0.64762  1.0000 0.1770685837
H   H170      1.0  0.38972  0.36368  0.66446  1.0000 0.1294032012
H   H171      1.0  0.35479  0.31732  0.62307  1.0000 0.149305169
H   H172      1.0  0.64495  0.76041  0.95770  1.0000 0.149305169
H   H173      1.0  0.71802  0.68504  0.97578  1.0000 0.1294032012
H   H174      1.0  0.64292  0.64858  0.93888  1.0000 0.1394837611
H   H175      1.0  0.72412  0.81936  0.98568  1.0000 0.1626445335
H   H176      1.0  0.75478  0.81789  0.02511  1.0000 0.1394837611
H   H177      1.0  0.71154  0.81740  0.02130  1.0000 0.1394837611
H   H178      1.0  0.49587  0.42314  0.79771  1.0000 0.149305169
H   H179      1.0  0.47693  0.39880  0.74689  1.0000 0.1626445335
H   H180      1.0  0.45155  0.37850  0.76741  1.0000 0.1394837611
H   H181      1.0  0.22947  0.09132  0.46809  1.0000 0.1294032012
H   H182      1.0  0.18491  0.99141  0.48778  1.0000 0.1394837611
H   H183      1.0  0.18547  0.04495  0.39390  1.0000 0.1294032012
H   H184      1.0  0.12446  0.91043  0.25563  1.0000 0.1294032012
H   H185      1.0  0.03686  0.93896  0.27494  1.0000 0.1294032012
H   H186      1.0  0.08309  0.97580  0.34921  1.0000 0.1294032012
H   H187      1.0  0.18166  0.92548  0.32928  1.0000 0.1770685837
H   H188      1.0  0.19922  0.97396  0.36368  1.0000 0.1294032012
H   H189      1.0  0.19425  0.96253  0.31732  1.0000 0.149305169
H   H190      1.0  0.30271  0.11546  0.76041  1.0000 0.149305169
H   H191      1.0  0.20926  0.96702  0.68504  1.0000 0.1294032012
H   H192      1.0  0.20970  0.00566  0.64858  1.0000 0.1394837611
H   H193      1.0  0.33368  0.09524  0.81936  1.0000 0.1626445335
H   H194      1.0  0.29278  0.06311  0.81789  1.0000 0.1394837611
H   H195      1.0  0.29610  0.10586  0.81740  1.0000 0.1394837611
H   H196      1.0  0.12543  0.92727  0.42314  1.0000 0.149305169
H   H197      1.0  0.15191  0.92187  0.39880  1.0000 0.1626445335
H   H198      1.0  0.11109  0.92695  0.37850  1.0000 0.1394837611
H   H199      1.0  0.27053  0.73862  0.86185  1.0000 0.1294032012
H   H200      1.0  0.31509  0.80287  0.80650  1.0000 0.1394837611
H   H201      1.0  0.31453  0.70843  0.85948  1.0000 0.1294032012
H   H202      1.0  0.37554  0.63117  0.78597  1.0000 0.1294032012
H   H203      1.0  0.46314  0.73808  0.90210  1.0000 0.1294032012
H   H204      1.0  0.41691  0.76612  0.89271  1.0000 0.1294032012
H   H205      1.0  0.31834  0.64762  0.74382  1.0000 0.1770685837
H   H206      1.0  0.30078  0.66446  0.77474  1.0000 0.1294032012
H   H207      1.0  0.30575  0.62307  0.76828  1.0000 0.149305169
H   H208      1.0  0.19729  0.95770  0.81275  1.0000 0.149305169
H   H209      1.0  0.29074  0.97578  0.75776  1.0000 0.1294032012
H   H210      1.0  0.29030  0.93888  0.79596  1.0000 0.1394837611
H   H211      1.0  0.16632  0.98568  0.76156  1.0000 0.1626445335
H   H212      1.0  0.20722  0.02511  0.77033  1.0000 0.1394837611
H   H213      1.0  0.20390  0.02130  0.80976  1.0000 0.1394837611
H   H214      1.0  0.37457  0.79771  0.80184  1.0000 0.149305169
H   H215      1.0  0.34809  0.74689  0.76996  1.0000 0.1626445335
H   H216      1.0  0.38891  0.76741  0.81586  1.0000 0.1394837611
H   H217      1.0  0.27053  0.03191  0.40868  1.0000 0.1294032012
H   H218      1.0  0.31509  0.01222  0.50859  1.0000 0.1394837611
H   H219      1.0  0.31453  0.10610  0.45505  1.0000 0.1294032012
H   H220      1.0  0.37554  0.24437  0.58957  1.0000 0.1294032012
H   H221      1.0  0.46314  0.22506  0.56104  1.0000 0.1294032012
H   H222      1.0  0.41691  0.15079  0.52420  1.0000 0.1294032012
H   H223      1.0  0.31834  0.17072  0.57452  1.0000 0.1770685837
H   H224      1.0  0.30078  0.13632  0.52604  1.0000 0.1294032012
H   H225      1.0  0.30575  0.18268  0.53747  1.0000 0.149305169
H   H226      1.0  0.19729  0.73959  0.38454  1.0000 0.149305169
H   H227      1.0  0.29074  0.81496  0.53298  1.0000 0.1294032012
H   H228      1.0  0.29030  0.85142  0.49434  1.0000 0.1394837611
H   H229      1.0  0.16632  0.68064  0.40476  1.0000 0.1626445335
H   H230      1.0  0.20722  0.68211  0.43689  1.0000 0.1394837611
H   H231      1.0  0.20390  0.68260  0.39414  1.0000 0.1394837611
H   H232      1.0  0.37457  0.07686  0.57273  1.0000 0.149305169
H   H233      1.0  0.34809  0.10120  0.57813  1.0000 0.1626445335
H   H234      1.0  0.38891  0.12150  0.57305  1.0000 0.1394837611
H   H235      1.0  0.22947  0.63815  0.76138  1.0000 0.1294032012
H   H236      1.0  0.18491  0.69350  0.69713  1.0000 0.1394837611
H   H237      1.0  0.18547  0.64052  0.79157  1.0000 0.1294032012
H   H238      1.0  0.12446  0.71403  0.86883  1.0000 0.1294032012
H   H239      1.0  0.03686  0.59790  0.76192  1.0000 0.1294032012
H   H240      1.0  0.08309  0.60729  0.73388  1.0000 0.1294032012
H   H241      1.0  0.18166  0.75618  0.85238  1.0000 0.1770685837
H   H242      1.0  0.19922  0.72526  0.83554  1.0000 0.1294032012
H   H243      1.0  0.19425  0.73172  0.87693  1.0000 0.149305169
H   H244      1.0  0.30271  0.68725  0.54230  1.0000 0.149305169
H   H245      1.0  0.20926  0.74224  0.52422  1.0000 0.1294032012
H   H246      1.0  0.20970  0.70404  0.56112  1.0000 0.1394837611
H   H247      1.0  0.33368  0.73844  0.51432  1.0000 0.1626445335
H   H248      1.0  0.29278  0.72967  0.47489  1.0000 0.1394837611
H   H249      1.0  0.29610  0.69024  0.47870  1.0000 0.1394837611
H   H250      1.0  0.12543  0.69816  0.70229  1.0000 0.149305169
H   H251      1.0  0.15191  0.73004  0.75311  1.0000 0.1626445335
H   H252      1.0  0.11109  0.68414  0.73259  1.0000 0.1394837611
H   H253      1.0  0.37677  0.40868  0.63815  1.0000 0.1294032012
H   H254      1.0  0.49637  0.50859  0.69350  1.0000 0.1394837611
H   H255      1.0  0.34895  0.45505  0.64052  1.0000 0.1294032012
H   H256      1.0  0.34520  0.58957  0.71403  1.0000 0.1294032012
H   H257      1.0  0.33598  0.56104  0.59790  1.0000 0.1294032012
H   H258      1.0  0.37341  0.52420  0.60729  1.0000 0.1294032012
H   H259      1.0  0.40380  0.57452  0.75618  1.0000 0.1770685837
H   H260      1.0  0.38972  0.52604  0.72526  1.0000 0.1294032012
H   H261      1.0  0.35479  0.53747  0.73172  1.0000 0.149305169
H   H262      1.0  0.64495  0.38454  0.68725  1.0000 0.149305169
H   H263      1.0  0.71802  0.53298  0.74224  1.0000 0.1294032012
H   H264      1.0  0.64292  0.49434  0.70404  1.0000 0.1394837611
H   H265      1.0  0.72412  0.40476  0.73844  1.0000 0.1626445335
H   H266      1.0  0.75478  0.43689  0.72967  1.0000 0.1394837611
H   H267      1.0  0.71154  0.39414  0.69024  1.0000 0.1394837611
H   H268      1.0  0.49587  0.57273  0.69816  1.0000 0.149305169
H   H269      1.0  0.47693  0.57813  0.73004  1.0000 0.1626445335
H   H270      1.0  0.45155  0.57305  0.68414  1.0000 0.1394837611
H   H271      1.0  0.12323  0.76138  0.03191  1.0000 0.1294032012
H   H272      1.0  0.00363  0.69713  0.01222  1.0000 0.1394837611
H   H273      1.0  0.15105  0.79157  0.10610  1.0000 0.1294032012
H   H274      1.0  0.15480  0.86883  0.24437  1.0000 0.1294032012
H   H275      1.0  0.16402  0.76192  0.22506  1.0000 0.1294032012
H   H276      1.0  0.12659  0.73388  0.15079  1.0000 0.1294032012
H   H277      1.0  0.09620  0.85238  0.17072  1.0000 0.1770685837
H   H278      1.0  0.11028  0.83554  0.13632  1.0000 0.1294032012
H   H279      1.0  0.14521  0.87693  0.18268  1.0000 0.149305169
H   H280      1.0  0.85505  0.54230  0.73959  1.0000 0.149305169
H   H281      1.0  0.78198  0.52422  0.81496  1.0000 0.1294032012
H   H282      1.0  0.85708  0.56112  0.85142  1.0000 0.1394837611
H   H283      1.0  0.77588  0.51432  0.68064  1.0000 0.1626445335
H   H284      1.0  0.74522  0.47489  0.68211  1.0000 0.1394837611
H   H285      1.0  0.78846  0.47870  0.68260  1.0000 0.1394837611
H   H286      1.0  0.00413  0.70229  0.07686  1.0000 0.149305169
H   H287      1.0  0.02307  0.75311  0.10120  1.0000 0.1626445335
H   H288      1.0  0.04845  0.73259  0.12150  1.0000 0.1394837611
H   H289      1.0  0.03191  0.40868  0.27053  1.0000 0.1294032012
H   H290      1.0  0.01222  0.50859  0.31509  1.0000 0.1394837611
H   H291      1.0  0.10610  0.45505  0.31453  1.0000 0.1294032012
H   H292      1.0  0.24437  0.58957  0.37554  1.0000 0.1294032012
H   H293      1.0  0.22506  0.56104  0.46314  1.0000 0.1294032012
H   H294      1.0  0.15079  0.52420  0.41691  1.0000 0.1294032012
H   H295      1.0  0.17072  0.57452  0.31834  1.0000 0.1770685837
H   H296      1.0  0.13632  0.52604  0.30078  1.0000 0.1294032012
H   H297      1.0  0.18268  0.53747  0.30575  1.0000 0.149305169
H   H298      1.0  0.73959  0.38454  0.19729  1.0000 0.149305169
H   H299      1.0  0.81496  0.53298  0.29074  1.0000 0.1294032012
H   H300      1.0  0.85142  0.49434  0.29030  1.0000 0.1394837611
H   H301      1.0  0.68064  0.40476  0.16632  1.0000 0.1626445335
H   H302      1.0  0.68211  0.43689  0.20722  1.0000 0.1394837611
H   H303      1.0  0.68260  0.39414  0.20390  1.0000 0.1394837611
H   H304      1.0  0.07686  0.57273  0.37457  1.0000 0.149305169
H   H305      1.0  0.10120  0.57813  0.34809  1.0000 0.1626445335
H   H306      1.0  0.12150  0.57305  0.38891  1.0000 0.1394837611
H   H307      1.0  0.63815  0.76138  0.22947  1.0000 0.1294032012
H   H308      1.0  0.69350  0.69713  0.18491  1.0000 0.1394837611
H   H309      1.0  0.64052  0.79157  0.18547  1.0000 0.1294032012
H   H310      1.0  0.71403  0.86883  0.12446  1.0000 0.1294032012
H   H311      1.0  0.59790  0.76192  0.03686  1.0000 0.1294032012
H   H312      1.0  0.60729  0.73388  0.08309  1.0000 0.1294032012
H   H313      1.0  0.75618  0.85238  0.18166  1.0000 0.1770685837
H   H314      1.0  0.72526  0.83554  0.19922  1.0000 0.1294032012
H   H315      1.0  0.73172  0.87693  0.19425  1.0000 0.149305169
H   H316      1.0  0.68725  0.54230  0.30271  1.0000 0.149305169
H   H317      1.0  0.74224  0.52422  0.20926  1.0000 0.1294032012
H   H318      1.0  0.70404  0.56112  0.20970  1.0000 0.1394837611
H   H319      1.0  0.73844  0.51432  0.33368  1.0000 0.1626445335
H   H320      1.0  0.72967  0.47489  0.29278  1.0000 0.1394837611
H   H321      1.0  0.69024  0.47870  0.29610  1.0000 0.1394837611
H   H322      1.0  0.69816  0.70229  0.12543  1.0000 0.149305169
H   H323      1.0  0.73004  0.75311  0.15191  1.0000 0.1626445335
H   H324      1.0  0.68414  0.73259  0.11109  1.0000 0.1394837611
H   H325      1.0  0.40868  0.63815  0.37677  1.0000 0.1294032012
H   H326      1.0  0.50859  0.69350  0.49637  1.0000 0.1394837611
H   H327      1.0  0.45505  0.64052  0.34895  1.0000 0.1294032012
H   H328      1.0  0.58957  0.71403  0.34520  1.0000 0.1294032012
H   H329      1.0  0.56104  0.59790  0.33598  1.0000 0.1294032012
H   H330      1.0  0.52420  0.60729  0.37341  1.0000 0.1294032012
H   H331      1.0  0.57452  0.75618  0.40380  1.0000 0.1770685837
H   H332      1.0  0.52604  0.72526  0.38972  1.0000 0.1294032012
H   H333      1.0  0.53747  0.73172  0.35479  1.0000 0.149305169
H   H334      1.0  0.38454  0.68725  0.64495  1.0000 0.149305169
H   H335      1.0  0.53298  0.74224  0.71802  1.0000 0.1294032012
H   H336      1.0  0.49434  0.70404  0.64292  1.0000 0.1394837611
H   H337      1.0  0.40476  0.73844  0.72412  1.0000 0.1626445335
H   H338      1.0  0.43689  0.72967  0.75478  1.0000 0.1394837611
H   H339      1.0  0.39414  0.69024  0.71154  1.0000 0.1394837611
H   H340      1.0  0.57273  0.69816  0.49587  1.0000 0.149305169
H   H341      1.0  0.57813  0.73004  0.47693  1.0000 0.1626445335
H   H342      1.0  0.57305  0.68414  0.45155  1.0000 0.1394837611
H   H343      1.0  0.76138  0.03191  0.12323  1.0000 0.1294032012
H   H344      1.0  0.69713  0.01222  0.00363  1.0000 0.1394837611
H   H345      1.0  0.79157  0.10610  0.15105  1.0000 0.1294032012
H   H346      1.0  0.86883  0.24437  0.15480  1.0000 0.1294032012
H   H347      1.0  0.76192  0.22506  0.16402  1.0000 0.1294032012
H   H348      1.0  0.73388  0.15079  0.12659  1.0000 0.1294032012
H   H349      1.0  0.85238  0.17072  0.09620  1.0000 0.1770685837
H   H350      1.0  0.83554  0.13632  0.11028  1.0000 0.1294032012
H   H351      1.0  0.87693  0.18268  0.14521  1.0000 0.149305169
H   H352      1.0  0.54230  0.73959  0.85505  1.0000 0.149305169
H   H353      1.0  0.52422  0.81496  0.78198  1.0000 0.1294032012
H   H354      1.0  0.56112  0.85142  0.85708  1.0000 0.1394837611
H   H355      1.0  0.51432  0.68064  0.77588  1.0000 0.1626445335
H   H356      1.0  0.47489  0.68211  0.74522  1.0000 0.1394837611
H   H357      1.0  0.47870  0.68260  0.78846  1.0000 0.1394837611
H   H358      1.0  0.70229  0.07686  0.00413  1.0000 0.149305169
H   H359      1.0  0.75311  0.10120  0.02307  1.0000 0.1626445335
H   H360      1.0  0.73259  0.12150  0.04845  1.0000 0.1394837611
H   H361      1.0  0.86185  0.09132  0.12323  1.0000 0.1294032012
H   H362      1.0  0.80650  0.99141  0.00363  1.0000 0.1394837611
H   H363      1.0  0.85948  0.04495  0.15105  1.0000 0.1294032012
H   H364      1.0  0.78597  0.91043  0.15480  1.0000 0.1294032012
H   H365      1.0  0.90210  0.93896  0.16402  1.0000 0.1294032012
H   H366      1.0  0.89271  0.97580  0.12659  1.0000 0.1294032012
H   H367      1.0  0.74382  0.92548  0.09620  1.0000 0.1770685837
H   H368      1.0  0.77474  0.97396  0.11028  1.0000 0.1294032012
H   H369      1.0  0.76828  0.96253  0.14521  1.0000 0.149305169
H   H370      1.0  0.81275  0.11546  0.85505  1.0000 0.149305169
H   H371      1.0  0.75776  0.96702  0.78198  1.0000 0.1294032012
H   H372      1.0  0.79596  0.00566  0.85708  1.0000 0.1394837611
H   H373      1.0  0.76156  0.09524  0.77588  1.0000 0.1626445335
H   H374      1.0  0.77033  0.06311  0.74522  1.0000 0.1394837611
H   H375      1.0  0.80976  0.10586  0.78846  1.0000 0.1394837611
H   H376      1.0  0.80184  0.92727  0.00413  1.0000 0.149305169
H   H377      1.0  0.76996  0.92187  0.02307  1.0000 0.1626445335
H   H378      1.0  0.81586  0.92695  0.04845  1.0000 0.1394837611
H   H379      1.0  0.46809  0.73862  0.37677  1.0000 0.1294032012
H   H380      1.0  0.48778  0.80287  0.49637  1.0000 0.1394837611
H   H381      1.0  0.39390  0.70843  0.34895  1.0000 0.1294032012
H   H382      1.0  0.25563  0.63117  0.34520  1.0000 0.1294032012
H   H383      1.0  0.27494  0.73808  0.33598  1.0000 0.1294032012
H   H384      1.0  0.34921  0.76612  0.37341  1.0000 0.1294032012
H   H385      1.0  0.32928  0.64762  0.40380  1.0000 0.1770685837
H   H386      1.0  0.36368  0.66446  0.38972  1.0000 0.1294032012
H   H387      1.0  0.31732  0.62307  0.35479  1.0000 0.149305169
H   H388      1.0  0.76041  0.95770  0.64495  1.0000 0.149305169
H   H389      1.0  0.68504  0.97578  0.71802  1.0000 0.1294032012
H   H390      1.0  0.64858  0.93888  0.64292  1.0000 0.1394837611
H   H391      1.0  0.81936  0.98568  0.72412  1.0000 0.1626445335
H   H392      1.0  0.81789  0.02511  0.75478  1.0000 0.1394837611
H   H393      1.0  0.81740  0.02130  0.71154  1.0000 0.1394837611
H   H394      1.0  0.42314  0.79771  0.49587  1.0000 0.149305169
H   H395      1.0  0.39880  0.74689  0.47693  1.0000 0.1626445335
H   H396      1.0  0.37850  0.76741  0.45155  1.0000 0.1394837611
H   H397      1.0  0.09132  0.46809  0.22947  1.0000 0.1294032012
H   H398      1.0  0.99141  0.48778  0.18491  1.0000 0.1394837611
H   H399      1.0  0.04495  0.39390  0.18547  1.0000 0.1294032012
H   H400      1.0  0.91043  0.25563  0.12446  1.0000 0.1294032012
H   H401      1.0  0.93896  0.27494  0.03686  1.0000 0.1294032012
H   H402      1.0  0.97580  0.34921  0.08309  1.0000 0.1294032012
H   H403      1.0  0.92548  0.32928  0.18166  1.0000 0.1770685837
H   H404      1.0  0.97396  0.36368  0.19922  1.0000 0.1294032012
H   H405      1.0  0.96253  0.31732  0.19425  1.0000 0.149305169
H   H406      1.0  0.11546  0.76041  0.30271  1.0000 0.149305169
H   H407      1.0  0.96702  0.68504  0.20926  1.0000 0.1294032012
H   H408      1.0  0.00566  0.64858  0.20970  1.0000 0.1394837611
H   H409      1.0  0.09524  0.81936  0.33368  1.0000 0.1626445335
H   H410      1.0  0.06311  0.81789  0.29278  1.0000 0.1394837611
H   H411      1.0  0.10586  0.81740  0.29610  1.0000 0.1394837611
H   H412      1.0  0.92727  0.42314  0.12543  1.0000 0.149305169
H   H413      1.0  0.92187  0.39880  0.15191  1.0000 0.1626445335
H   H414      1.0  0.92695  0.37850  0.11109  1.0000 0.1394837611
H   H415      1.0  0.73862  0.86185  0.27053  1.0000 0.1294032012
H   H416      1.0  0.80287  0.80650  0.31509  1.0000 0.1394837611
H   H417      1.0  0.70843  0.85948  0.31453  1.0000 0.1294032012
H   H418      1.0  0.63117  0.78597  0.37554  1.0000 0.1294032012
H   H419      1.0  0.73808  0.90210  0.46314  1.0000 0.1294032012
H   H420      1.0  0.76612  0.89271  0.41691  1.0000 0.1294032012
H   H421      1.0  0.64762  0.74382  0.31834  1.0000 0.1770685837
H   H422      1.0  0.66446  0.77474  0.30078  1.0000 0.1294032012
H   H423      1.0  0.62307  0.76828  0.30575  1.0000 0.149305169
H   H424      1.0  0.95770  0.81275  0.19729  1.0000 0.149305169
H   H425      1.0  0.97578  0.75776  0.29074  1.0000 0.1294032012
H   H426      1.0  0.93888  0.79596  0.29030  1.0000 0.1394837611
H   H427      1.0  0.98568  0.76156  0.16632  1.0000 0.1626445335
H   H428      1.0  0.02511  0.77033  0.20722  1.0000 0.1394837611
H   H429      1.0  0.02130  0.80976  0.20390  1.0000 0.1394837611
H   H430      1.0  0.79771  0.80184  0.37457  1.0000 0.149305169
H   H431      1.0  0.74689  0.76996  0.34809  1.0000 0.1626445335
H   H432      1.0  0.76741  0.81586  0.38891  1.0000 0.1394837611
C   C1        1.0  0.70050  0.23240  0.66310  1.0000 0.5361727694
C   C2        1.0  0.75440  0.21140  0.64980  1.0000 -0.0902506522
C   C3        1.0  0.72640  0.21140  0.66560  1.0000 -0.0373310302
C   C4        1.0  0.71630  0.18500  0.68270  1.0000 -0.1106606974
C   C5        1.0  0.73430  0.15890  0.68420  1.0000 0.091380352
C   C6        1.0  0.76230  0.15910  0.66840  1.0000 0.0204602492
C   C7        1.0  0.77240  0.18530  0.65130  1.0000 -0.1419857043
C   C8        1.0  0.78470  0.13120  0.66630  1.0000 0.0279513583
C   C9        1.0  0.82480  0.14350  0.69790  1.0000 0.0953653797
C   C10       1.0  0.84150  0.11610  0.69240  1.0000 -0.1340682391
C   C11       1.0  0.81800  0.07630  0.65510  1.0000 -0.0227913434
C   C12       1.0  0.77790  0.06400  0.62330  1.0000 -0.0842762834
C   C13       1.0  0.76130  0.09150  0.62900  1.0000 -0.1508063034
C   C14       1.0  0.84880  0.18190  0.72970  1.0000 -0.38844374
C   C15       1.0  0.83860  0.05080  0.65980  1.0000 0.5000398973
C   C16       1.0  0.59110  0.26550  0.68120  1.0000 0.5489278778
C   C17       1.0  0.53860  0.28380  0.69840  1.0000 -0.104614015
C   C18       1.0  0.51670  0.28340  0.72110  1.0000 0.091380352
C   C19       1.0  0.51130  0.25570  0.73740  1.0000 0.0204602492
C   C20       1.0  0.52790  0.22820  0.73110  1.0000 -0.1340682391
C   C21       1.0  0.54990  0.22850  0.70840  1.0000 -0.0902506522
C   C22       1.0  0.55520  0.25630  0.69210  1.0000 -0.0004862061
C   C23       1.0  0.49490  0.30270  0.71980  1.0000 -0.38844374
C   C24       1.0  0.73040  0.13570  0.69990  1.0000 -0.3781366838
C   C25       1.0  0.43070  0.26760  0.96810  1.0000 0.5361727694
C   C26       1.0  0.43840  0.28860  0.04300  1.0000 -0.0902506522
C   C27       1.0  0.45420  0.28860  0.01500  1.0000 -0.0373310302
C   C28       1.0  0.49770  0.31500  0.03130  1.0000 -0.1106606974
C   C29       1.0  0.52530  0.34110  0.07540  1.0000 0.091380352
C   C30       1.0  0.50930  0.34090  0.10320  1.0000 0.0204602492
C   C31       1.0  0.46600  0.31470  0.08710  1.0000 -0.1419857043
C   C32       1.0  0.53510  0.36880  0.15350  1.0000 0.0279513583
C   C33       1.0  0.55440  0.35650  0.18130  1.0000 0.091380352
C   C34       1.0  0.57630  0.38390  0.22540  1.0000 -0.1340682391
C   C35       1.0  0.57880  0.42370  0.24170  1.0000 -0.0227913434
C   C36       1.0  0.55930  0.43600  0.21390  1.0000 -0.0842762834
C   C37       1.0  0.53750  0.40850  0.16980  1.0000 -0.1508063034
C   C38       1.0  0.54780  0.31810  0.16690  1.0000 -0.38844374
C   C39       1.0  0.60900  0.44920  0.28780  1.0000 0.5000398973
C   C40       1.0  0.41570  0.23450  0.82560  1.0000 0.5489278778
C   C41       1.0  0.41460  0.21620  0.75480  1.0000 -0.104614015
C   C42       1.0  0.43770  0.21660  0.73330  1.0000 0.091380352
C   C43       1.0  0.48170  0.24430  0.75560  1.0000 0.0204602492
C   C44       1.0  0.50290  0.27180  0.79970  1.0000 -0.1340682391
C   C45       1.0  0.47990  0.27150  0.82140  1.0000 -0.0902506522
C   C46       1.0  0.43580  0.24370  0.79890  1.0000 -0.0004862061
C   C47       1.0  0.41710  0.19730  0.69220  1.0000 -0.38844374
C   C48       1.0  0.56420  0.36430  0.09470  1.0000 -0.3781366838
C   C49       1.0  0.96810  0.03740  0.70050  1.0000 0.5361727694
C   C50       1.0  0.04300  0.10460  0.75440  1.0000 -0.0902506522
C   C51       1.0  0.01500  0.06080  0.72640  1.0000 -0.0373310302
C   C52       1.0  0.03130  0.03360  0.71630  1.0000 -0.1106606974
C   C53       1.0  0.07540  0.05010  0.73430  1.0000 0.091380352
C   C54       1.0  0.10320  0.09390  0.76230  1.0000 0.0204602492
C   C55       1.0  0.08710  0.12110  0.77240  1.0000 -0.1419857043
C   C56       1.0  0.15350  0.11840  0.78470  1.0000 0.0279513583
C   C57       1.0  0.18130  0.12690  0.82480  1.0000 0.0953653797
C   C58       1.0  0.22540  0.14910  0.84150  1.0000 -0.1340682391
C   C59       1.0  0.24170  0.16290  0.81800  1.0000 -0.0227913434
C   C60       1.0  0.21390  0.15460  0.77790  1.0000 -0.0842762834
C   C61       1.0  0.16980  0.13230  0.76130  1.0000 -0.1508063034
C   C62       1.0  0.16690  0.11910  0.84880  1.0000 -0.38844374
C   C63       1.0  0.28780  0.17880  0.83860  1.0000 0.5000398973
C   C64       1.0  0.82560  0.90990  0.59110  1.0000 0.5489278778
C   C65       1.0  0.75480  0.84020  0.53860  1.0000 -0.1106606974
C   C66       1.0  0.73330  0.79560  0.51670  1.0000 0.091380352
C   C67       1.0  0.75560  0.77390  0.51130  1.0000 0.0204602492
C   C68       1.0  0.79970  0.79680  0.52790  1.0000 -0.1340682391
C   C69       1.0  0.82140  0.84150  0.54990  1.0000 -0.0902506522
C   C70       1.0  0.79890  0.86310  0.55520  1.0000 -0.0004862061
C   C71       1.0  0.69220  0.77510  0.49490  1.0000 -0.38844374
C   C72       1.0  0.09470  0.03050  0.73040  1.0000 -0.3781366838
C   C73       1.0  0.66310  0.46260  0.43070  1.0000 0.5361727694
C   C74       1.0  0.64980  0.39540  0.43840  1.0000 -0.0902506522
C   C75       1.0  0.66560  0.43920  0.45420  1.0000 -0.0373310302
C   C76       1.0  0.68270  0.46640  0.49770  1.0000 -0.1106606974
C   C77       1.0  0.68420  0.44990  0.52530  1.0000 0.091380352
C   C78       1.0  0.66840  0.40610  0.50930  1.0000 0.0204602492
C   C79       1.0  0.65130  0.37890  0.46600  1.0000 -0.1419857043
C   C80       1.0  0.66630  0.38160  0.53510  1.0000 0.0279513583
C   C81       1.0  0.69790  0.37310  0.55440  1.0000 0.091380352
C   C82       1.0  0.69240  0.35090  0.57630  1.0000 -0.1340682391
C   C83       1.0  0.65510  0.33710  0.57880  1.0000 -0.0227913434
C   C84       1.0  0.62330  0.34540  0.55930  1.0000 -0.0842762834
C   C85       1.0  0.62900  0.36770  0.53750  1.0000 -0.1508063034
C   C86       1.0  0.72970  0.38090  0.54780  1.0000 -0.38844374
C   C87       1.0  0.65980  0.32120  0.60900  1.0000 0.5000398973
C   C88       1.0  0.68120  0.59010  0.41570  1.0000 0.5489278778
C   C89       1.0  0.69840  0.65980  0.41460  1.0000 -0.104614015
C   C90       1.0  0.72110  0.70440  0.43770  1.0000 0.091380352
C   C91       1.0  0.73740  0.72610  0.48170  1.0000 0.0204602492
C   C92       1.0  0.73110  0.70320  0.50290  1.0000 -0.1340682391
C   C93       1.0  0.70840  0.65850  0.47990  1.0000 -0.0902506522
C   C94       1.0  0.69210  0.63690  0.43580  1.0000 -0.0004862061
C   C95       1.0  0.71980  0.72490  0.41710  1.0000 -0.38844374
C   C96       1.0  0.69990  0.46950  0.56420  1.0000 -0.3781366838
C   C97       1.0  0.79950  0.46260  0.53190  1.0000 0.5361727694
C   C98       1.0  0.74560  0.39540  0.45700  1.0000 -0.0902506522
C   C99       1.0  0.77360  0.43920  0.48500  1.0000 -0.0373310302
C   C100      1.0  0.78370  0.46640  0.46870  1.0000 -0.1106606974
C   C101      1.0  0.76570  0.44990  0.42460  1.0000 0.091380352
C   C102      1.0  0.73770  0.40610  0.39680  1.0000 0.0204602492
C   C103      1.0  0.72760  0.37890  0.41290  1.0000 -0.1419857043
C   C104      1.0  0.71530  0.38160  0.34650  1.0000 0.0279513583
C   C105      1.0  0.67520  0.37310  0.31870  1.0000 0.0953653797
C   C106      1.0  0.65850  0.35090  0.27460  1.0000 -0.1340682391
C   C107      1.0  0.68200  0.33710  0.25830  1.0000 -0.0227913434
C   C108      1.0  0.72210  0.34540  0.28610  1.0000 -0.0842762834
C   C109      1.0  0.73870  0.36770  0.33020  1.0000 -0.1508063034
C   C110      1.0  0.65120  0.38090  0.33310  1.0000 -0.38844374
C   C111      1.0  0.66140  0.32120  0.21220  1.0000 0.5000398973
C   C112      1.0  0.90890  0.59010  0.67440  1.0000 0.5489278778
C   C113      1.0  0.96140  0.65980  0.74520  1.0000 -0.1106606974
C   C114      1.0  0.98330  0.70440  0.76670  1.0000 0.091380352
C   C115      1.0  0.98870  0.72610  0.74440  1.0000 0.0204602492
C   C116      1.0  0.97210  0.70320  0.70030  1.0000 -0.1340682391
C   C117      1.0  0.95010  0.65850  0.67860  1.0000 -0.0902506522
C   C118      1.0  0.94480  0.63690  0.70110  1.0000 -0.0004862061
C   C119      1.0  0.00510  0.72490  0.80780  1.0000 -0.38844374
C   C120      1.0  0.76960  0.46950  0.40530  1.0000 -0.3781366838
C   C121      1.0  0.06930  0.03740  0.83690  1.0000 0.5361727694
C   C122      1.0  0.06160  0.10460  0.85020  1.0000 -0.0902506522
C   C123      1.0  0.04580  0.06080  0.83440  1.0000 -0.0373310302
C   C124      1.0  0.00230  0.03360  0.81730  1.0000 -0.1106606974
C   C125      1.0  0.97470  0.05010  0.81580  1.0000 0.091380352
C   C126      1.0  0.99070  0.09390  0.83160  1.0000 0.0204602492
C   C127      1.0  0.03400  0.12110  0.84870  1.0000 -0.1419857043
C   C128      1.0  0.96490  0.11840  0.83370  1.0000 0.0279513583
C   C129      1.0  0.94560  0.12690  0.80210  1.0000 0.091380352
C   C130      1.0  0.92370  0.14910  0.80760  1.0000 -0.1340682391
C   C131      1.0  0.92120  0.16290  0.84490  1.0000 -0.0227913434
C   C132      1.0  0.94070  0.15460  0.87670  1.0000 -0.0842762834
C   C133      1.0  0.96250  0.13230  0.87100  1.0000 -0.1508063034
C   C134      1.0  0.95220  0.11910  0.77030  1.0000 -0.38844374
C   C135      1.0  0.89100  0.17880  0.84020  1.0000 0.5000398973
C   C136      1.0  0.08430  0.90990  0.81880  1.0000 0.5489278778
C   C137      1.0  0.08540  0.84020  0.80160  1.0000 -0.1106606974
C   C138      1.0  0.06230  0.79560  0.77890  1.0000 0.091380352
C   C139      1.0  0.01830  0.77390  0.76260  1.0000 0.0204602492
C   C140      1.0  0.99710  0.79680  0.76890  1.0000 -0.1340682391
C   C141      1.0  0.02010  0.84150  0.79160  1.0000 -0.0902506522
C   C142      1.0  0.06420  0.86310  0.80790  1.0000 -0.0004862061
C   C143      1.0  0.08290  0.77510  0.78020  1.0000 -0.38844374
C   C144      1.0  0.93580  0.03050  0.80010  1.0000 -0.3781366838
C   C145      1.0  0.83690  0.26760  0.79950  1.0000 0.5361727694
C   C146      1.0  0.85020  0.28860  0.74560  1.0000 -0.0902506522
C   C147      1.0  0.83440  0.28860  0.77360  1.0000 -0.0373310302
C   C148      1.0  0.81730  0.31500  0.78370  1.0000 -0.1106606974
C   C149      1.0  0.81580  0.34110  0.76570  1.0000 0.091380352
C   C150      1.0  0.83160  0.34090  0.73770  1.0000 0.0204602492
C   C151      1.0  0.84870  0.31470  0.72760  1.0000 -0.1419857043
C   C152      1.0  0.83370  0.36880  0.71530  1.0000 0.0279513583
C   C153      1.0  0.80210  0.35650  0.67520  1.0000 0.091380352
C   C154      1.0  0.80760  0.38390  0.65850  1.0000 -0.1340682391
C   C155      1.0  0.84490  0.42370  0.68200  1.0000 -0.0227913434
C   C156      1.0  0.87670  0.43600  0.72210  1.0000 -0.0842762834
C   C157      1.0  0.87100  0.40850  0.73870  1.0000 -0.1508063034
C   C158      1.0  0.77030  0.31810  0.65120  1.0000 -0.38844374
C   C159      1.0  0.84020  0.44920  0.66140  1.0000 0.5000398973
C   C160      1.0  0.81880  0.23450  0.90890  1.0000 0.5489278778
C   C161      1.0  0.80160  0.21620  0.96140  1.0000 -0.1106606974
C   C162      1.0  0.77890  0.21660  0.98330  1.0000 0.091380352
C   C163      1.0  0.76260  0.24430  0.98870  1.0000 0.0204602492
C   C164      1.0  0.76890  0.27180  0.97210  1.0000 -0.1340682391
C   C165      1.0  0.79160  0.27150  0.95010  1.0000 -0.0902506522
C   C166      1.0  0.80790  0.24370  0.94480  1.0000 -0.0004862061
C   C167      1.0  0.78020  0.19730  0.00510  1.0000 -0.38844374
C   C168      1.0  0.80010  0.36430  0.76960  1.0000 -0.3781366838
C   C169      1.0  0.53190  0.23240  0.06930  1.0000 0.5361727694
C   C170      1.0  0.45700  0.21140  0.06160  1.0000 -0.0902506522
C   C171      1.0  0.48500  0.21140  0.04580  1.0000 -0.0373310302
C   C172      1.0  0.46870  0.18500  0.00230  1.0000 -0.1106606974
C   C173      1.0  0.42460  0.15890  0.97470  1.0000 0.091380352
C   C174      1.0  0.39680  0.15910  0.99070  1.0000 0.0204602492
C   C175      1.0  0.41290  0.18530  0.03400  1.0000 -0.1419857043
C   C176      1.0  0.34650  0.13120  0.96490  1.0000 0.0279513583
C   C177      1.0  0.31870  0.14350  0.94560  1.0000 0.0953653797
C   C178      1.0  0.27460  0.11610  0.92370  1.0000 -0.1340682391
C   C179      1.0  0.25830  0.07630  0.92120  1.0000 -0.0227913434
C   C180      1.0  0.28610  0.06400  0.94070  1.0000 -0.0842762834
C   C181      1.0  0.33020  0.09150  0.96250  1.0000 -0.1508063034
C   C182      1.0  0.33310  0.18190  0.95220  1.0000 -0.38844374
C   C183      1.0  0.21220  0.05080  0.89100  1.0000 0.5000398973
C   C184      1.0  0.67440  0.26550  0.08430  1.0000 0.5489278778
C   C185      1.0  0.74520  0.28380  0.08540  1.0000 -0.104614015
C   C186      1.0  0.76670  0.28340  0.06230  1.0000 0.091380352
C   C187      1.0  0.74440  0.25570  0.01830  1.0000 0.0204602492
C   C188      1.0  0.70030  0.22820  0.99710  1.0000 -0.1340682391
C   C189      1.0  0.67860  0.22850  0.02010  1.0000 -0.0902506522
C   C190      1.0  0.70110  0.25630  0.06420  1.0000 -0.0004862061
C   C191      1.0  0.80780  0.30270  0.08290  1.0000 -0.38844374
C   C192      1.0  0.40530  0.13570  0.93580  1.0000 -0.3781366838
C   C193      1.0  0.03740  0.83690  0.06930  1.0000 0.5361727694
C   C194      1.0  0.10460  0.85020  0.06160  1.0000 -0.0902506522
C   C195      1.0  0.06080  0.83440  0.04580  1.0000 -0.0373310302
C   C196      1.0  0.03360  0.81730  0.00230  1.0000 -0.1106606974
C   C197      1.0  0.05010  0.81580  0.97470  1.0000 0.091380352
C   C198      1.0  0.09390  0.83160  0.99070  1.0000 0.0204602492
C   C199      1.0  0.12110  0.84870  0.03400  1.0000 -0.1419857043
C   C200      1.0  0.11840  0.83370  0.96490  1.0000 0.0279513583
C   C201      1.0  0.12690  0.80210  0.94560  1.0000 0.0953653797
C   C202      1.0  0.14910  0.80760  0.92370  1.0000 -0.1340682391
C   C203      1.0  0.16290  0.84490  0.92120  1.0000 -0.0227913434
C   C204      1.0  0.15460  0.87670  0.94070  1.0000 -0.0842762834
C   C205      1.0  0.13230  0.87100  0.96250  1.0000 -0.1508063034
C   C206      1.0  0.11910  0.77030  0.95220  1.0000 -0.38844374
C   C207      1.0  0.17880  0.84020  0.89100  1.0000 0.5000398973
C   C208      1.0  0.90990  0.81880  0.08430  1.0000 0.5489278778
C   C209      1.0  0.84020  0.80160  0.08540  1.0000 -0.104614015
C   C210      1.0  0.79560  0.77890  0.06230  1.0000 0.091380352
C   C211      1.0  0.77390  0.76260  0.01830  1.0000 0.0204602492
C   C212      1.0  0.79680  0.76890  0.99710  1.0000 -0.1340682391
C   C213      1.0  0.84150  0.79160  0.02010  1.0000 -0.0902506522
C   C214      1.0  0.86310  0.80790  0.06420  1.0000 -0.0004862061
C   C215      1.0  0.77510  0.78020  0.08290  1.0000 -0.38844374
C   C216      1.0  0.03050  0.80010  0.93580  1.0000 -0.3781366838
C   C217      1.0  0.46260  0.53190  0.79950  1.0000 0.5361727694
C   C218      1.0  0.39540  0.45700  0.74560  1.0000 -0.0902506522
C   C219      1.0  0.43920  0.48500  0.77360  1.0000 -0.0373310302
C   C220      1.0  0.46640  0.46870  0.78370  1.0000 -0.1106606974
C   C221      1.0  0.44990  0.42460  0.76570  1.0000 0.091380352
C   C222      1.0  0.40610  0.39680  0.73770  1.0000 0.0204602492
C   C223      1.0  0.37890  0.41290  0.72760  1.0000 -0.1419857043
C   C224      1.0  0.38160  0.34650  0.71530  1.0000 0.0279513583
C   C225      1.0  0.37310  0.31870  0.67520  1.0000 0.0953653797
C   C226      1.0  0.35090  0.27460  0.65850  1.0000 -0.1340682391
C   C227      1.0  0.33710  0.25830  0.68200  1.0000 -0.0227913434
C   C228      1.0  0.34540  0.28610  0.72210  1.0000 -0.0842762834
C   C229      1.0  0.36770  0.33020  0.73870  1.0000 -0.1508063034
C   C230      1.0  0.38090  0.33310  0.65120  1.0000 -0.38844374
C   C231      1.0  0.32120  0.21220  0.66140  1.0000 0.5000398973
C   C232      1.0  0.59010  0.67440  0.90890  1.0000 0.5489278778
C   C233      1.0  0.65980  0.74520  0.96140  1.0000 -0.104614015
C   C234      1.0  0.70440  0.76670  0.98330  1.0000 0.091380352
C   C235      1.0  0.72610  0.74440  0.98870  1.0000 0.0204602492
C   C236      1.0  0.70320  0.70030  0.97210  1.0000 -0.1340682391
C   C237      1.0  0.65850  0.67860  0.95010  1.0000 -0.0902506522
C   C238      1.0  0.63690  0.70110  0.94480  1.0000 -0.0004862061
C   C239      1.0  0.72490  0.80780  0.00510  1.0000 -0.38844374
C   C240      1.0  0.46950  0.40530  0.76960  1.0000 -0.3781366838
C   C241      1.0  0.23240  0.06930  0.53190  1.0000 0.5361727694
C   C242      1.0  0.21140  0.06160  0.45700  1.0000 -0.0902506522
C   C243      1.0  0.21140  0.04580  0.48500  1.0000 -0.0373310302
C   C244      1.0  0.18500  0.00230  0.46870  1.0000 -0.1106606974
C   C245      1.0  0.15890  0.97470  0.42460  1.0000 0.091380352
C   C246      1.0  0.15910  0.99070  0.39680  1.0000 0.0204602492
C   C247      1.0  0.18530  0.03400  0.41290  1.0000 -0.1419857043
C   C248      1.0  0.13120  0.96490  0.34650  1.0000 0.0279513583
C   C249      1.0  0.14350  0.94560  0.31870  1.0000 0.0953653797
C   C250      1.0  0.11610  0.92370  0.27460  1.0000 -0.1340682391
C   C251      1.0  0.07630  0.92120  0.25830  1.0000 -0.0227913434
C   C252      1.0  0.06400  0.94070  0.28610  1.0000 -0.0842762834
C   C253      1.0  0.09150  0.96250  0.33020  1.0000 -0.1508063034
C   C254      1.0  0.18190  0.95220  0.33310  1.0000 -0.38844374
C   C255      1.0  0.05080  0.89100  0.21220  1.0000 0.5000398973
C   C256      1.0  0.26550  0.08430  0.67440  1.0000 0.5489278778
C   C257      1.0  0.28380  0.08540  0.74520  1.0000 -0.104614015
C   C258      1.0  0.28340  0.06230  0.76670  1.0000 0.091380352
C   C259      1.0  0.25570  0.01830  0.74440  1.0000 0.0204602492
C   C260      1.0  0.22820  0.99710  0.70030  1.0000 -0.1419857043
C   C261      1.0  0.22850  0.02010  0.67860  1.0000 -0.0902506522
C   C262      1.0  0.25630  0.06420  0.70110  1.0000 -0.0004862061
C   C263      1.0  0.30270  0.08290  0.80780  1.0000 -0.38844374
C   C264      1.0  0.13570  0.93580  0.40530  1.0000 -0.3781366838
C   C265      1.0  0.26760  0.79950  0.83690  1.0000 0.5361727694
C   C266      1.0  0.28860  0.74560  0.85020  1.0000 -0.0902506522
C   C267      1.0  0.28860  0.77360  0.83440  1.0000 -0.0373310302
C   C268      1.0  0.31500  0.78370  0.81730  1.0000 -0.1106606974
C   C269      1.0  0.34110  0.76570  0.81580  1.0000 0.091380352
C   C270      1.0  0.34090  0.73770  0.83160  1.0000 0.0204602492
C   C271      1.0  0.31470  0.72760  0.84870  1.0000 -0.1419857043
C   C272      1.0  0.36880  0.71530  0.83370  1.0000 0.0279513583
C   C273      1.0  0.35650  0.67520  0.80210  1.0000 0.091380352
C   C274      1.0  0.38390  0.65850  0.80760  1.0000 -0.1340682391
C   C275      1.0  0.42370  0.68200  0.84490  1.0000 -0.0227913434
C   C276      1.0  0.43600  0.72210  0.87670  1.0000 -0.0842762834
C   C277      1.0  0.40850  0.73870  0.87100  1.0000 -0.1508063034
C   C278      1.0  0.31810  0.65120  0.77030  1.0000 -0.38844374
C   C279      1.0  0.44920  0.66140  0.84020  1.0000 0.5000398973
C   C280      1.0  0.23450  0.90890  0.81880  1.0000 0.5489278778
C   C281      1.0  0.21620  0.96140  0.80160  1.0000 -0.104614015
C   C282      1.0  0.21660  0.98330  0.77890  1.0000 0.091380352
C   C283      1.0  0.24430  0.98870  0.76260  1.0000 0.0204602492
C   C284      1.0  0.27180  0.97210  0.76890  1.0000 -0.1419857043
C   C285      1.0  0.27150  0.95010  0.79160  1.0000 -0.0902506522
C   C286      1.0  0.24370  0.94480  0.80790  1.0000 0.0004991577
C   C287      1.0  0.19730  0.00510  0.78020  1.0000 -0.38844374
C   C288      1.0  0.36430  0.76960  0.80010  1.0000 -0.3781366838
C   C289      1.0  0.26760  0.96810  0.43070  1.0000 0.5361727694
C   C290      1.0  0.28860  0.04300  0.43840  1.0000 -0.0902506522
C   C291      1.0  0.28860  0.01500  0.45420  1.0000 -0.0373310302
C   C292      1.0  0.31500  0.03130  0.49770  1.0000 -0.1106606974
C   C293      1.0  0.34110  0.07540  0.52530  1.0000 0.091380352
C   C294      1.0  0.34090  0.10320  0.50930  1.0000 0.0204602492
C   C295      1.0  0.31470  0.08710  0.46600  1.0000 -0.1419857043
C   C296      1.0  0.36880  0.15350  0.53510  1.0000 0.0279513583
C   C297      1.0  0.35650  0.18130  0.55440  1.0000 0.0953653797
C   C298      1.0  0.38390  0.22540  0.57630  1.0000 -0.1340682391
C   C299      1.0  0.42370  0.24170  0.57880  1.0000 -0.0227913434
C   C300      1.0  0.43600  0.21390  0.55930  1.0000 -0.0842762834
C   C301      1.0  0.40850  0.16980  0.53750  1.0000 -0.1508063034
C   C302      1.0  0.31810  0.16690  0.54780  1.0000 -0.38844374
C   C303      1.0  0.44920  0.28780  0.60900  1.0000 0.5000398973
C   C304      1.0  0.23450  0.82560  0.41570  1.0000 0.5489278778
C   C305      1.0  0.21620  0.75480  0.41460  1.0000 -0.104614015
C   C306      1.0  0.21660  0.73330  0.43770  1.0000 0.091380352
C   C307      1.0  0.24430  0.75560  0.48170  1.0000 0.0204602492
C   C308      1.0  0.27180  0.79970  0.50290  1.0000 -0.1340682391
C   C309      1.0  0.27150  0.82140  0.47990  1.0000 -0.0902506522
C   C310      1.0  0.24370  0.79890  0.43580  1.0000 -0.0004862061
C   C311      1.0  0.19730  0.69220  0.41710  1.0000 -0.38844374
C   C312      1.0  0.36430  0.09470  0.56420  1.0000 -0.3781366838
C   C313      1.0  0.23240  0.66310  0.70050  1.0000 0.5361727694
C   C314      1.0  0.21140  0.64980  0.75440  1.0000 -0.0902506522
C   C315      1.0  0.21140  0.66560  0.72640  1.0000 -0.0373310302
C   C316      1.0  0.18500  0.68270  0.71630  1.0000 -0.1106606974
C   C317      1.0  0.15890  0.68420  0.73430  1.0000 0.091380352
C   C318      1.0  0.15910  0.66840  0.76230  1.0000 0.0204602492
C   C319      1.0  0.18530  0.65130  0.77240  1.0000 -0.1419857043
C   C320      1.0  0.13120  0.66630  0.78470  1.0000 0.0279513583
C   C321      1.0  0.14350  0.69790  0.82480  1.0000 0.0953653797
C   C322      1.0  0.11610  0.69240  0.84150  1.0000 -0.1340682391
C   C323      1.0  0.07630  0.65510  0.81800  1.0000 -0.0227913434
C   C324      1.0  0.06400  0.62330  0.77790  1.0000 -0.0842762834
C   C325      1.0  0.09150  0.62900  0.76130  1.0000 -0.1508063034
C   C326      1.0  0.18190  0.72970  0.84880  1.0000 -0.38844374
C   C327      1.0  0.05080  0.65980  0.83860  1.0000 0.5000398973
C   C328      1.0  0.26550  0.68120  0.59110  1.0000 0.5489278778
C   C329      1.0  0.28380  0.69840  0.53860  1.0000 -0.1106606974
C   C330      1.0  0.28340  0.72110  0.51670  1.0000 0.091380352
C   C331      1.0  0.25570  0.73740  0.51130  1.0000 0.0204602492
C   C332      1.0  0.22820  0.73110  0.52790  1.0000 -0.1340682391
C   C333      1.0  0.22850  0.70840  0.54990  1.0000 -0.0902506522
C   C334      1.0  0.25630  0.69210  0.55520  1.0000 -0.0004862061
C   C335      1.0  0.30270  0.71980  0.49490  1.0000 -0.38844374
C   C336      1.0  0.13570  0.69990  0.73040  1.0000 -0.3781366838
C   C337      1.0  0.46260  0.43070  0.66310  1.0000 0.5361727694
C   C338      1.0  0.39540  0.43840  0.64980  1.0000 -0.0902506522
C   C339      1.0  0.43920  0.45420  0.66560  1.0000 -0.0373310302
C   C340      1.0  0.46640  0.49770  0.68270  1.0000 -0.1106606974
C   C341      1.0  0.44990  0.52530  0.68420  1.0000 0.091380352
C   C342      1.0  0.40610  0.50930  0.66840  1.0000 0.0204602492
C   C343      1.0  0.37890  0.46600  0.65130  1.0000 -0.1419857043
C   C344      1.0  0.38160  0.53510  0.66630  1.0000 0.0279513583
C   C345      1.0  0.37310  0.55440  0.69790  1.0000 0.0953653797
C   C346      1.0  0.35090  0.57630  0.69240  1.0000 -0.1340682391
C   C347      1.0  0.33710  0.57880  0.65510  1.0000 -0.0227913434
C   C348      1.0  0.34540  0.55930  0.62330  1.0000 -0.0842762834
C   C349      1.0  0.36770  0.53750  0.62900  1.0000 -0.1508063034
C   C350      1.0  0.38090  0.54780  0.72970  1.0000 -0.38844374
C   C351      1.0  0.32120  0.60900  0.65980  1.0000 0.5000398973
C   C352      1.0  0.59010  0.41570  0.68120  1.0000 0.5489278778
C   C353      1.0  0.65980  0.41460  0.69840  1.0000 -0.104614015
C   C354      1.0  0.70440  0.43770  0.72110  1.0000 0.091380352
C   C355      1.0  0.72610  0.48170  0.73740  1.0000 0.0204602492
C   C356      1.0  0.70320  0.50290  0.73110  1.0000 -0.1340682391
C   C357      1.0  0.65850  0.47990  0.70840  1.0000 -0.0902506522
C   C358      1.0  0.63690  0.43580  0.69210  1.0000 -0.0004862061
C   C359      1.0  0.72490  0.41710  0.71980  1.0000 -0.38844374
C   C360      1.0  0.46950  0.56420  0.69990  1.0000 -0.3781366838
C   C361      1.0  0.03740  0.70050  0.96810  1.0000 0.5361727694
C   C362      1.0  0.10460  0.75440  0.04300  1.0000 -0.0902506522
C   C363      1.0  0.06080  0.72640  0.01500  1.0000 -0.0373310302
C   C364      1.0  0.03360  0.71630  0.03130  1.0000 -0.1106606974
C   C365      1.0  0.05010  0.73430  0.07540  1.0000 0.091380352
C   C366      1.0  0.09390  0.76230  0.10320  1.0000 0.0204602492
C   C367      1.0  0.12110  0.77240  0.08710  1.0000 -0.1419857043
C   C368      1.0  0.11840  0.78470  0.15350  1.0000 0.0279513583
C   C369      1.0  0.12690  0.82480  0.18130  1.0000 0.0953653797
C   C370      1.0  0.14910  0.84150  0.22540  1.0000 -0.1340682391
C   C371      1.0  0.16290  0.81800  0.24170  1.0000 -0.0227913434
C   C372      1.0  0.15460  0.77790  0.21390  1.0000 -0.0842762834
C   C373      1.0  0.13230  0.76130  0.16980  1.0000 -0.1508063034
C   C374      1.0  0.11910  0.84880  0.16690  1.0000 -0.38844374
C   C375      1.0  0.17880  0.83860  0.28780  1.0000 0.5000398973
C   C376      1.0  0.90990  0.59110  0.82560  1.0000 0.5489278778
C   C377      1.0  0.84020  0.53860  0.75480  1.0000 -0.104614015
C   C378      1.0  0.79560  0.51670  0.73330  1.0000 0.091380352
C   C379      1.0  0.77390  0.51130  0.75560  1.0000 0.0204602492
C   C380      1.0  0.79680  0.52790  0.79970  1.0000 -0.1340682391
C   C381      1.0  0.84150  0.54990  0.82140  1.0000 -0.0902506522
C   C382      1.0  0.86310  0.55520  0.79890  1.0000 -0.0004862061
C   C383      1.0  0.77510  0.49490  0.69220  1.0000 -0.38844374
C   C384      1.0  0.03050  0.73040  0.09470  1.0000 -0.3781366838
C   C385      1.0  0.96810  0.43070  0.26760  1.0000 0.5361727694
C   C386      1.0  0.04300  0.43840  0.28860  1.0000 -0.0902506522
C   C387      1.0  0.01500  0.45420  0.28860  1.0000 -0.0373310302
C   C388      1.0  0.03130  0.49770  0.31500  1.0000 -0.1106606974
C   C389      1.0  0.07540  0.52530  0.34110  1.0000 0.091380352
C   C390      1.0  0.10320  0.50930  0.34090  1.0000 0.0204602492
C   C391      1.0  0.08710  0.46600  0.31470  1.0000 -0.1419857043
C   C392      1.0  0.15350  0.53510  0.36880  1.0000 0.0279513583
C   C393      1.0  0.18130  0.55440  0.35650  1.0000 0.0953653797
C   C394      1.0  0.22540  0.57630  0.38390  1.0000 -0.1340682391
C   C395      1.0  0.24170  0.57880  0.42370  1.0000 -0.0227913434
C   C396      1.0  0.21390  0.55930  0.43600  1.0000 -0.0842762834
C   C397      1.0  0.16980  0.53750  0.40850  1.0000 -0.1508063034
C   C398      1.0  0.16690  0.54780  0.31810  1.0000 -0.38844374
C   C399      1.0  0.28780  0.60900  0.44920  1.0000 0.5000398973
C   C400      1.0  0.82560  0.41570  0.23450  1.0000 0.5489278778
C   C401      1.0  0.75480  0.41460  0.21620  1.0000 -0.104614015
C   C402      1.0  0.73330  0.43770  0.21660  1.0000 0.091380352
C   C403      1.0  0.75560  0.48170  0.24430  1.0000 0.0204602492
C   C404      1.0  0.79970  0.50290  0.27180  1.0000 -0.1340682391
C   C405      1.0  0.82140  0.47990  0.27150  1.0000 -0.0902506522
C   C406      1.0  0.79890  0.43580  0.24370  1.0000 -0.0004862061
C   C407      1.0  0.69220  0.41710  0.19730  1.0000 -0.38844374
C   C408      1.0  0.09470  0.56420  0.36430  1.0000 -0.3781366838
C   C409      1.0  0.66310  0.70050  0.23240  1.0000 0.5361727694
C   C410      1.0  0.64980  0.75440  0.21140  1.0000 -0.0902506522
C   C411      1.0  0.66560  0.72640  0.21140  1.0000 -0.0373310302
C   C412      1.0  0.68270  0.71630  0.18500  1.0000 -0.1106606974
C   C413      1.0  0.68420  0.73430  0.15890  1.0000 0.091380352
C   C414      1.0  0.66840  0.76230  0.15910  1.0000 0.0204602492
C   C415      1.0  0.65130  0.77240  0.18530  1.0000 -0.1419857043
C   C416      1.0  0.66630  0.78470  0.13120  1.0000 0.0279513583
C   C417      1.0  0.69790  0.82480  0.14350  1.0000 0.091380352
C   C418      1.0  0.69240  0.84150  0.11610  1.0000 -0.1340682391
C   C419      1.0  0.65510  0.81800  0.07630  1.0000 -0.0227913434
C   C420      1.0  0.62330  0.77790  0.06400  1.0000 -0.0842762834
C   C421      1.0  0.62900  0.76130  0.09150  1.0000 -0.1508063034
C   C422      1.0  0.72970  0.84880  0.18190  1.0000 -0.38844374
C   C423      1.0  0.65980  0.83860  0.05080  1.0000 0.5000398973
C   C424      1.0  0.68120  0.59110  0.26550  1.0000 0.5489278778
C   C425      1.0  0.69840  0.53860  0.28380  1.0000 -0.1106606974
C   C426      1.0  0.72110  0.51670  0.28340  1.0000 0.091380352
C   C427      1.0  0.73740  0.51130  0.25570  1.0000 0.0204602492
C   C428      1.0  0.73110  0.52790  0.22820  1.0000 -0.1340682391
C   C429      1.0  0.70840  0.54990  0.22850  1.0000 -0.0902506522
C   C430      1.0  0.69210  0.55520  0.25630  1.0000 -0.0004862061
C   C431      1.0  0.71980  0.49490  0.30270  1.0000 -0.38844374
C   C432      1.0  0.69990  0.73040  0.13570  1.0000 -0.3781366838
C   C433      1.0  0.43070  0.66310  0.46260  1.0000 0.5361727694
C   C434      1.0  0.43840  0.64980  0.39540  1.0000 -0.0902506522
C   C435      1.0  0.45420  0.66560  0.43920  1.0000 -0.0373310302
C   C436      1.0  0.49770  0.68270  0.46640  1.0000 -0.1106606974
C   C437      1.0  0.52530  0.68420  0.44990  1.0000 0.091380352
C   C438      1.0  0.50930  0.66840  0.40610  1.0000 0.0204602492
C   C439      1.0  0.46600  0.65130  0.37890  1.0000 -0.1419857043
C   C440      1.0  0.53510  0.66630  0.38160  1.0000 0.0279513583
C   C441      1.0  0.55440  0.69790  0.37310  1.0000 0.091380352
C   C442      1.0  0.57630  0.69240  0.35090  1.0000 -0.1340682391
C   C443      1.0  0.57880  0.65510  0.33710  1.0000 -0.0227913434
C   C444      1.0  0.55930  0.62330  0.34540  1.0000 -0.0842762834
C   C445      1.0  0.53750  0.62900  0.36770  1.0000 -0.1508063034
C   C446      1.0  0.54780  0.72970  0.38090  1.0000 -0.38844374
C   C447      1.0  0.60900  0.65980  0.32120  1.0000 0.5000398973
C   C448      1.0  0.41570  0.68120  0.59010  1.0000 0.5489278778
C   C449      1.0  0.41460  0.69840  0.65980  1.0000 -0.104614015
C   C450      1.0  0.43770  0.72110  0.70440  1.0000 0.091380352
C   C451      1.0  0.48170  0.73740  0.72610  1.0000 0.0204602492
C   C452      1.0  0.50290  0.73110  0.70320  1.0000 -0.1340682391
C   C453      1.0  0.47990  0.70840  0.65850  1.0000 -0.0902506522
C   C454      1.0  0.43580  0.69210  0.63690  1.0000 -0.0004862061
C   C455      1.0  0.41710  0.71980  0.72490  1.0000 -0.38844374
C   C456      1.0  0.56420  0.69990  0.46950  1.0000 -0.3781366838
C   C457      1.0  0.70050  0.96810  0.03740  1.0000 0.5361727694
C   C458      1.0  0.75440  0.04300  0.10460  1.0000 -0.0902506522
C   C459      1.0  0.72640  0.01500  0.06080  1.0000 -0.0373310302
C   C460      1.0  0.71630  0.03130  0.03360  1.0000 -0.1106606974
C   C461      1.0  0.73430  0.07540  0.05010  1.0000 0.091380352
C   C462      1.0  0.76230  0.10320  0.09390  1.0000 0.0204602492
C   C463      1.0  0.77240  0.08710  0.12110  1.0000 -0.1419857043
C   C464      1.0  0.78470  0.15350  0.11840  1.0000 0.0279513583
C   C465      1.0  0.82480  0.18130  0.12690  1.0000 0.091380352
C   C466      1.0  0.84150  0.22540  0.14910  1.0000 -0.1340682391
C   C467      1.0  0.81800  0.24170  0.16290  1.0000 -0.0227913434
C   C468      1.0  0.77790  0.21390  0.15460  1.0000 -0.0842762834
C   C469      1.0  0.76130  0.16980  0.13230  1.0000 -0.1508063034
C   C470      1.0  0.84880  0.16690  0.11910  1.0000 -0.38844374
C   C471      1.0  0.83860  0.28780  0.17880  1.0000 0.5000398973
C   C472      1.0  0.59110  0.82560  0.90990  1.0000 0.5489278778
C   C473      1.0  0.53860  0.75480  0.84020  1.0000 -0.104614015
C   C474      1.0  0.51670  0.73330  0.79560  1.0000 0.091380352
C   C475      1.0  0.51130  0.75560  0.77390  1.0000 0.0204602492
C   C476      1.0  0.52790  0.79970  0.79680  1.0000 -0.1340682391
C   C477      1.0  0.54990  0.82140  0.84150  1.0000 -0.0902506522
C   C478      1.0  0.55520  0.79890  0.86310  1.0000 -0.0004862061
C   C479      1.0  0.49490  0.69220  0.77510  1.0000 -0.38844374
C   C480      1.0  0.73040  0.09470  0.03050  1.0000 -0.3781366838
C   C481      1.0  0.83690  0.06930  0.03740  1.0000 0.5361727694
C   C482      1.0  0.85020  0.06160  0.10460  1.0000 -0.0902506522
C   C483      1.0  0.83440  0.04580  0.06080  1.0000 -0.0373310302
C   C484      1.0  0.81730  0.00230  0.03360  1.0000 -0.1106606974
C   C485      1.0  0.81580  0.97470  0.05010  1.0000 0.091380352
C   C486      1.0  0.83160  0.99070  0.09390  1.0000 0.0204602492
C   C487      1.0  0.84870  0.03400  0.12110  1.0000 -0.1419857043
C   C488      1.0  0.83370  0.96490  0.11840  1.0000 0.0279513583
C   C489      1.0  0.80210  0.94560  0.12690  1.0000 0.091380352
C   C490      1.0  0.80760  0.92370  0.14910  1.0000 -0.1340682391
C   C491      1.0  0.84490  0.92120  0.16290  1.0000 -0.0227913434
C   C492      1.0  0.87670  0.94070  0.15460  1.0000 -0.0842762834
C   C493      1.0  0.87100  0.96250  0.13230  1.0000 -0.1508063034
C   C494      1.0  0.77030  0.95220  0.11910  1.0000 -0.38844374
C   C495      1.0  0.84020  0.89100  0.17880  1.0000 0.5000398973
C   C496      1.0  0.81880  0.08430  0.90990  1.0000 0.5489278778
C   C497      1.0  0.80160  0.08540  0.84020  1.0000 -0.1106606974
C   C498      1.0  0.77890  0.06230  0.79560  1.0000 0.091380352
C   C499      1.0  0.76260  0.01830  0.77390  1.0000 0.0204602492
C   C500      1.0  0.76890  0.99710  0.79680  1.0000 -0.1340682391
C   C501      1.0  0.79160  0.02010  0.84150  1.0000 -0.0902506522
C   C502      1.0  0.80790  0.06420  0.86310  1.0000 -0.0004862061
C   C503      1.0  0.78020  0.08290  0.77510  1.0000 -0.38844374
C   C504      1.0  0.80010  0.93580  0.03050  1.0000 -0.3781366838
C   C505      1.0  0.53190  0.79950  0.46260  1.0000 0.5361727694
C   C506      1.0  0.45700  0.74560  0.39540  1.0000 -0.0902506522
C   C507      1.0  0.48500  0.77360  0.43920  1.0000 -0.0373310302
C   C508      1.0  0.46870  0.78370  0.46640  1.0000 -0.1106606974
C   C509      1.0  0.42460  0.76570  0.44990  1.0000 0.091380352
C   C510      1.0  0.39680  0.73770  0.40610  1.0000 0.0204602492
C   C511      1.0  0.41290  0.72760  0.37890  1.0000 -0.1419857043
C   C512      1.0  0.34650  0.71530  0.38160  1.0000 0.0279513583
C   C513      1.0  0.31870  0.67520  0.37310  1.0000 0.091380352
C   C514      1.0  0.27460  0.65850  0.35090  1.0000 -0.1340682391
C   C515      1.0  0.25830  0.68200  0.33710  1.0000 -0.0227913434
C   C516      1.0  0.28610  0.72210  0.34540  1.0000 -0.0842762834
C   C517      1.0  0.33020  0.73870  0.36770  1.0000 -0.1508063034
C   C518      1.0  0.33310  0.65120  0.38090  1.0000 -0.38844374
C   C519      1.0  0.21220  0.66140  0.32120  1.0000 0.5000398973
C   C520      1.0  0.67440  0.90890  0.59010  1.0000 0.5489278778
C   C521      1.0  0.74520  0.96140  0.65980  1.0000 -0.1106606974
C   C522      1.0  0.76670  0.98330  0.70440  1.0000 0.091380352
C   C523      1.0  0.74440  0.98870  0.72610  1.0000 0.0204602492
C   C524      1.0  0.70030  0.97210  0.70320  1.0000 -0.1340682391
C   C525      1.0  0.67860  0.95010  0.65850  1.0000 -0.0902506522
C   C526      1.0  0.70110  0.94480  0.63690  1.0000 -0.0004862061
C   C527      1.0  0.80780  0.00510  0.72490  1.0000 -0.38844374
C   C528      1.0  0.40530  0.76960  0.46950  1.0000 -0.3781366838
C   C529      1.0  0.06930  0.53190  0.23240  1.0000 0.5361727694
C   C530      1.0  0.06160  0.45700  0.21140  1.0000 -0.0902506522
C   C531      1.0  0.04580  0.48500  0.21140  1.0000 -0.0373310302
C   C532      1.0  0.00230  0.46870  0.18500  1.0000 -0.1106606974
C   C533      1.0  0.97470  0.42460  0.15890  1.0000 0.091380352
C   C534      1.0  0.99070  0.39680  0.15910  1.0000 0.0204602492
C   C535      1.0  0.03400  0.41290  0.18530  1.0000 -0.1419857043
C   C536      1.0  0.96490  0.34650  0.13120  1.0000 0.0279513583
C   C537      1.0  0.94560  0.31870  0.14350  1.0000 0.091380352
C   C538      1.0  0.92370  0.27460  0.11610  1.0000 -0.1340682391
C   C539      1.0  0.92120  0.25830  0.07630  1.0000 -0.0227913434
C   C540      1.0  0.94070  0.28610  0.06400  1.0000 -0.0842762834
C   C541      1.0  0.96250  0.33020  0.09150  1.0000 -0.1508063034
C   C542      1.0  0.95220  0.33310  0.18190  1.0000 -0.38844374
C   C543      1.0  0.89100  0.21220  0.05080  1.0000 0.5000398973
C   C544      1.0  0.08430  0.67440  0.26550  1.0000 0.5489278778
C   C545      1.0  0.08540  0.74520  0.28380  1.0000 -0.104614015
C   C546      1.0  0.06230  0.76670  0.28340  1.0000 0.091380352
C   C547      1.0  0.01830  0.74440  0.25570  1.0000 0.0204602492
C   C548      1.0  0.99710  0.70030  0.22820  1.0000 -0.1340682391
C   C549      1.0  0.02010  0.67860  0.22850  1.0000 -0.0902506522
C   C550      1.0  0.06420  0.70110  0.25630  1.0000 -0.0004862061
C   C551      1.0  0.08290  0.80780  0.30270  1.0000 -0.38844374
C   C552      1.0  0.93580  0.40530  0.13570  1.0000 -0.3781366838
C   C553      1.0  0.79950  0.83690  0.26760  1.0000 0.5361727694
C   C554      1.0  0.74560  0.85020  0.28860  1.0000 -0.0902506522
C   C555      1.0  0.77360  0.83440  0.28860  1.0000 -0.0373310302
C   C556      1.0  0.78370  0.81730  0.31500  1.0000 -0.1106606974
C   C557      1.0  0.76570  0.81580  0.34110  1.0000 0.091380352
C   C558      1.0  0.73770  0.83160  0.34090  1.0000 0.0204602492
C   C559      1.0  0.72760  0.84870  0.31470  1.0000 -0.1419857043
C   C560      1.0  0.71530  0.83370  0.36880  1.0000 0.0279513583
C   C561      1.0  0.67520  0.80210  0.35650  1.0000 0.091380352
C   C562      1.0  0.65850  0.80760  0.38390  1.0000 -0.1340682391
C   C563      1.0  0.68200  0.84490  0.42370  1.0000 -0.0227913434
C   C564      1.0  0.72210  0.87670  0.43600  1.0000 -0.0842762834
C   C565      1.0  0.73870  0.87100  0.40850  1.0000 -0.1508063034
C   C566      1.0  0.65120  0.77030  0.31810  1.0000 -0.38844374
C   C567      1.0  0.66140  0.84020  0.44920  1.0000 0.5000398973
C   C568      1.0  0.90890  0.81880  0.23450  1.0000 0.5489278778
C   C569      1.0  0.96140  0.80160  0.21620  1.0000 -0.104614015
C   C570      1.0  0.98330  0.77890  0.21660  1.0000 0.091380352
C   C571      1.0  0.98870  0.76260  0.24430  1.0000 0.0204602492
C   C572      1.0  0.97210  0.76890  0.27180  1.0000 -0.1340682391
C   C573      1.0  0.95010  0.79160  0.27150  1.0000 -0.0902506522
C   C574      1.0  0.94480  0.80790  0.24370  1.0000 -0.0004862061
C   C575      1.0  0.00510  0.78020  0.19730  1.0000 -0.38844374
C   C576      1.0  0.76960  0.80010  0.36430  1.0000 -0.3781366838
O   O1        1.0  0.81330  0.00750  0.63100  1.0000 -0.585992132
O   O2        1.0  0.88270  0.06960  0.68510  1.0000 -0.6329105154
O   O3        1.0  0.70270  0.25490  0.64380  1.0000 -0.54107978
O   O4        1.0  0.67460  0.23060  0.67860  1.0000 -0.515851148
O   O5        1.0  0.59610  0.28940  0.66290  1.0000 -0.5312119306
O   O6        1.0  0.61060  0.24260  0.68260  1.0000 -0.54107978
O   O7        1.0  0.61470  0.22950  0.60920  1.0000 -0.4434946437
O   O8        1.0  0.69160  0.32410  0.70610  1.0000 -0.7125227358
O   O9        1.0  0.62350  0.49250  0.30580  1.0000 -0.585992132
O   O10       1.0  0.61550  0.43040  0.31310  1.0000 -0.6329105154
O   O11       1.0  0.38890  0.24510  0.94780  1.0000 -0.54107978
O   O12       1.0  0.44800  0.26940  0.94400  1.0000 -0.515851148
O   O13       1.0  0.37350  0.21060  0.80670  1.0000 -0.5312119306
O   O14       1.0  0.44000  0.25740  0.86800  1.0000 -0.54107978
O   O15       1.0  0.37970  0.27050  0.88520  1.0000 -0.4434946437
O   O16       1.0  0.38200  0.17590  0.86750  1.0000 -0.7125227358
O   O17       1.0  0.30580  0.18230  0.81330  1.0000 -0.585992132
O   O18       1.0  0.31310  0.19760  0.88270  1.0000 -0.6329105154
O   O19       1.0  0.94780  0.05890  0.70270  1.0000 -0.54107978
O   O20       1.0  0.94400  0.99600  0.67460  1.0000 -0.5140135103
O   O21       1.0  0.80670  0.93320  0.59610  1.0000 -0.5312119306
O   O22       1.0  0.86800  0.92800  0.61060  1.0000 -0.54107978
O   O23       1.0  0.88520  0.00550  0.61470  1.0000 -0.4434946437
O   O24       1.0  0.86750  0.98550  0.69160  1.0000 -0.7125227358
O   O25       1.0  0.63100  0.31770  0.62350  1.0000 -0.585992132
O   O26       1.0  0.68510  0.30240  0.61550  1.0000 -0.6329105154
O   O27       1.0  0.64380  0.44110  0.38890  1.0000 -0.54107978
O   O28       1.0  0.67860  0.50400  0.44800  1.0000 -0.5140135103
O   O29       1.0  0.66290  0.56680  0.37350  1.0000 -0.5312119306
O   O30       1.0  0.68260  0.57200  0.44000  1.0000 -0.54107978
O   O31       1.0  0.60920  0.49450  0.37970  1.0000 -0.4434946437
O   O32       1.0  0.70610  0.51450  0.38200  1.0000 -0.7125227358
O   O33       1.0  0.68670  0.31770  0.19420  1.0000 -0.585992132
O   O34       1.0  0.61730  0.30240  0.18690  1.0000 -0.6329105154
O   O35       1.0  0.79730  0.44110  0.55220  1.0000 -0.54107978
O   O36       1.0  0.82540  0.50400  0.55600  1.0000 -0.5140135103
O   O37       1.0  0.90390  0.56680  0.69330  1.0000 -0.5312119306
O   O38       1.0  0.88940  0.57200  0.63200  1.0000 -0.54107978
O   O39       1.0  0.88530  0.49450  0.61480  1.0000 -0.4434946437
O   O40       1.0  0.80840  0.51450  0.63250  1.0000 -0.7125227358
O   O41       1.0  0.87650  0.18230  0.86900  1.0000 -0.585992132
O   O42       1.0  0.88450  0.19760  0.81490  1.0000 -0.6329105154
O   O43       1.0  0.11110  0.05890  0.85620  1.0000 -0.54107978
O   O44       1.0  0.05200  0.99600  0.82140  1.0000 -0.515851148
O   O45       1.0  0.12650  0.93320  0.83710  1.0000 -0.5312119306
O   O46       1.0  0.06000  0.92800  0.81740  1.0000 -0.54107978
O   O47       1.0  0.12030  0.00550  0.89080  1.0000 -0.4434946437
O   O48       1.0  0.11800  0.98550  0.79390  1.0000 -0.7125227358
O   O49       1.0  0.86900  0.49250  0.68670  1.0000 -0.585992132
O   O50       1.0  0.81490  0.43040  0.61730  1.0000 -0.6329105154
O   O51       1.0  0.85620  0.24510  0.79730  1.0000 -0.54107978
O   O52       1.0  0.82140  0.26940  0.82540  1.0000 -0.515851148
O   O53       1.0  0.83710  0.21060  0.90390  1.0000 -0.5312119306
O   O54       1.0  0.81740  0.25740  0.88940  1.0000 -0.54107978
O   O55       1.0  0.89080  0.27050  0.88530  1.0000 -0.4434946437
O   O56       1.0  0.79390  0.17590  0.80840  1.0000 -0.7125227358
O   O57       1.0  0.19420  0.00750  0.87650  1.0000 -0.585992132
O   O58       1.0  0.18690  0.06960  0.88450  1.0000 -0.6329105154
O   O59       1.0  0.55220  0.25490  0.11110  1.0000 -0.54107978
O   O60       1.0  0.55600  0.23060  0.05200  1.0000 -0.515851148
O   O61       1.0  0.69330  0.28940  0.12650  1.0000 -0.5312119306
O   O62       1.0  0.63200  0.24260  0.06000  1.0000 -0.54107978
O   O63       1.0  0.61480  0.22950  0.12030  1.0000 -0.4434946437
O   O64       1.0  0.63250  0.32410  0.11800  1.0000 -0.7125227358
O   O65       1.0  0.18230  0.86900  0.87650  1.0000 -0.585992132
O   O66       1.0  0.19760  0.81490  0.88450  1.0000 -0.6329105154
O   O67       1.0  0.05890  0.85620  0.11110  1.0000 -0.54107978
O   O68       1.0  0.99600  0.82140  0.05200  1.0000 -0.5140135103
O   O69       1.0  0.93320  0.83710  0.12650  1.0000 -0.5312119306
O   O70       1.0  0.92800  0.81740  0.06000  1.0000 -0.54107978
O   O71       1.0  0.00550  0.89080  0.12030  1.0000 -0.4458416284
O   O72       1.0  0.98550  0.79390  0.11800  1.0000 -0.7125227358
O   O73       1.0  0.31770  0.19420  0.68670  1.0000 -0.585992132
O   O74       1.0  0.30240  0.18690  0.61730  1.0000 -0.6329105154
O   O75       1.0  0.44110  0.55220  0.79730  1.0000 -0.54107978
O   O76       1.0  0.50400  0.55600  0.82540  1.0000 -0.515851148
O   O77       1.0  0.56680  0.69330  0.90390  1.0000 -0.5312119306
O   O78       1.0  0.57200  0.63200  0.88940  1.0000 -0.54107978
O   O79       1.0  0.49450  0.61480  0.88530  1.0000 -0.4434946437
O   O80       1.0  0.51450  0.63250  0.80840  1.0000 -0.7125227358
O   O81       1.0  0.00750  0.87650  0.19420  1.0000 -0.585992132
O   O82       1.0  0.06960  0.88450  0.18690  1.0000 -0.6329105154
O   O83       1.0  0.25490  0.11110  0.55220  1.0000 -0.54107978
O   O84       1.0  0.23060  0.05200  0.55600  1.0000 -0.5140135103
O   O85       1.0  0.28940  0.12650  0.69330  1.0000 -0.5312119306
O   O86       1.0  0.24260  0.06000  0.63200  1.0000 -0.54107978
O   O87       1.0  0.22950  0.12030  0.61480  1.0000 -0.4434946437
O   O88       1.0  0.32410  0.11800  0.63250  1.0000 -0.7125227358
O   O89       1.0  0.49250  0.68670  0.86900  1.0000 -0.585992132
O   O90       1.0  0.43040  0.61730  0.81490  1.0000 -0.6329105154
O   O91       1.0  0.24510  0.79730  0.85620  1.0000 -0.54107978
O   O92       1.0  0.26940  0.82540  0.82140  1.0000 -0.515851148
O   O93       1.0  0.21060  0.90390  0.83710  1.0000 -0.5312119306
O   O94       1.0  0.25740  0.88940  0.81740  1.0000 -0.54107978
O   O95       1.0  0.27050  0.88530  0.89080  1.0000 -0.4434946437
O   O96       1.0  0.17590  0.80840  0.79390  1.0000 -0.7125227358
O   O97       1.0  0.49250  0.30580  0.62350  1.0000 -0.585992132
O   O98       1.0  0.43040  0.31310  0.61550  1.0000 -0.6329105154
O   O99       1.0  0.24510  0.94780  0.38890  1.0000 -0.54107978
O   O100      1.0  0.26940  0.94400  0.44800  1.0000 -0.515851148
O   O101      1.0  0.21060  0.80670  0.37350  1.0000 -0.5312119306
O   O102      1.0  0.25740  0.86800  0.44000  1.0000 -0.54107978
O   O103      1.0  0.27050  0.88520  0.37970  1.0000 -0.4434946437
O   O104      1.0  0.17590  0.86750  0.38200  1.0000 -0.7125227358
O   O105      1.0  0.00750  0.63100  0.81330  1.0000 -0.585992132
O   O106      1.0  0.06960  0.68510  0.88270  1.0000 -0.6329105154
O   O107      1.0  0.25490  0.64380  0.70270  1.0000 -0.54107978
O   O108      1.0  0.23060  0.67860  0.67460  1.0000 -0.515851148
O   O109      1.0  0.28940  0.66290  0.59610  1.0000 -0.5312119306
O   O110      1.0  0.24260  0.68260  0.61060  1.0000 -0.54107978
O   O111      1.0  0.22950  0.60920  0.61470  1.0000 -0.4434946437
O   O112      1.0  0.32410  0.70610  0.69160  1.0000 -0.7125227358
O   O113      1.0  0.31770  0.62350  0.63100  1.0000 -0.585992132
O   O114      1.0  0.30240  0.61550  0.68510  1.0000 -0.6329105154
O   O115      1.0  0.44110  0.38890  0.64380  1.0000 -0.54107978
O   O116      1.0  0.50400  0.44800  0.67860  1.0000 -0.515851148
O   O117      1.0  0.56680  0.37350  0.66290  1.0000 -0.5312119306
O   O118      1.0  0.57200  0.44000  0.68260  1.0000 -0.54107978
O   O119      1.0  0.49450  0.37970  0.60920  1.0000 -0.4434946437
O   O120      1.0  0.51450  0.38200  0.70610  1.0000 -0.7125227358
O   O121      1.0  0.18230  0.81330  0.30580  1.0000 -0.585992132
O   O122      1.0  0.19760  0.88270  0.31310  1.0000 -0.6329105154
O   O123      1.0  0.05890  0.70270  0.94780  1.0000 -0.54107978
O   O124      1.0  0.99600  0.67460  0.94400  1.0000 -0.515851148
O   O125      1.0  0.93320  0.59610  0.80670  1.0000 -0.5312119306
O   O126      1.0  0.92800  0.61060  0.86800  1.0000 -0.54107978
O   O127      1.0  0.00550  0.61470  0.88520  1.0000 -0.4434946437
O   O128      1.0  0.98550  0.69160  0.86750  1.0000 -0.7125227358
O   O129      1.0  0.30580  0.62350  0.49250  1.0000 -0.585992132
O   O130      1.0  0.31310  0.61550  0.43040  1.0000 -0.6329105154
O   O131      1.0  0.94780  0.38890  0.24510  1.0000 -0.54107978
O   O132      1.0  0.94400  0.44800  0.26940  1.0000 -0.515851148
O   O133      1.0  0.80670  0.37350  0.21060  1.0000 -0.5312119306
O   O134      1.0  0.86800  0.44000  0.25740  1.0000 -0.54107978
O   O135      1.0  0.88520  0.37970  0.27050  1.0000 -0.4434946437
O   O136      1.0  0.86750  0.38200  0.17590  1.0000 -0.7125227358
O   O137      1.0  0.63100  0.81330  0.00750  1.0000 -0.5825916112
O   O138      1.0  0.68510  0.88270  0.06960  1.0000 -0.6329105154
O   O139      1.0  0.64380  0.70270  0.25490  1.0000 -0.54107978
O   O140      1.0  0.67860  0.67460  0.23060  1.0000 -0.5140135103
O   O141      1.0  0.66290  0.59610  0.28940  1.0000 -0.5312119306
O   O142      1.0  0.68260  0.61060  0.24260  1.0000 -0.54107978
O   O143      1.0  0.60920  0.61470  0.22950  1.0000 -0.4434946437
O   O144      1.0  0.70610  0.69160  0.32410  1.0000 -0.7125227358
O   O145      1.0  0.62350  0.63100  0.31770  1.0000 -0.585992132
O   O146      1.0  0.61550  0.68510  0.30240  1.0000 -0.6329105154
O   O147      1.0  0.38890  0.64380  0.44110  1.0000 -0.54107978
O   O148      1.0  0.44800  0.67860  0.50400  1.0000 -0.5140135103
O   O149      1.0  0.37350  0.66290  0.56680  1.0000 -0.5312119306
O   O150      1.0  0.44000  0.68260  0.57200  1.0000 -0.54107978
O   O151      1.0  0.37970  0.60920  0.49450  1.0000 -0.4434946437
O   O152      1.0  0.38200  0.70610  0.51450  1.0000 -0.7125227358
O   O153      1.0  0.81330  0.30580  0.18230  1.0000 -0.585992132
O   O154      1.0  0.88270  0.31310  0.19760  1.0000 -0.6329105154
O   O155      1.0  0.70270  0.94780  0.05890  1.0000 -0.54107978
O   O156      1.0  0.67460  0.94400  0.99600  1.0000 -0.515851148
O   O157      1.0  0.59610  0.80670  0.93320  1.0000 -0.5312119306
O   O158      1.0  0.61060  0.86800  0.92800  1.0000 -0.54107978
O   O159      1.0  0.61470  0.88520  0.00550  1.0000 -0.4434946437
O   O160      1.0  0.69160  0.86750  0.98550  1.0000 -0.7125227358
O   O161      1.0  0.86900  0.87650  0.18230  1.0000 -0.585992132
O   O162      1.0  0.81490  0.88450  0.19760  1.0000 -0.6329105154
O   O163      1.0  0.85620  0.11110  0.05890  1.0000 -0.54107978
O   O164      1.0  0.82140  0.05200  0.99600  1.0000 -0.515851148
O   O165      1.0  0.83710  0.12650  0.93320  1.0000 -0.5312119306
O   O166      1.0  0.81740  0.06000  0.92800  1.0000 -0.54107978
O   O167      1.0  0.89080  0.12030  0.00550  1.0000 -0.4434946437
O   O168      1.0  0.79390  0.11800  0.98550  1.0000 -0.7125227358
O   O169      1.0  0.19420  0.68670  0.31770  1.0000 -0.585992132
O   O170      1.0  0.18690  0.61730  0.30240  1.0000 -0.6329105154
O   O171      1.0  0.55220  0.79730  0.44110  1.0000 -0.54107978
O   O172      1.0  0.55600  0.82540  0.50400  1.0000 -0.5140135103
O   O173      1.0  0.69330  0.90390  0.56680  1.0000 -0.5312119306
O   O174      1.0  0.63200  0.88940  0.57200  1.0000 -0.54107978
O   O175      1.0  0.61480  0.88530  0.49450  1.0000 -0.4434946437
O   O176      1.0  0.63250  0.80840  0.51450  1.0000 -0.7125227358
O   O177      1.0  0.87650  0.19420  0.00750  1.0000 -0.5825916112
O   O178      1.0  0.88450  0.18690  0.06960  1.0000 -0.6329105154
O   O179      1.0  0.11110  0.55220  0.25490  1.0000 -0.54107978
O   O180      1.0  0.05200  0.55600  0.23060  1.0000 -0.5140135103
O   O181      1.0  0.12650  0.69330  0.28940  1.0000 -0.5312119306
O   O182      1.0  0.06000  0.63200  0.24260  1.0000 -0.54107978
O   O183      1.0  0.12030  0.61480  0.22950  1.0000 -0.4434946437
O   O184      1.0  0.11800  0.63250  0.32410  1.0000 -0.7125227358
O   O185      1.0  0.68670  0.86900  0.49250  1.0000 -0.585992132
O   O186      1.0  0.61730  0.81490  0.43040  1.0000 -0.6329105154
O   O187      1.0  0.79730  0.85620  0.24510  1.0000 -0.54107978
O   O188      1.0  0.82540  0.82140  0.26940  1.0000 -0.515851148
O   O189      1.0  0.90390  0.83710  0.21060  1.0000 -0.5312119306
O   O190      1.0  0.88940  0.81740  0.25740  1.0000 -0.54107978
O   O191      1.0  0.88530  0.89080  0.27050  1.0000 -0.4434946437
O   O192      1.0  0.80840  0.79390  0.17590  1.0000 -0.7125227358
