# DDEC6 charges by PACMAN v1.1 (https://github.com/mtap-research/PACMAN-charge/)
data_2022[Zn][dia]3[FSR]3
_chemical_formula_sum              "Zn4 H92 C136 N24 O28 F4"
_cell_length_a       12.7701
_cell_length_b       12.7701
_cell_length_c       25.6846
_cell_angle_alpha    83.1371
_cell_angle_beta     96.8629
_cell_angle_gamma    81.6207

_symmetry_space_group_name_H-M    "P 1"
_symmetry_Int_Tables_number       1

loop_
  _symmetry_equiv_pos_as_xyz
  'x, y, z'

loop_
  _atom_site_type_symbol
  _atom_site_label
  _atom_site_symmetry_multiplicity
  _atom_site_fract_x
  _atom_site_fract_y
  _atom_site_fract_z
  _atom_site_occupancy
  _atom_site_charge
Zn  Zn1       1.0  0.13647  0.52661  0.45025  1.0000 0.7285635703
Zn  Zn2       1.0  0.47339  0.86353  0.95025  1.0000 0.7285635703
Zn  Zn3       1.0  0.87180  0.47364  0.85119  1.0000 0.7285635703
Zn  Zn4       1.0  0.52636  0.12820  0.35119  1.0000 0.7285635703
H   H1        1.0  0.03907  0.32803  0.43651  1.0000 0.1042034262
H   H2        1.0  0.89076  0.27784  0.39289  1.0000 0.1412589122
H   H3        1.0  0.83193  0.56565  0.30305  1.0000 0.1412589122
H   H4        1.0  0.97486  0.61148  0.35429  1.0000 0.1192109647
H   H5        1.0  0.73927  0.31217  0.31687  1.0000 0.1308358102
H   H6        1.0  0.59438  0.35634  0.25622  1.0000 0.2757492595
H   H7        1.0  0.52226  0.32094  0.18651  1.0000 0.1471271877
H   H8        1.0  0.24200  0.39522  0.08728  1.0000 0.1412589122
H   H9        1.0  0.31790  0.59452  0.19238  1.0000 0.1308358102
H   H10       1.0  0.09144  0.48304  0.08206  1.0000 0.2606056415
H   H11       1.0  0.93587  0.51125  0.03407  1.0000 0.1192109647
H   H12       1.0  0.76179  0.54253  0.97718  1.0000 0.1471271877
H   H13       1.0  0.59976  0.64824  0.94240  1.0000 0.1192109647
H   H14       1.0  0.65931  0.86763  0.03241  1.0000 0.1105945298
H   H15       1.0  0.82871  0.77399  0.06523  1.0000 0.1471271877
H   H16       1.0  0.21292  0.70676  0.60111  1.0000 0.1105945298
H   H17       1.0  0.17938  0.75326  0.68317  1.0000 0.1412589122
H   H18       1.0  0.92379  0.59813  0.67643  1.0000 0.1308358102
H   H19       1.0  0.95327  0.55685  0.59237  1.0000 0.1192109647
H   H20       1.0  0.00664  0.83730  0.79806  1.0000 0.1308358102
H   H21       1.0  0.13813  0.87955  0.85987  1.0000 0.1192109647
H   H22       1.0  0.35386  0.63950  0.82755  1.0000 0.1192109647
H   H23       1.0  0.22416  0.59926  0.76328  1.0000 0.1471271877
H   H24       1.0  0.67197  0.96093  0.93651  1.0000 0.1042034262
H   H25       1.0  0.72216  0.10924  0.89289  1.0000 0.1412589122
H   H26       1.0  0.43435  0.16807  0.80305  1.0000 0.1412589122
H   H27       1.0  0.38852  0.02514  0.85429  1.0000 0.1192109647
H   H28       1.0  0.68783  0.26073  0.81687  1.0000 0.1308358102
H   H29       1.0  0.64366  0.40562  0.75622  1.0000 0.2757492595
H   H30       1.0  0.67906  0.47774  0.68651  1.0000 0.1471271877
H   H31       1.0  0.60478  0.75800  0.58728  1.0000 0.1412589122
H   H32       1.0  0.40548  0.68210  0.69238  1.0000 0.1308358102
H   H33       1.0  0.51696  0.90856  0.58206  1.0000 0.2606056415
H   H34       1.0  0.48875  0.06413  0.53407  1.0000 0.1192109647
H   H35       1.0  0.45747  0.23821  0.47718  1.0000 0.1471271877
H   H36       1.0  0.35176  0.40024  0.44240  1.0000 0.1192109647
H   H37       1.0  0.13237  0.34069  0.53241  1.0000 0.1105945298
H   H38       1.0  0.22601  0.17129  0.56523  1.0000 0.1471271877
H   H39       1.0  0.29324  0.78708  0.10111  1.0000 0.1105945298
H   H40       1.0  0.24674  0.82062  0.18317  1.0000 0.1412589122
H   H41       1.0  0.40187  0.07621  0.17643  1.0000 0.1308358102
H   H42       1.0  0.44315  0.04673  0.09237  1.0000 0.1192109647
H   H43       1.0  0.16270  0.99336  0.29806  1.0000 0.1308358102
H   H44       1.0  0.12045  0.86187  0.35987  1.0000 0.1192109647
H   H45       1.0  0.36050  0.64614  0.32755  1.0000 0.1192109647
H   H46       1.0  0.40074  0.77584  0.26328  1.0000 0.1471271877
H   H47       1.0  0.64541  0.59071  0.85562  1.0000 0.1192109647
H   H48       1.0  0.52927  0.74387  0.81439  1.0000 0.1471271877
H   H49       1.0  0.75716  0.80460  0.72290  1.0000 0.1412589122
H   H50       1.0  0.86824  0.65484  0.76894  1.0000 0.1105945298
H   H51       1.0  0.49184  0.90866  0.74760  1.0000 0.1192109647
H   H52       1.0  0.46744  0.06760  0.69982  1.0000 0.2512450618
H   H53       1.0  0.38939  0.22133  0.70192  1.0000 0.1308358102
H   H54       1.0  0.32298  0.50606  0.60667  1.0000 0.1471271877
H   H55       1.0  0.58743  0.29797  0.59522  1.0000 0.1308358102
H   H56       1.0  0.35574  0.58486  0.54091  1.0000 0.2757492595
H   H57       1.0  0.31382  0.74754  0.49713  1.0000 0.1308358102
H   H58       1.0  0.27895  0.94083  0.45711  1.0000 0.1471271877
H   H59       1.0  0.33034  0.08356  0.40695  1.0000 0.1105945298
H   H60       1.0  0.59207  0.90155  0.38429  1.0000 0.1308358102
H   H61       1.0  0.55453  0.75735  0.43781  1.0000 0.1412589122
H   H62       1.0  0.78120  0.27488  0.70503  1.0000 0.1105945298
H   H63       1.0  0.81607  0.21829  0.62414  1.0000 0.1412589122
H   H64       1.0  0.09153  0.34151  0.63623  1.0000 0.1308358102
H   H65       1.0  0.05793  0.39377  0.71799  1.0000 0.1192109647
H   H66       1.0  0.99396  0.10338  0.51992  1.0000 0.1308358102
H   H67       1.0  0.86571  0.06149  0.45605  1.0000 0.1192109647
H   H68       1.0  0.65899  0.31895  0.47765  1.0000 0.1192109647
H   H69       1.0  0.78770  0.36378  0.54060  1.0000 0.1471271877
H   H70       1.0  0.40929  0.35459  0.35562  1.0000 0.1192109647
H   H71       1.0  0.25613  0.47073  0.31439  1.0000 0.1471271877
H   H72       1.0  0.19540  0.24284  0.22290  1.0000 0.1412589122
H   H73       1.0  0.34516  0.13176  0.26894  1.0000 0.1105945298
H   H74       1.0  0.09134  0.50816  0.24760  1.0000 0.1192109647
H   H75       1.0  0.93240  0.53256  0.19982  1.0000 0.2512450618
H   H76       1.0  0.77867  0.61061  0.20192  1.0000 0.1308358102
H   H77       1.0  0.49394  0.67702  0.10667  1.0000 0.1471271877
H   H78       1.0  0.70203  0.41257  0.09522  1.0000 0.1308358102
H   H79       1.0  0.41514  0.64426  0.04091  1.0000 0.2757492595
H   H80       1.0  0.25246  0.68618  0.99713  1.0000 0.1308358102
H   H81       1.0  0.05917  0.72105  0.95711  1.0000 0.1471271877
H   H82       1.0  0.91644  0.66966  0.90695  1.0000 0.1105945298
H   H83       1.0  0.09845  0.40793  0.88429  1.0000 0.1308358102
H   H84       1.0  0.24265  0.44547  0.93781  1.0000 0.1412589122
H   H85       1.0  0.72512  0.21880  0.20503  1.0000 0.1105945298
H   H86       1.0  0.78171  0.18393  0.12414  1.0000 0.1412589122
H   H87       1.0  0.65849  0.90847  0.13623  1.0000 0.1308358102
H   H88       1.0  0.60623  0.94207  0.21799  1.0000 0.1192109647
H   H89       1.0  0.89662  0.00604  0.01992  1.0000 0.1308358102
H   H90       1.0  0.93851  0.13429  0.95605  1.0000 0.1192109647
H   H91       1.0  0.68105  0.34101  0.97765  1.0000 0.1192109647
H   H92       1.0  0.63622  0.21230  0.04060  1.0000 0.1471271877
C   C1        1.0  0.99490  0.37850  0.40970  1.0000 0.08253704
C   C2        1.0  0.90740  0.34700  0.38330  1.0000 -0.1906613774
C   C3        1.0  0.84390  0.41670  0.34270  1.0000 0.1308358102
C   C4        1.0  0.87180  0.51560  0.33130  1.0000 -0.1906613774
C   C5        1.0  0.95870  0.54130  0.36150  1.0000 0.0716758156
C   C6        1.0  0.74840  0.38500  0.31450  1.0000 -0.0029999927
C   C7        1.0  0.50820  0.49960  0.23710  1.0000 0.431238071
C   C8        1.0  0.43200  0.46160  0.19650  1.0000 0.0073515483
C   C9        1.0  0.45730  0.36870  0.17430  1.0000 -0.2406644683
C   C10       1.0  0.38500  0.34760  0.13390  1.0000 0.3102659815
C   C11       1.0  0.28960  0.41260  0.11510  1.0000 -0.2782211891
C   C12       1.0  0.26430  0.50570  0.13810  1.0000 -0.0029999927
C   C13       1.0  0.33480  0.53040  0.17760  1.0000 -0.1608595318
C   C14       1.0  0.16260  0.58520  0.12010  1.0000 0.431238071
C   C15       1.0  0.91930  0.58030  0.04410  1.0000 -0.038704929
C   C16       1.0  0.81450  0.64650  0.02460  1.0000 0.1308358102
C   C17       1.0  0.74350  0.61050  0.98820  1.0000 -0.1906613774
C   C18       1.0  0.64660  0.67320  0.96800  1.0000 0.0886432016
C   C19       1.0  0.68240  0.80200  0.02000  1.0000 0.08253704
C   C20       1.0  0.78260  0.74580  0.04070  1.0000 -0.1801690675
C   C21       1.0  0.11170  0.59350  0.53800  1.0000 0.5519061519
C   C22       1.0  0.08750  0.62590  0.58890  1.0000 -0.070132251
C   C23       1.0  0.15400  0.68480  0.61630  1.0000 -0.070132251
C   C24       1.0  0.13510  0.71150  0.66510  1.0000 -0.2205992002
C   C25       1.0  0.05060  0.67680  0.68770  1.0000 0.2606056415
C   C26       1.0  0.98240  0.62000  0.66090  1.0000 -0.2098904411
C   C27       1.0  0.00030  0.59490  0.61120  1.0000 -0.070132251
C   C28       1.0  0.10550  0.71810  0.77370  1.0000 0.2512450618
C   C29       1.0  0.07740  0.79900  0.80310  1.0000 -0.2205992002
C   C30       1.0  0.15560  0.82280  0.84010  1.0000 -0.0908386041
C   C31       1.0  0.25800  0.76640  0.84880  1.0000 -0.0573052336
C   C32       1.0  0.28430  0.68070  0.82070  1.0000 -0.0800781596
C   C33       1.0  0.20750  0.65670  0.78280  1.0000 -0.2205992002
C   C34       1.0  0.34210  0.79710  0.88640  1.0000 0.542458915
C   C35       1.0  0.62150  0.00510  0.90970  1.0000 0.08253704
C   C36       1.0  0.65300  0.09260  0.88330  1.0000 -0.1906613774
C   C37       1.0  0.58330  0.15610  0.84270  1.0000 0.1308358102
C   C38       1.0  0.48440  0.12820  0.83130  1.0000 -0.1906613774
C   C39       1.0  0.45870  0.04130  0.86150  1.0000 0.0716758156
C   C40       1.0  0.61500  0.25160  0.81450  1.0000 -0.0029999927
C   C41       1.0  0.50040  0.49180  0.73710  1.0000 0.431238071
C   C42       1.0  0.53840  0.56800  0.69650  1.0000 0.0073515483
C   C43       1.0  0.63130  0.54270  0.67430  1.0000 -0.2406644683
C   C44       1.0  0.65240  0.61500  0.63390  1.0000 0.3102659815
C   C45       1.0  0.58740  0.71040  0.61510  1.0000 -0.2782211891
C   C46       1.0  0.49430  0.73570  0.63810  1.0000 -0.0029999927
C   C47       1.0  0.46960  0.66520  0.67760  1.0000 -0.1608595318
C   C48       1.0  0.41480  0.83740  0.62010  1.0000 0.431238071
C   C49       1.0  0.41970  0.08070  0.54410  1.0000 -0.038704929
C   C50       1.0  0.35350  0.18550  0.52460  1.0000 0.1308358102
C   C51       1.0  0.38950  0.25650  0.48820  1.0000 -0.1906613774
C   C52       1.0  0.32680  0.35340  0.46800  1.0000 0.0886432016
C   C53       1.0  0.19800  0.31760  0.52000  1.0000 0.08253704
C   C54       1.0  0.25420  0.21740  0.54070  1.0000 -0.1801690675
C   C55       1.0  0.40650  0.88830  0.03800  1.0000 0.5519061519
C   C56       1.0  0.37410  0.91250  0.08890  1.0000 -0.070132251
C   C57       1.0  0.31520  0.84600  0.11630  1.0000 -0.070132251
C   C58       1.0  0.28850  0.86490  0.16510  1.0000 -0.2205992002
C   C59       1.0  0.32320  0.94940  0.18770  1.0000 0.2606056415
C   C60       1.0  0.38000  0.01760  0.16090  1.0000 -0.2098904411
C   C61       1.0  0.40510  0.99970  0.11120  1.0000 -0.070132251
C   C62       1.0  0.28190  0.89450  0.27370  1.0000 0.2512450618
C   C63       1.0  0.20100  0.92260  0.30310  1.0000 -0.2205992002
C   C64       1.0  0.17720  0.84440  0.34010  1.0000 -0.0908386041
C   C65       1.0  0.23360  0.74200  0.34880  1.0000 -0.0573052336
C   C66       1.0  0.31930  0.71570  0.32070  1.0000 -0.0800781596
C   C67       1.0  0.34330  0.79250  0.28280  1.0000 -0.2205992002
C   C68       1.0  0.20290  0.65790  0.38640  1.0000 0.542458915
C   C69       1.0  0.66860  0.63620  0.82880  1.0000 0.08253704
C   C70       1.0  0.59860  0.72760  0.80460  1.0000 -0.1906613774
C   C71       1.0  0.63290  0.79430  0.76570  1.0000 0.1308358102
C   C72       1.0  0.73360  0.76340  0.75120  1.0000 -0.1801690675
C   C73       1.0  0.79860  0.67280  0.77800  1.0000 0.08253704
C   C74       1.0  0.56430  0.89490  0.74170  1.0000 -0.0284034443
C   C75       1.0  0.57420  0.13940  0.66700  1.0000 0.431238071
C   C76       1.0  0.49830  0.24050  0.64970  1.0000 -0.0145669785
C   C77       1.0  0.40710  0.26870  0.67410  1.0000 -0.2782211891
C   C78       1.0  0.34390  0.36690  0.65650  1.0000 0.3102659815
C   C79       1.0  0.36790  0.43890  0.61750  1.0000 -0.2406644683
C   C80       1.0  0.45840  0.41220  0.59410  1.0000 0.0073515483
C   C81       1.0  0.52410  0.31470  0.61060  1.0000 -0.1486376739
C   C82       1.0  0.49450  0.48770  0.55240  1.0000 0.431238071
C   C83       1.0  0.38280  0.74300  0.48640  1.0000 -0.0284034443
C   C84       1.0  0.41140  0.83260  0.45380  1.0000 0.1308358102
C   C85       1.0  0.34520  0.93140  0.44350  1.0000 -0.1906613774
C   C86       1.0  0.37610  0.01630  0.41340  1.0000 0.0716758156
C   C87       1.0  0.52950  0.91010  0.40100  1.0000 0.0886432016
C   C88       1.0  0.50640  0.82320  0.43170  1.0000 -0.1801690675
C   C89       1.0  0.88570  0.38950  0.76680  1.0000 0.5519061519
C   C90       1.0  0.91350  0.34430  0.71750  1.0000 -0.038704929
C   C91       1.0  0.84340  0.28980  0.69060  1.0000 -0.0800781596
C   C92       1.0  0.86340  0.25680  0.64250  1.0000 -0.2098904411
C   C93       1.0  0.95380  0.28120  0.62210  1.0000 0.2512450618
C   C94       1.0  0.02770  0.32970  0.64990  1.0000 -0.2098904411
C   C95       1.0  0.00740  0.36100  0.69820  1.0000 -0.0800781596
C   C96       1.0  0.90010  0.23390  0.53730  1.0000 0.2512450618
C   C97       1.0  0.92540  0.14640  0.51160  1.0000 -0.2205992002
C   C98       1.0  0.84960  0.12220  0.47350  1.0000 -0.0908386041
C   C99       1.0  0.74850  0.18770  0.46070  1.0000 -0.0573052336
C   C100      1.0  0.72710  0.27510  0.48610  1.0000 -0.0800781596
C   C101      1.0  0.80260  0.30140  0.52420  1.0000 -0.2205992002
C   C102      1.0  0.66750  0.16150  0.41960  1.0000 0.5519061519
C   C103      1.0  0.36380  0.33140  0.32880  1.0000 0.08253704
C   C104      1.0  0.27240  0.40140  0.30460  1.0000 -0.1906613774
C   C105      1.0  0.20570  0.36710  0.26570  1.0000 0.1308358102
C   C106      1.0  0.23660  0.26640  0.25120  1.0000 -0.1801690675
C   C107      1.0  0.32720  0.20140  0.27800  1.0000 0.08253704
C   C108      1.0  0.10510  0.43570  0.24170  1.0000 -0.0284034443
C   C109      1.0  0.86060  0.42580  0.16700  1.0000 0.431238071
C   C110      1.0  0.75950  0.50170  0.14970  1.0000 -0.0145669785
C   C111      1.0  0.73130  0.59290  0.17410  1.0000 -0.2782211891
C   C112      1.0  0.63310  0.65610  0.15650  1.0000 0.3102659815
C   C113      1.0  0.56110  0.63210  0.11750  1.0000 -0.2406644683
C   C114      1.0  0.58780  0.54160  0.09410  1.0000 0.0073515483
C   C115      1.0  0.68530  0.47590  0.11060  1.0000 -0.1486376739
C   C116      1.0  0.51230  0.50550  0.05240  1.0000 0.431238071
C   C117      1.0  0.25700  0.61720  0.98640  1.0000 -0.0284034443
C   C118      1.0  0.16740  0.58860  0.95380  1.0000 0.1308358102
C   C119      1.0  0.06860  0.65480  0.94350  1.0000 -0.1906613774
C   C120      1.0  0.98370  0.62390  0.91340  1.0000 0.0716758156
C   C121      1.0  0.08990  0.47050  0.90100  1.0000 0.0886432016
C   C122      1.0  0.17680  0.49360  0.93170  1.0000 -0.1801690675
C   C123      1.0  0.61050  0.11430  0.26680  1.0000 0.5519061519
C   C124      1.0  0.65570  0.08650  0.21750  1.0000 -0.038704929
C   C125      1.0  0.71020  0.15660  0.19060  1.0000 -0.0800781596
C   C126      1.0  0.74320  0.13660  0.14250  1.0000 -0.2098904411
C   C127      1.0  0.71880  0.04620  0.12210  1.0000 0.2512450618
C   C128      1.0  0.67030  0.97230  0.14990  1.0000 -0.2098904411
C   C129      1.0  0.63900  0.99260  0.19820  1.0000 -0.0800781596
C   C130      1.0  0.76610  0.09990  0.03730  1.0000 0.2512450618
C   C131      1.0  0.85360  0.07460  0.01160  1.0000 -0.2205992002
C   C132      1.0  0.87780  0.15040  0.97350  1.0000 -0.0908386041
C   C133      1.0  0.81230  0.25150  0.96070  1.0000 -0.0573052336
C   C134      1.0  0.72490  0.27290  0.98610  1.0000 -0.0800781596
C   C135      1.0  0.69860  0.19740  0.02420  1.0000 -0.2205992002
C   C136      1.0  0.83850  0.33250  0.91960  1.0000 0.5519061519
N   N1        1.0  0.02130  0.47390  0.40027  1.0000 -0.2098904411
N   N2        1.0  0.67900  0.45780  0.28718  1.0000 -0.1100414834
N   N3        1.0  0.59370  0.42430  0.25941  1.0000 -0.2406644683
N   N4        1.0  0.08240  0.54820  0.09050  1.0000 -0.2406644683
N   N5        1.0  0.98810  0.61650  0.07477  1.0000 -0.1178476653
N   N6        1.0  0.61650  0.76830  0.98343  1.0000 -0.2205992002
N   N7        1.0  0.52610  0.97870  0.90027  1.0000 -0.2098904411
N   N8        1.0  0.54220  0.32100  0.78718  1.0000 -0.1100414834
N   N9        1.0  0.57570  0.40630  0.75941  1.0000 -0.2406644683
N   N10       1.0  0.45180  0.91760  0.59050  1.0000 -0.2406644683
N   N11       1.0  0.38350  0.01190  0.57477  1.0000 -0.1178476653
N   N12       1.0  0.23170  0.38350  0.48343  1.0000 -0.2205992002
N   N13       1.0  0.76720  0.60900  0.81643  1.0000 -0.2316947496
N   N14       1.0  0.60310  0.96330  0.71290  1.0000 -0.1178476653
N   N15       1.0  0.53450  0.05910  0.69420  1.0000 -0.2538753218
N   N16       1.0  0.42120  0.57820  0.53285  1.0000 -0.2205992002
N   N17       1.0  0.45240  0.65720  0.50076  1.0000 -0.0908386041
N   N18       1.0  0.46770  0.00650  0.39333  1.0000 -0.2205992002
N   N19       1.0  0.39100  0.23280  0.31643  1.0000 -0.2316947496
N   N20       1.0  0.03670  0.39690  0.21290  1.0000 -0.1178476653
N   N21       1.0  0.94090  0.46550  0.19420  1.0000 -0.2538753218
N   N22       1.0  0.42180  0.57880  0.03285  1.0000 -0.2205992002
N   N23       1.0  0.34280  0.54760  0.00076  1.0000 -0.0908386041
N   N24       1.0  0.99350  0.53230  0.89333  1.0000 -0.2205992002
O   O1        1.0  0.49450  0.58990  0.24708  1.0000 -0.4210047117
O   O2        1.0  0.15460  0.67580  0.13070  1.0000 -0.4210047117
O   O3        1.0  0.19990  0.60770  0.52221  1.0000 -0.5777682281
O   O4        1.0  0.04530  0.54990  0.51005  1.0000 -0.5355589754
O   O5        1.0  0.02480  0.70040  0.73599  1.0000 -0.2205992002
O   O6        1.0  0.32010  0.87950  0.90809  1.0000 -0.5292179353
O   O7        1.0  0.43520  0.74320  0.89519  1.0000 -0.5677440232
O   O8        1.0  0.41010  0.50550  0.74708  1.0000 -0.4210047117
O   O9        1.0  0.32420  0.84540  0.63070  1.0000 -0.4210047117
O   O10       1.0  0.39230  0.80010  0.02221  1.0000 -0.5777682281
O   O11       1.0  0.45010  0.95470  0.01005  1.0000 -0.5355589754
O   O12       1.0  0.29960  0.97520  0.23599  1.0000 -0.2205992002
O   O13       1.0  0.12050  0.67990  0.40809  1.0000 -0.5292179353
O   O14       1.0  0.25680  0.56480  0.39519  1.0000 -0.5677440232
O   O15       1.0  0.58280  0.46960  0.53885  1.0000 -0.4373401569
O   O16       1.0  0.66510  0.12790  0.65510  1.0000 -0.4349531896
O   O17       1.0  0.79680  0.37960  0.78188  1.0000 -0.5777682281
O   O18       1.0  0.95200  0.43680  0.79041  1.0000 -0.5292179353
O   O19       1.0  0.98070  0.25310  0.57426  1.0000 -0.2316947496
O   O20       1.0  0.68980  0.07960  0.39702  1.0000 -0.5292179353
O   O21       1.0  0.57790  0.22270  0.40712  1.0000 -0.5677440232
O   O22       1.0  0.53040  0.41720  0.03885  1.0000 -0.4373401569
O   O23       1.0  0.87210  0.33490  0.15510  1.0000 -0.4373401569
O   O24       1.0  0.62040  0.20320  0.28188  1.0000 -0.5777682281
O   O25       1.0  0.56320  0.04800  0.29041  1.0000 -0.5292179353
O   O26       1.0  0.74690  0.01930  0.07426  1.0000 -0.2316947496
O   O27       1.0  0.92040  0.31020  0.89702  1.0000 -0.5292179353
O   O28       1.0  0.77730  0.42210  0.90712  1.0000 -0.5677440232
F   F1        1.0  0.40935  0.25775  0.11198  1.0000 -0.1486376739
F   F2        1.0  0.74225  0.59065  0.61198  1.0000 -0.1486376739
F   F3        1.0  0.25683  0.39323  0.68012  1.0000 -0.1486376739
F   F4        1.0  0.60677  0.74317  0.18012  1.0000 -0.1486376739
