# DDEC6 charges by PACMAN v1.1 (https://github.com/mtap-research/PACMAN-charge/)
data_2022[Sc][bpq]3[FSR]1
_chemical_formula_sum              "Sc2 H18 C32 O10"
_cell_length_a       13.9841
_cell_length_b       13.9841
_cell_length_c       11.4979
_cell_angle_alpha    90
_cell_angle_beta     90
_cell_angle_gamma    149.729

_symmetry_space_group_name_H-M    "P 1"
_symmetry_Int_Tables_number       1

loop_
  _symmetry_equiv_pos_as_xyz
  'x, y, z'

loop_
  _atom_site_type_symbol
  _atom_site_label
  _atom_site_symmetry_multiplicity
  _atom_site_fract_x
  _atom_site_fract_y
  _atom_site_fract_z
  _atom_site_occupancy
  _atom_site_charge
Sc  Sc1       1.0  0.00000  0.50000  0.50000  1.0000 1.8179485327
Sc  Sc2       1.0  0.50000  0.00000  0.50000  1.0000 1.8179485327
H   H1        1.0  0.14671  0.40181  0.73657  1.0000 0.119976737
H   H2        1.0  0.21217  0.33701  0.86721  1.0000 0.119976737
H   H3        1.0  0.35329  0.09819  0.73657  1.0000 0.119976737
H   H4        1.0  0.28783  0.16299  0.86721  1.0000 0.119976737
H   H5        1.0  0.09819  0.35329  0.26343  1.0000 0.119976737
H   H6        1.0  0.16299  0.28783  0.13279  1.0000 0.119976737
H   H7        1.0  0.40181  0.14671  0.26343  1.0000 0.119976737
H   H8        1.0  0.33701  0.21217  0.13279  1.0000 0.119976737
H   H9        1.0  0.85329  0.59819  0.26343  1.0000 0.119976737
H   H10       1.0  0.78783  0.66299  0.13279  1.0000 0.119976737
H   H11       1.0  0.64671  0.90181  0.26343  1.0000 0.119976737
H   H12       1.0  0.71217  0.83701  0.13279  1.0000 0.119976737
H   H13       1.0  0.90181  0.64671  0.73657  1.0000 0.119976737
H   H14       1.0  0.83701  0.71217  0.86721  1.0000 0.119976737
H   H15       1.0  0.59819  0.85329  0.73657  1.0000 0.119976737
H   H16       1.0  0.66299  0.78783  0.86721  1.0000 0.119976737
H   H17       1.0  0.75000  0.25000  0.34370  1.0000 0.4147580987
H   H18       1.0  0.25000  0.75000  0.65630  1.0000 0.4147580987
C   C1        1.0  0.04939  0.27861  0.76330  1.0000 -0.0900286954
C   C2        1.0  0.08856  0.23964  0.84140  1.0000 -0.1548220763
C   C3        1.0  0.45061  0.22139  0.76330  1.0000 -0.0900286954
C   C4        1.0  0.41144  0.26036  0.84140  1.0000 -0.1548220763
C   C5        1.0  0.22139  0.45061  0.23670  1.0000 -0.0900286954
C   C6        1.0  0.26036  0.41144  0.15860  1.0000 -0.1548220763
C   C7        1.0  0.27861  0.04939  0.23670  1.0000 -0.0900286954
C   C8        1.0  0.23964  0.08856  0.15860  1.0000 -0.1548220763
C   C9        1.0  0.95061  0.72139  0.23670  1.0000 -0.0900286954
C   C10       1.0  0.91144  0.76036  0.15860  1.0000 -0.1548220763
C   C11       1.0  0.54939  0.77861  0.23670  1.0000 -0.0900286954
C   C12       1.0  0.58856  0.73964  0.15860  1.0000 -0.1548220763
C   C13       1.0  0.77861  0.54939  0.76330  1.0000 -0.0900286954
C   C14       1.0  0.73964  0.58856  0.84140  1.0000 -0.1548220763
C   C15       1.0  0.72139  0.95061  0.76330  1.0000 -0.0900286954
C   C16       1.0  0.76036  0.91144  0.84140  1.0000 -0.1548220763
C   C17       1.0  0.82205  0.17795  0.64420  1.0000 0.6447244412
C   C18       1.0  0.86561  0.13439  0.72520  1.0000 -0.0343731647
C   C19       1.0  0.94417  0.05583  0.88120  1.0000 0.142118526
C   C20       1.0  0.98401  0.01599  0.96450  1.0000 -0.1046479555
C   C21       1.0  0.67795  0.32205  0.64420  1.0000 0.6447244412
C   C22       1.0  0.63439  0.36561  0.72520  1.0000 -0.0343731647
C   C23       1.0  0.55583  0.44417  0.88120  1.0000 0.142118526
C   C24       1.0  0.51599  0.48401  0.96450  1.0000 -0.1046479555
C   C25       1.0  0.32205  0.67795  0.35580  1.0000 0.6447244412
C   C26       1.0  0.36561  0.63439  0.27480  1.0000 -0.0343731647
C   C27       1.0  0.44417  0.55583  0.11880  1.0000 0.142118526
C   C28       1.0  0.48401  0.51599  0.03550  1.0000 -0.1046479555
C   C29       1.0  0.17795  0.82205  0.35580  1.0000 0.6447244412
C   C30       1.0  0.13439  0.86561  0.27480  1.0000 -0.0343731647
C   C31       1.0  0.05583  0.94417  0.11880  1.0000 0.142118526
C   C32       1.0  0.01599  0.98401  0.03550  1.0000 -0.1046479555
O   O1        1.0  0.95780  0.34768  0.61396  1.0000 -0.6284567514
O   O2        1.0  0.54220  0.15232  0.61396  1.0000 -0.6284567514
O   O3        1.0  0.15232  0.54220  0.38604  1.0000 -0.6284567514
O   O4        1.0  0.34768  0.95780  0.38604  1.0000 -0.6284567514
O   O5        1.0  0.04220  0.65232  0.38604  1.0000 -0.6284567514
O   O6        1.0  0.45780  0.84768  0.38604  1.0000 -0.6284567514
O   O7        1.0  0.84768  0.45780  0.61396  1.0000 -0.6284567514
O   O8        1.0  0.65232  0.04220  0.61396  1.0000 -0.6284567514
O   O9        1.0  0.75000  0.25000  0.41580  1.0000 -0.9945611829
O   O10       1.0  0.25000  0.75000  0.58420  1.0000 -0.9953070754
