# DDEC6 charges by PACMAN v1.1 (https://github.com/mtap-research/PACMAN-charge/)
data_2022[Lu][nan]3[FSR]1
_chemical_formula_sum              "Lu4 H20 C48 S12 O28"
_cell_length_a       12.2432
_cell_length_b       12.2432
_cell_length_c       18.4579
_cell_angle_alpha    74.3257
_cell_angle_beta     105.674
_cell_angle_gamma    117.031

_symmetry_space_group_name_H-M    "P 1"
_symmetry_Int_Tables_number       1

loop_
  _symmetry_equiv_pos_as_xyz
  'x, y, z'

loop_
  _atom_site_type_symbol
  _atom_site_label
  _atom_site_symmetry_multiplicity
  _atom_site_fract_x
  _atom_site_fract_y
  _atom_site_fract_z
  _atom_site_occupancy
  _atom_site_charge
Lu  Lu1       1.0  0.95499  0.95909  0.39525  1.0000 1.6434870871
Lu  Lu2       1.0  0.95909  0.95499  0.10475  1.0000 1.6434870871
Lu  Lu3       1.0  0.04501  0.04091  0.60475  1.0000 1.6460441264
Lu  Lu4       1.0  0.04091  0.04501  0.89525  1.0000 1.6460441264
H   H1        1.0  0.80520  0.71680  0.34900  1.0000 0.3573163065
H   H2        1.0  0.74570  0.79630  0.32300  1.0000 0.3510357949
H   H3        1.0  0.02043  0.66813  0.22448  1.0000 0.140046219
H   H4        1.0  0.12443  0.44515  0.50566  1.0000 0.1318654368
H   H5        1.0  0.28307  0.97455  0.41240  1.0000 0.140046219
H   H6        1.0  0.71680  0.80520  0.15100  1.0000 0.3573163065
H   H7        1.0  0.79630  0.74570  0.17700  1.0000 0.3510357949
H   H8        1.0  0.66813  0.02043  0.27552  1.0000 0.140046219
H   H9        1.0  0.44515  0.12443  0.99434  1.0000 0.1318654368
H   H10       1.0  0.97455  0.28307  0.08760  1.0000 0.140046219
H   H11       1.0  0.19480  0.28320  0.65100  1.0000 0.3573163065
H   H12       1.0  0.25430  0.20370  0.67700  1.0000 0.3510357949
H   H13       1.0  0.97957  0.33187  0.77552  1.0000 0.140046219
H   H14       1.0  0.87557  0.55485  0.49434  1.0000 0.1318654368
H   H15       1.0  0.71693  0.02545  0.58760  1.0000 0.140046219
H   H16       1.0  0.28320  0.19480  0.84900  1.0000 0.3573163065
H   H17       1.0  0.20370  0.25430  0.82300  1.0000 0.3510357949
H   H18       1.0  0.33187  0.97957  0.72448  1.0000 0.140046219
H   H19       1.0  0.55485  0.87557  0.00566  1.0000 0.1318654368
H   H20       1.0  0.02545  0.71693  0.91240  1.0000 0.140046219
C   C1        1.0  0.06430  0.86730  0.29390  1.0000 0.6310087579
C   C2        1.0  0.07180  0.74580  0.32030  1.0000 -0.1247090934
C   C3        1.0  0.04340  0.65820  0.27850  1.0000 -0.1711504528
C   C4        1.0  0.05230  0.54970  0.32630  1.0000 -0.0207368095
C   C5        1.0  0.09100  0.55960  0.40230  1.0000 -0.0271324453
C   C6        1.0  0.09960  0.45300  0.45180  1.0000 -0.1758084682
C   C7        1.0  0.06680  0.36220  0.41030  1.0000 -0.1030928598
C   C8        1.0  0.05590  0.23390  0.44250  1.0000 0.6310087579
C   C9        1.0  0.22667  0.02913  0.53380  1.0000 0.6170888009
C   C10       1.0  0.33600  0.02140  0.51920  1.0000 -0.085831215
C   C11       1.0  0.34580  0.99080  0.45650  1.0000 -0.1711504528
C   C12       1.0  0.46200  0.98640  0.46570  1.0000 -0.0207368095
C   C13       1.0  0.86730  0.06430  0.20610  1.0000 0.6310087579
C   C14       1.0  0.74580  0.07180  0.17970  1.0000 -0.1247090934
C   C15       1.0  0.65820  0.04340  0.22150  1.0000 -0.1711504528
C   C16       1.0  0.54970  0.05230  0.17370  1.0000 -0.0207368095
C   C17       1.0  0.55960  0.09100  0.09770  1.0000 -0.0271324453
C   C18       1.0  0.45300  0.09960  0.04820  1.0000 -0.1758084682
C   C19       1.0  0.36220  0.06680  0.08970  1.0000 -0.1030928598
C   C20       1.0  0.23390  0.05590  0.05750  1.0000 0.6310087579
C   C21       1.0  0.02913  0.22667  0.96620  1.0000 0.6170888009
C   C22       1.0  0.02140  0.33600  0.98080  1.0000 -0.085831215
C   C23       1.0  0.99080  0.34580  0.04350  1.0000 -0.1711504528
C   C24       1.0  0.98640  0.46200  0.03430  1.0000 -0.0207368095
C   C25       1.0  0.93570  0.13270  0.70610  1.0000 0.6310087579
C   C26       1.0  0.92820  0.25420  0.67970  1.0000 -0.1247090934
C   C27       1.0  0.95660  0.34180  0.72150  1.0000 -0.1711504528
C   C28       1.0  0.94770  0.45030  0.67370  1.0000 -0.0207368095
C   C29       1.0  0.90900  0.44040  0.59770  1.0000 -0.0271324453
C   C30       1.0  0.90040  0.54700  0.54820  1.0000 -0.1758084682
C   C31       1.0  0.93320  0.63780  0.58970  1.0000 -0.1030928598
C   C32       1.0  0.94410  0.76610  0.55750  1.0000 0.6310087579
C   C33       1.0  0.77333  0.97087  0.46620  1.0000 0.6170888009
C   C34       1.0  0.66400  0.97860  0.48080  1.0000 -0.085831215
C   C35       1.0  0.65420  0.00920  0.54350  1.0000 -0.1711504528
C   C36       1.0  0.53800  0.01360  0.53430  1.0000 -0.0207368095
C   C37       1.0  0.13270  0.93570  0.79390  1.0000 0.6310087579
C   C38       1.0  0.25420  0.92820  0.82030  1.0000 -0.1247090934
C   C39       1.0  0.34180  0.95660  0.77850  1.0000 -0.1711504528
C   C40       1.0  0.45030  0.94770  0.82630  1.0000 -0.0207368095
C   C41       1.0  0.44040  0.90900  0.90230  1.0000 -0.0271324453
C   C42       1.0  0.54700  0.90040  0.95180  1.0000 -0.1758084682
C   C43       1.0  0.63780  0.93320  0.91030  1.0000 -0.1030928598
C   C44       1.0  0.76610  0.94410  0.94250  1.0000 0.6310087579
C   C45       1.0  0.97087  0.77333  0.03380  1.0000 0.6170888009
C   C46       1.0  0.97860  0.66400  0.01920  1.0000 -0.085831215
C   C47       1.0  0.00920  0.65420  0.95650  1.0000 -0.1711504528
C   C48       1.0  0.01360  0.53800  0.96570  1.0000 -0.0207368095
S   S1        1.0  0.11260  0.70140  0.41719  1.0000 0.1318654368
S   S2        1.0  0.02655  0.40527  0.31289  1.0000 0.1457006546
S   S3        1.0  0.53287  0.95399  0.41014  1.0000 0.140046219
S   S4        1.0  0.70140  0.11260  0.08281  1.0000 0.1318654368
S   S5        1.0  0.40527  0.02655  0.18711  1.0000 0.1457006546
S   S6        1.0  0.95399  0.53287  0.08986  1.0000 0.140046219
S   S7        1.0  0.88740  0.29860  0.58281  1.0000 0.1318654368
S   S8        1.0  0.97345  0.59473  0.68711  1.0000 0.1457006546
S   S9        1.0  0.46713  0.04601  0.58986  1.0000 0.140046219
S   S10       1.0  0.29860  0.88740  0.91719  1.0000 0.1318654368
S   S11       1.0  0.59473  0.97345  0.81289  1.0000 0.1457006546
S   S12       1.0  0.04601  0.46713  0.91014  1.0000 0.140046219
O   O1        1.0  0.81477  0.79143  0.33233  1.0000 -0.6570126054
O   O2        1.0  0.08054  0.92626  0.34557  1.0000 -0.5890998033
O   O3        1.0  0.04198  0.90322  0.22463  1.0000 -0.5428582517
O   O4        1.0  0.01646  0.16154  0.39531  1.0000 -0.5713993994
O   O5        1.0  0.08636  0.20924  0.51377  1.0000 -0.6079687862
O   O6        1.0  0.13009  0.00811  0.48411  1.0000 -0.6040069548
O   O7        1.0  0.23450  0.05430  0.59705  1.0000 -0.5890998033
O   O8        1.0  0.79143  0.81477  0.16767  1.0000 -0.6570126054
O   O9        1.0  0.92626  0.08054  0.15443  1.0000 -0.5890998033
O   O10       1.0  0.90322  0.04198  0.27537  1.0000 -0.5428582517
O   O11       1.0  0.16154  0.01646  0.10469  1.0000 -0.5713993994
O   O12       1.0  0.20924  0.08636  0.98623  1.0000 -0.6079687862
O   O13       1.0  0.00811  0.13009  0.01589  1.0000 -0.6040069548
O   O14       1.0  0.05430  0.23450  0.90295  1.0000 -0.5890998033
O   O15       1.0  0.18523  0.20857  0.66767  1.0000 -0.6570126054
O   O16       1.0  0.91946  0.07374  0.65443  1.0000 -0.5890998033
O   O17       1.0  0.95802  0.09678  0.77537  1.0000 -0.5428582517
O   O18       1.0  0.98354  0.83846  0.60469  1.0000 -0.5713993994
O   O19       1.0  0.91364  0.79076  0.48623  1.0000 -0.6079687862
O   O20       1.0  0.86991  0.99189  0.51589  1.0000 -0.6040069548
O   O21       1.0  0.76550  0.94570  0.40295  1.0000 -0.5890998033
O   O22       1.0  0.20857  0.18523  0.83233  1.0000 -0.6570126054
O   O23       1.0  0.07374  0.91946  0.84557  1.0000 -0.5890998033
O   O24       1.0  0.09678  0.95802  0.72463  1.0000 -0.5428582517
O   O25       1.0  0.83846  0.98354  0.89531  1.0000 -0.5713993994
O   O26       1.0  0.79076  0.91364  0.01377  1.0000 -0.6079687862
O   O27       1.0  0.99189  0.86991  0.98411  1.0000 -0.6040069548
O   O28       1.0  0.94570  0.76550  0.09705  1.0000 -0.5890998033
