# DDEC6 charges by PACMAN v1.1 (https://github.com/mtap-research/PACMAN-charge/)
data_2022[Zn][sql]2[FSR]2
_chemical_formula_sum              "Zn8 H144 C228 N16 O32"
_cell_length_a       13.1137
_cell_length_b       22.2593
_cell_length_c       26.0291
_cell_angle_alpha    90
_cell_angle_beta     94.192
_cell_angle_gamma    90

_symmetry_space_group_name_H-M    "P 1"
_symmetry_Int_Tables_number       1

loop_
  _symmetry_equiv_pos_as_xyz
  'x, y, z'

loop_
  _atom_site_type_symbol
  _atom_site_label
  _atom_site_symmetry_multiplicity
  _atom_site_fract_x
  _atom_site_fract_y
  _atom_site_fract_z
  _atom_site_occupancy
  _atom_site_charge
Zn  Zn1       1.0  0.12466  0.65886  0.02337  1.0000 0.831469256
Zn  Zn2       1.0  0.14437  0.79143  0.02304  1.0000 0.8397348855
Zn  Zn3       1.0  0.12466  0.84114  0.52337  1.0000 0.831469256
Zn  Zn4       1.0  0.14437  0.70857  0.52304  1.0000 0.8397348855
Zn  Zn5       1.0  0.87534  0.15886  0.47663  1.0000 0.831469256
Zn  Zn6       1.0  0.85563  0.29143  0.47696  1.0000 0.8397348855
Zn  Zn7       1.0  0.87534  0.34114  0.97663  1.0000 0.831469256
Zn  Zn8       1.0  0.85563  0.20857  0.97696  1.0000 0.8397348855
H   H1        1.0  0.16758  0.63124  0.86007  1.0000 0.1207713684
H   H2        1.0  0.17802  0.62979  0.77386  1.0000 0.1207713684
H   H3        1.0  0.12232  0.80792  0.85785  1.0000 0.1207713684
H   H4        1.0  0.11959  0.86442  0.77394  1.0000 0.1207713684
H   H5        1.0  0.13036  0.86235  0.68724  1.0000 0.1207713684
H   H6        1.0  0.17242  0.68534  0.68985  1.0000 0.1207713684
H   H7        1.0  0.44415  0.62136  0.03008  1.0000 0.1287470242
H   H8        1.0  0.61744  0.60879  0.03126  1.0000 0.1207713684
H   H9        1.0  0.47787  0.80028  0.02016  1.0000 0.1287470242
H   H10       1.0  0.65240  0.84326  0.01793  1.0000 0.1139487547
H   H11       1.0  0.82370  0.83048  0.02003  1.0000 0.1139487547
H   H12       1.0  0.79003  0.65242  0.02649  1.0000 0.1139487547
H   H13       1.0  0.14391  0.89216  0.09607  1.0000 0.1207713684
H   H14       1.0  0.13987  0.99464  0.09655  1.0000 0.1207713684
H   H15       1.0  0.14268  0.04733  0.01939  1.0000 0.1207713684
H   H16       1.0  0.14286  0.89148  0.94568  1.0000 0.1207713684
H   H17       1.0  0.06623  0.95314  0.87838  1.0000 0.1139487547
H   H18       1.0  0.06574  0.01039  0.80501  1.0000 0.1207713684
H   H19       1.0  0.26311  0.12277  0.87536  1.0000 0.1287470242
H   H20       1.0  0.25784  0.06685  0.95079  1.0000 0.1139487547
H   H21       1.0  0.12409  0.52947  0.81901  1.0000 0.0946942602
H   H22       1.0  0.13952  0.49095  0.73953  1.0000 0.1207713684
H   H23       1.0  0.15311  0.38732  0.73101  1.0000 0.1139487547
H   H24       1.0  0.12097  0.37087  0.88005  1.0000 0.1038374488
H   H25       1.0  0.24396  0.29559  0.74589  1.0000 0.1139487547
H   H26       1.0  0.25398  0.19125  0.74126  1.0000 0.1287470242
H   H27       1.0  0.06926  0.17894  0.85424  1.0000 0.1287470242
H   H28       1.0  0.07441  0.28322  0.86434  1.0000 0.1139487547
H   H29       1.0  0.05851  0.15194  0.70733  1.0000 0.1207713684
H   H30       1.0  0.04715  0.11391  0.62347  1.0000 0.1207713684
H   H31       1.0  0.22029  0.97636  0.67063  1.0000 0.1207713684
H   H32       1.0  0.23428  0.01311  0.75307  1.0000 0.1287470242
H   H33       1.0  0.12617  0.93144  0.60447  1.0000 0.1139487547
H   H34       1.0  0.13128  0.09648  0.54609  1.0000 0.1287470242
H   H35       1.0  0.12476  0.05478  0.46488  1.0000 0.1287470242
H   H36       1.0  0.13019  0.95218  0.45615  1.0000 0.1139487547
H   H37       1.0  0.16758  0.86876  0.36007  1.0000 0.1207713684
H   H38       1.0  0.17802  0.87021  0.27386  1.0000 0.1207713684
H   H39       1.0  0.12232  0.69208  0.35785  1.0000 0.1207713684
H   H40       1.0  0.11959  0.63558  0.27394  1.0000 0.1207713684
H   H41       1.0  0.13036  0.63765  0.18724  1.0000 0.1207713684
H   H42       1.0  0.17242  0.81466  0.18985  1.0000 0.1207713684
H   H43       1.0  0.44415  0.87864  0.53008  1.0000 0.1287470242
H   H44       1.0  0.61744  0.89121  0.53126  1.0000 0.1207713684
H   H45       1.0  0.47787  0.69972  0.52016  1.0000 0.1287470242
H   H46       1.0  0.65240  0.65674  0.51793  1.0000 0.1139487547
H   H47       1.0  0.82370  0.66952  0.52003  1.0000 0.1139487547
H   H48       1.0  0.79003  0.84758  0.52649  1.0000 0.1139487547
H   H49       1.0  0.14391  0.60784  0.59607  1.0000 0.1207713684
H   H50       1.0  0.13987  0.50536  0.59655  1.0000 0.1207713684
H   H51       1.0  0.14268  0.45267  0.51939  1.0000 0.1207713684
H   H52       1.0  0.14286  0.60852  0.44568  1.0000 0.1207713684
H   H53       1.0  0.06623  0.54686  0.37838  1.0000 0.1139487547
H   H54       1.0  0.06574  0.48961  0.30501  1.0000 0.1207713684
H   H55       1.0  0.26311  0.37723  0.37536  1.0000 0.1287470242
H   H56       1.0  0.25784  0.43315  0.45079  1.0000 0.1139487547
H   H57       1.0  0.12409  0.97053  0.31901  1.0000 0.0946942602
H   H58       1.0  0.13952  0.00905  0.23953  1.0000 0.1207713684
H   H59       1.0  0.15311  0.11268  0.23101  1.0000 0.1207713684
H   H60       1.0  0.12097  0.12913  0.38005  1.0000 0.1038374488
H   H61       1.0  0.24396  0.20441  0.24589  1.0000 0.1139487547
H   H62       1.0  0.25398  0.30875  0.24126  1.0000 0.1287470242
H   H63       1.0  0.06926  0.32106  0.35424  1.0000 0.1287470242
H   H64       1.0  0.07441  0.21678  0.36434  1.0000 0.1139487547
H   H65       1.0  0.05851  0.34806  0.20733  1.0000 0.1207713684
H   H66       1.0  0.04715  0.38609  0.12347  1.0000 0.1207713684
H   H67       1.0  0.22029  0.52364  0.17063  1.0000 0.1207713684
H   H68       1.0  0.23428  0.48689  0.25307  1.0000 0.1287470242
H   H69       1.0  0.12617  0.56856  0.10447  1.0000 0.1139487547
H   H70       1.0  0.13128  0.40352  0.04609  1.0000 0.1287470242
H   H71       1.0  0.12476  0.44522  0.96488  1.0000 0.1287470242
H   H72       1.0  0.13019  0.54782  0.95615  1.0000 0.1139487547
H   H73       1.0  0.83242  0.13124  0.63993  1.0000 0.1207713684
H   H74       1.0  0.82198  0.12979  0.72614  1.0000 0.1207713684
H   H75       1.0  0.87768  0.30792  0.64215  1.0000 0.1207713684
H   H76       1.0  0.88041  0.36442  0.72606  1.0000 0.1207713684
H   H77       1.0  0.86964  0.36235  0.81276  1.0000 0.1207713684
H   H78       1.0  0.82758  0.18534  0.81015  1.0000 0.1207713684
H   H79       1.0  0.55585  0.12136  0.46992  1.0000 0.1287470242
H   H80       1.0  0.38256  0.10879  0.46874  1.0000 0.1207713684
H   H81       1.0  0.52213  0.30028  0.47984  1.0000 0.1287470242
H   H82       1.0  0.34760  0.34326  0.48207  1.0000 0.1139487547
H   H83       1.0  0.17630  0.33048  0.47997  1.0000 0.1139487547
H   H84       1.0  0.20997  0.15242  0.47351  1.0000 0.1139487547
H   H85       1.0  0.85609  0.39216  0.40393  1.0000 0.1207713684
H   H86       1.0  0.86013  0.49464  0.40345  1.0000 0.1207713684
H   H87       1.0  0.85732  0.54733  0.48061  1.0000 0.1207713684
H   H88       1.0  0.85714  0.39148  0.55432  1.0000 0.1207713684
H   H89       1.0  0.93377  0.45314  0.62162  1.0000 0.1139487547
H   H90       1.0  0.93426  0.51039  0.69499  1.0000 0.1207713684
H   H91       1.0  0.73689  0.62277  0.62464  1.0000 0.1287470242
H   H92       1.0  0.74216  0.56685  0.54921  1.0000 0.1139487547
H   H93       1.0  0.87591  0.02947  0.68099  1.0000 0.0946942602
H   H94       1.0  0.86048  0.99095  0.76047  1.0000 0.1207713684
H   H95       1.0  0.84689  0.88732  0.76899  1.0000 0.1207713684
H   H96       1.0  0.87903  0.87087  0.61995  1.0000 0.1038374488
H   H97       1.0  0.75604  0.79559  0.75411  1.0000 0.1139487547
H   H98       1.0  0.74602  0.69125  0.75874  1.0000 0.1287470242
H   H99       1.0  0.93074  0.67894  0.64576  1.0000 0.1287470242
H   H100      1.0  0.92559  0.78322  0.63566  1.0000 0.1139487547
H   H101      1.0  0.94149  0.65194  0.79267  1.0000 0.1207713684
H   H102      1.0  0.95285  0.61391  0.87653  1.0000 0.1207713684
H   H103      1.0  0.77971  0.47636  0.82937  1.0000 0.1207713684
H   H104      1.0  0.76572  0.51311  0.74693  1.0000 0.1287470242
H   H105      1.0  0.87383  0.43144  0.89553  1.0000 0.1139487547
H   H106      1.0  0.86872  0.59648  0.95391  1.0000 0.1287470242
H   H107      1.0  0.87524  0.55478  0.03512  1.0000 0.1287470242
H   H108      1.0  0.86981  0.45218  0.04385  1.0000 0.1139487547
H   H109      1.0  0.83242  0.36876  0.13993  1.0000 0.1207713684
H   H110      1.0  0.82198  0.37021  0.22614  1.0000 0.1207713684
H   H111      1.0  0.87768  0.19208  0.14215  1.0000 0.1207713684
H   H112      1.0  0.88041  0.13558  0.22606  1.0000 0.1207713684
H   H113      1.0  0.86964  0.13765  0.31276  1.0000 0.1207713684
H   H114      1.0  0.82758  0.31466  0.31015  1.0000 0.1207713684
H   H115      1.0  0.55585  0.37864  0.96992  1.0000 0.1287470242
H   H116      1.0  0.38256  0.39121  0.96874  1.0000 0.1207713684
H   H117      1.0  0.52213  0.19972  0.97984  1.0000 0.1287470242
H   H118      1.0  0.34760  0.15674  0.98207  1.0000 0.1139487547
H   H119      1.0  0.17630  0.16952  0.97997  1.0000 0.1139487547
H   H120      1.0  0.20997  0.34758  0.97351  1.0000 0.1139487547
H   H121      1.0  0.85609  0.10784  0.90393  1.0000 0.1207713684
H   H122      1.0  0.86013  0.00536  0.90345  1.0000 0.1207713684
H   H123      1.0  0.85732  0.95267  0.98061  1.0000 0.1207713684
H   H124      1.0  0.85714  0.10852  0.05432  1.0000 0.1207713684
H   H125      1.0  0.93377  0.04686  0.12162  1.0000 0.1139487547
H   H126      1.0  0.93426  0.98961  0.19499  1.0000 0.1207713684
H   H127      1.0  0.73689  0.87723  0.12464  1.0000 0.1287470242
H   H128      1.0  0.74216  0.93315  0.04921  1.0000 0.1139487547
H   H129      1.0  0.87591  0.47053  0.18099  1.0000 0.0946942602
H   H130      1.0  0.86048  0.50905  0.26047  1.0000 0.1207713684
H   H131      1.0  0.84689  0.61268  0.26899  1.0000 0.1207713684
H   H132      1.0  0.87903  0.62913  0.11995  1.0000 0.1038374488
H   H133      1.0  0.75604  0.70441  0.25411  1.0000 0.1139487547
H   H134      1.0  0.74602  0.80875  0.25874  1.0000 0.1287470242
H   H135      1.0  0.93074  0.82106  0.14576  1.0000 0.1287470242
H   H136      1.0  0.92559  0.71678  0.13566  1.0000 0.1139487547
H   H137      1.0  0.94149  0.84806  0.29267  1.0000 0.1207713684
H   H138      1.0  0.95285  0.88609  0.37653  1.0000 0.1207713684
H   H139      1.0  0.77971  0.02364  0.32937  1.0000 0.1207713684
H   H140      1.0  0.76572  0.98689  0.24693  1.0000 0.1287470242
H   H141      1.0  0.87383  0.06856  0.39553  1.0000 0.1139487547
H   H142      1.0  0.86872  0.90352  0.45391  1.0000 0.1287470242
H   H143      1.0  0.87524  0.94522  0.53512  1.0000 0.1287470242
H   H144      1.0  0.86981  0.04782  0.54385  1.0000 0.1139487547
C   C1        1.0  0.14090  0.72000  0.86810  1.0000 -0.0290314079
C   C2        1.0  0.15950  0.66690  0.84170  1.0000 -0.1123601978
C   C3        1.0  0.16590  0.66600  0.79010  1.0000 -0.1580762877
C   C4        1.0  0.15470  0.71890  0.76040  1.0000 0.0783413682
C   C5        1.0  0.13920  0.77380  0.78720  1.0000 0.0783413682
C   C6        1.0  0.13270  0.77220  0.84050  1.0000 -0.1580762877
C   C7        1.0  0.12970  0.82800  0.75750  1.0000 -0.1580762877
C   C8        1.0  0.13530  0.82660  0.70580  1.0000 -0.1123601978
C   C9        1.0  0.14840  0.77240  0.67950  1.0000 -0.0290314079
C   C10       1.0  0.16020  0.72090  0.70720  1.0000 -0.1580762877
C   C11       1.0  0.14530  0.77170  0.62220  1.0000 0.5810117159
C   C12       1.0  0.32980  0.72030  0.02460  1.0000 0.5871727873
C   C13       1.0  0.44330  0.71240  0.02500  1.0000 -0.0290314079
C   C14       1.0  0.48640  0.65480  0.02820  1.0000 -0.0976615403
C   C15       1.0  0.58990  0.64730  0.02870  1.0000 -0.1506541046
C   C16       1.0  0.65450  0.69650  0.02550  1.0000 0.0783413682
C   C17       1.0  0.61250  0.75520  0.02280  1.0000 0.0725873696
C   C18       1.0  0.50630  0.76200  0.02230  1.0000 -0.1506541046
C   C19       1.0  0.67930  0.80460  0.02010  1.0000 -0.1506541046
C   C20       1.0  0.78150  0.79690  0.02070  1.0000 -0.1185719877
C   C21       1.0  0.82610  0.73860  0.02240  1.0000 -0.0290314079
C   C22       1.0  0.76190  0.69080  0.02500  1.0000 -0.1580762877
C   C23       1.0  0.93830  0.73140  0.02210  1.0000 0.5712307278
C   C24       1.0  0.14280  0.91310  0.06510  1.0000 0.0629326406
C   C25       1.0  0.14160  0.97400  0.06560  1.0000 -0.1506541046
C   C26       1.0  0.14310  0.00560  0.01940  1.0000 -0.1123601978
C   C27       1.0  0.14510  0.97430  0.97370  1.0000 0.0325547084
C   C28       1.0  0.14340  0.91310  0.97630  1.0000 0.0203761399
C   C29       1.0  0.15100  0.00760  0.92410  1.0000 0.0629326406
C   C30       1.0  0.10160  0.98940  0.87930  1.0000 -0.1506541046
C   C31       1.0  0.10260  0.02370  0.83470  1.0000 -0.1886012341
C   C32       1.0  0.15550  0.07580  0.83320  1.0000 0.1708923388
C   C33       1.0  0.21860  0.09040  0.87640  1.0000 -0.1700418359
C   C34       1.0  0.21570  0.05640  0.92190  1.0000 -0.1410503018
C   C35       1.0  0.12610  0.48790  0.81580  1.0000 0.0393943858
C   C36       1.0  0.13780  0.46570  0.76790  1.0000 -0.1700418359
C   C37       1.0  0.14700  0.40430  0.76330  1.0000 -0.1309187946
C   C38       1.0  0.14720  0.36720  0.80680  1.0000 0.0325547084
C   C39       1.0  0.12780  0.39530  0.85150  1.0000 -0.0151176307
C   C40       1.0  0.15530  0.30090  0.80420  1.0000 0.0629326406
C   C41       1.0  0.20890  0.27250  0.76860  1.0000 -0.1309187946
C   C42       1.0  0.21350  0.20930  0.76480  1.0000 -0.1841653149
C   C43       1.0  0.15840  0.17540  0.79560  1.0000 0.1568528001
C   C44       1.0  0.10600  0.20220  0.83240  1.0000 -0.1700418359
C   C45       1.0  0.10710  0.26550  0.83770  1.0000 -0.1309187946
C   C46       1.0  0.14910  0.08750  0.74010  1.0000 0.1708923388
C   C47       1.0  0.09270  0.11660  0.70030  1.0000 -0.1841653149
C   C48       1.0  0.08600  0.09390  0.64940  1.0000 -0.1309187946
C   C49       1.0  0.13760  0.04160  0.63840  1.0000 0.0528225597
C   C50       1.0  0.18870  0.01260  0.67740  1.0000 -0.1309187946
C   C51       1.0  0.19660  0.03450  0.72750  1.0000 -0.1841653149
C   C52       1.0  0.12870  0.95700  0.57630  1.0000 0.0393943858
C   C53       1.0  0.13270  0.01820  0.58560  1.0000 0.0325547084
C   C54       1.0  0.13060  0.05490  0.54220  1.0000 -0.0976615403
C   C55       1.0  0.12760  0.03030  0.49390  1.0000 -0.1309187946
C   C56       1.0  0.12880  0.96880  0.48890  1.0000 0.0725873696
C   C57       1.0  0.13130  0.71970  0.92460  1.0000 0.5871727873
C   C58       1.0  0.14090  0.78000  0.36810  1.0000 -0.0290314079
C   C59       1.0  0.15950  0.83310  0.34170  1.0000 -0.1123601978
C   C60       1.0  0.16590  0.83400  0.29010  1.0000 -0.1506541046
C   C61       1.0  0.15470  0.78110  0.26040  1.0000 0.0783413682
C   C62       1.0  0.13920  0.72620  0.28720  1.0000 0.0783413682
C   C63       1.0  0.13270  0.72780  0.34050  1.0000 -0.1580762877
C   C64       1.0  0.12970  0.67200  0.25750  1.0000 -0.1580762877
C   C65       1.0  0.13530  0.67340  0.20580  1.0000 -0.1123601978
C   C66       1.0  0.14840  0.72760  0.17950  1.0000 -0.0290314079
C   C67       1.0  0.16020  0.77910  0.20720  1.0000 -0.1580762877
C   C68       1.0  0.14530  0.72830  0.12220  1.0000 0.5810117159
C   C69       1.0  0.32980  0.77970  0.52460  1.0000 0.5871727873
C   C70       1.0  0.44330  0.78760  0.52500  1.0000 -0.0290314079
C   C71       1.0  0.48640  0.84520  0.52820  1.0000 -0.0976615403
C   C72       1.0  0.58990  0.85270  0.52870  1.0000 -0.1580762877
C   C73       1.0  0.65450  0.80350  0.52550  1.0000 0.0783413682
C   C74       1.0  0.61250  0.74480  0.52280  1.0000 0.0725873696
C   C75       1.0  0.50630  0.73800  0.52230  1.0000 -0.1506541046
C   C76       1.0  0.67930  0.69540  0.52010  1.0000 -0.1506541046
C   C77       1.0  0.78150  0.70310  0.52070  1.0000 -0.1185719877
C   C78       1.0  0.82610  0.76140  0.52240  1.0000 -0.0290314079
C   C79       1.0  0.76190  0.80920  0.52500  1.0000 -0.1580762877
C   C80       1.0  0.93830  0.76860  0.52210  1.0000 0.5712307278
C   C81       1.0  0.14280  0.58690  0.56510  1.0000 0.0629326406
C   C82       1.0  0.14160  0.52600  0.56560  1.0000 -0.1506541046
C   C83       1.0  0.14310  0.49440  0.51940  1.0000 -0.1123601978
C   C84       1.0  0.14510  0.52570  0.47370  1.0000 0.0325547084
C   C85       1.0  0.14340  0.58690  0.47630  1.0000 0.0203761399
C   C86       1.0  0.15100  0.49240  0.42410  1.0000 0.0629326406
C   C87       1.0  0.10160  0.51060  0.37930  1.0000 -0.1506541046
C   C88       1.0  0.10260  0.47630  0.33470  1.0000 -0.1886012341
C   C89       1.0  0.15550  0.42420  0.33320  1.0000 0.1708923388
C   C90       1.0  0.21860  0.40960  0.37640  1.0000 -0.1700418359
C   C91       1.0  0.21570  0.44360  0.42190  1.0000 -0.1410503018
C   C92       1.0  0.12610  0.01210  0.31580  1.0000 0.0393943858
C   C93       1.0  0.13780  0.03430  0.26790  1.0000 -0.1700418359
C   C94       1.0  0.14700  0.09570  0.26330  1.0000 -0.1309187946
C   C95       1.0  0.14720  0.13280  0.30680  1.0000 0.0325547084
C   C96       1.0  0.12780  0.10470  0.35150  1.0000 -0.0151176307
C   C97       1.0  0.15530  0.19910  0.30420  1.0000 0.0629326406
C   C98       1.0  0.20890  0.22750  0.26860  1.0000 -0.1309187946
C   C99       1.0  0.21350  0.29070  0.26480  1.0000 -0.1841653149
C   C100      1.0  0.15840  0.32460  0.29560  1.0000 0.1568528001
C   C101      1.0  0.10600  0.29780  0.33240  1.0000 -0.1700418359
C   C102      1.0  0.10710  0.23450  0.33770  1.0000 -0.1309187946
C   C103      1.0  0.14910  0.41250  0.24010  1.0000 0.1708923388
C   C104      1.0  0.09270  0.38340  0.20030  1.0000 -0.1841653149
C   C105      1.0  0.08600  0.40610  0.14940  1.0000 -0.1309187946
C   C106      1.0  0.13760  0.45840  0.13840  1.0000 0.0528225597
C   C107      1.0  0.18870  0.48740  0.17740  1.0000 -0.1309187946
C   C108      1.0  0.19660  0.46550  0.22750  1.0000 -0.1886012341
C   C109      1.0  0.12870  0.54300  0.07630  1.0000 0.0393943858
C   C110      1.0  0.13270  0.48180  0.08560  1.0000 0.0325547084
C   C111      1.0  0.13060  0.44510  0.04220  1.0000 -0.0976615403
C   C112      1.0  0.12760  0.46970  0.99390  1.0000 -0.1309187946
C   C113      1.0  0.12880  0.53120  0.98890  1.0000 0.0725873696
C   C114      1.0  0.13130  0.78030  0.42460  1.0000 0.5871727873
C   C115      1.0  0.85910  0.22000  0.63190  1.0000 -0.0290314079
C   C116      1.0  0.84050  0.16690  0.65830  1.0000 -0.1123601978
C   C117      1.0  0.83410  0.16600  0.70990  1.0000 -0.1580762877
C   C118      1.0  0.84530  0.21890  0.73960  1.0000 0.0783413682
C   C119      1.0  0.86080  0.27380  0.71280  1.0000 0.0783413682
C   C120      1.0  0.86730  0.27220  0.65950  1.0000 -0.1580762877
C   C121      1.0  0.87030  0.32800  0.74250  1.0000 -0.1506541046
C   C122      1.0  0.86470  0.32660  0.79420  1.0000 -0.1123601978
C   C123      1.0  0.85160  0.27240  0.82050  1.0000 -0.0290314079
C   C124      1.0  0.83980  0.22090  0.79280  1.0000 -0.1580762877
C   C125      1.0  0.85470  0.27170  0.87780  1.0000 0.5810117159
C   C126      1.0  0.67020  0.22030  0.47540  1.0000 0.5871727873
C   C127      1.0  0.55670  0.21240  0.47500  1.0000 -0.0290314079
C   C128      1.0  0.51360  0.15480  0.47180  1.0000 -0.0976615403
C   C129      1.0  0.41010  0.14730  0.47130  1.0000 -0.1506541046
C   C130      1.0  0.34550  0.19650  0.47450  1.0000 0.0783413682
C   C131      1.0  0.38750  0.25520  0.47720  1.0000 0.0725873696
C   C132      1.0  0.49370  0.26200  0.47770  1.0000 -0.1506541046
C   C133      1.0  0.32070  0.30460  0.47990  1.0000 -0.1506541046
C   C134      1.0  0.21850  0.29690  0.47930  1.0000 -0.1185719877
C   C135      1.0  0.17390  0.23860  0.47760  1.0000 -0.0290314079
C   C136      1.0  0.23810  0.19080  0.47500  1.0000 -0.1580762877
C   C137      1.0  0.06170  0.23140  0.47790  1.0000 0.5712307278
C   C138      1.0  0.85720  0.41310  0.43490  1.0000 0.0629326406
C   C139      1.0  0.85840  0.47400  0.43440  1.0000 -0.1506541046
C   C140      1.0  0.85690  0.50560  0.48060  1.0000 -0.1123601978
C   C141      1.0  0.85490  0.47430  0.52630  1.0000 0.0325547084
C   C142      1.0  0.85660  0.41310  0.52370  1.0000 0.0203761399
C   C143      1.0  0.84900  0.50760  0.57590  1.0000 0.0629326406
C   C144      1.0  0.89840  0.48940  0.62070  1.0000 -0.1506541046
C   C145      1.0  0.89740  0.52370  0.66530  1.0000 -0.1841653149
C   C146      1.0  0.84450  0.57580  0.66680  1.0000 0.1708923388
C   C147      1.0  0.78140  0.59040  0.62360  1.0000 -0.1700418359
C   C148      1.0  0.78430  0.55640  0.57810  1.0000 -0.1410503018
C   C149      1.0  0.87390  0.98790  0.68420  1.0000 0.0393943858
C   C150      1.0  0.86220  0.96570  0.73210  1.0000 -0.1700418359
C   C151      1.0  0.85300  0.90430  0.73670  1.0000 -0.1309187946
C   C152      1.0  0.85280  0.86720  0.69320  1.0000 0.0325547084
C   C153      1.0  0.87220  0.89530  0.64850  1.0000 -0.0151176307
C   C154      1.0  0.84470  0.80090  0.69580  1.0000 0.0629326406
C   C155      1.0  0.79110  0.77250  0.73140  1.0000 -0.1309187946
C   C156      1.0  0.78650  0.70930  0.73520  1.0000 -0.1841653149
C   C157      1.0  0.84160  0.67540  0.70440  1.0000 0.1568528001
C   C158      1.0  0.89400  0.70220  0.66760  1.0000 -0.1700418359
C   C159      1.0  0.89290  0.76550  0.66230  1.0000 -0.1309187946
C   C160      1.0  0.85090  0.58750  0.75990  1.0000 0.1708923388
C   C161      1.0  0.90730  0.61660  0.79970  1.0000 -0.1841653149
C   C162      1.0  0.91400  0.59390  0.85060  1.0000 -0.1309187946
C   C163      1.0  0.86240  0.54160  0.86160  1.0000 0.0528225597
C   C164      1.0  0.81130  0.51260  0.82260  1.0000 -0.1309187946
C   C165      1.0  0.80340  0.53450  0.77250  1.0000 -0.1886012341
C   C166      1.0  0.87130  0.45700  0.92370  1.0000 0.0393943858
C   C167      1.0  0.86730  0.51820  0.91440  1.0000 0.0325547084
C   C168      1.0  0.86940  0.55490  0.95780  1.0000 -0.0976615403
C   C169      1.0  0.87240  0.53030  0.00610  1.0000 -0.1309187946
C   C170      1.0  0.87120  0.46880  0.01110  1.0000 0.0725873696
C   C171      1.0  0.86870  0.21970  0.57540  1.0000 0.5871727873
C   C172      1.0  0.85910  0.28000  0.13190  1.0000 -0.0290314079
C   C173      1.0  0.84050  0.33310  0.15830  1.0000 -0.1123601978
C   C174      1.0  0.83410  0.33400  0.20990  1.0000 -0.1580762877
C   C175      1.0  0.84530  0.28110  0.23960  1.0000 0.0783413682
C   C176      1.0  0.86080  0.22620  0.21280  1.0000 0.0783413682
C   C177      1.0  0.86730  0.22780  0.15950  1.0000 -0.1580762877
C   C178      1.0  0.87030  0.17200  0.24250  1.0000 -0.1506541046
C   C179      1.0  0.86470  0.17340  0.29420  1.0000 -0.1123601978
C   C180      1.0  0.85160  0.22760  0.32050  1.0000 -0.0290314079
C   C181      1.0  0.83980  0.27910  0.29280  1.0000 -0.1580762877
C   C182      1.0  0.85470  0.22830  0.37780  1.0000 0.5810117159
C   C183      1.0  0.67020  0.27970  0.97540  1.0000 0.5871727873
C   C184      1.0  0.55670  0.28760  0.97500  1.0000 -0.0290314079
C   C185      1.0  0.51360  0.34520  0.97180  1.0000 -0.0976615403
C   C186      1.0  0.41010  0.35270  0.97130  1.0000 -0.1506541046
C   C187      1.0  0.34550  0.30350  0.97450  1.0000 0.0783413682
C   C188      1.0  0.38750  0.24480  0.97720  1.0000 0.0725873696
C   C189      1.0  0.49370  0.23800  0.97770  1.0000 -0.1506541046
C   C190      1.0  0.32070  0.19540  0.97990  1.0000 -0.1506541046
C   C191      1.0  0.21850  0.20310  0.97930  1.0000 -0.1185719877
C   C192      1.0  0.17390  0.26140  0.97760  1.0000 -0.0290314079
C   C193      1.0  0.23810  0.30920  0.97500  1.0000 -0.1580762877
C   C194      1.0  0.06170  0.26860  0.97790  1.0000 0.5712307278
C   C195      1.0  0.85720  0.08690  0.93490  1.0000 0.0629326406
C   C196      1.0  0.85840  0.02600  0.93440  1.0000 -0.1506541046
C   C197      1.0  0.85690  0.99440  0.98060  1.0000 -0.1123601978
C   C198      1.0  0.85490  0.02570  0.02630  1.0000 0.0325547084
C   C199      1.0  0.85660  0.08690  0.02370  1.0000 0.0203761399
C   C200      1.0  0.84900  0.99240  0.07590  1.0000 0.0629326406
C   C201      1.0  0.89840  0.01060  0.12070  1.0000 -0.1506541046
C   C202      1.0  0.89740  0.97630  0.16530  1.0000 -0.1886012341
C   C203      1.0  0.84450  0.92420  0.16680  1.0000 0.1708923388
C   C204      1.0  0.78140  0.90960  0.12360  1.0000 -0.1700418359
C   C205      1.0  0.78430  0.94360  0.07810  1.0000 -0.1410503018
C   C206      1.0  0.87390  0.51210  0.18420  1.0000 0.0393943858
C   C207      1.0  0.86220  0.53430  0.23210  1.0000 -0.1700418359
C   C208      1.0  0.85300  0.59570  0.23670  1.0000 -0.1309187946
C   C209      1.0  0.85280  0.63280  0.19320  1.0000 0.0325547084
C   C210      1.0  0.87220  0.60470  0.14850  1.0000 -0.0146278565
C   C211      1.0  0.84470  0.69910  0.19580  1.0000 0.0629326406
C   C212      1.0  0.79110  0.72750  0.23140  1.0000 -0.1309187946
C   C213      1.0  0.78650  0.79070  0.23520  1.0000 -0.1886012341
C   C214      1.0  0.84160  0.82460  0.20440  1.0000 0.1568528001
C   C215      1.0  0.89400  0.79780  0.16760  1.0000 -0.1700418359
C   C216      1.0  0.89290  0.73450  0.16230  1.0000 -0.1309187946
C   C217      1.0  0.85090  0.91250  0.25990  1.0000 0.1708923388
C   C218      1.0  0.90730  0.88340  0.29970  1.0000 -0.1841653149
C   C219      1.0  0.91400  0.90610  0.35060  1.0000 -0.1309187946
C   C220      1.0  0.86240  0.95840  0.36160  1.0000 0.0528225597
C   C221      1.0  0.81130  0.98740  0.32260  1.0000 -0.1309187946
C   C222      1.0  0.80340  0.96550  0.27250  1.0000 -0.1841653149
C   C223      1.0  0.87130  0.04300  0.42370  1.0000 0.0393943858
C   C224      1.0  0.86730  0.98180  0.41440  1.0000 0.0325547084
C   C225      1.0  0.86940  0.94510  0.45780  1.0000 -0.0976615403
C   C226      1.0  0.87240  0.96970  0.50610  1.0000 -0.1309187946
C   C227      1.0  0.87120  0.03120  0.51110  1.0000 0.0725873696
C   C228      1.0  0.86870  0.28030  0.07540  1.0000 0.5871727873
N   N1        1.0  0.14250  0.88250  0.02063  1.0000 -0.1886012341
N   N2        1.0  0.11720  0.45580  0.85870  1.0000 -0.2531124171
N   N3        1.0  0.12810  0.93210  0.52966  1.0000 -0.2113559511
N   N4        1.0  0.15530  0.11240  0.78990  1.0000 -0.1580762877
N   N5        1.0  0.14250  0.61750  0.52063  1.0000 -0.1886012341
N   N6        1.0  0.11720  0.04420  0.35870  1.0000 -0.2531124171
N   N7        1.0  0.12810  0.56790  0.02966  1.0000 -0.2113559511
N   N8        1.0  0.15530  0.38760  0.28990  1.0000 -0.1580762877
N   N9        1.0  0.85750  0.38250  0.47937  1.0000 -0.1886012341
N   N10       1.0  0.88280  0.95580  0.64130  1.0000 -0.2531124171
N   N11       1.0  0.87190  0.43210  0.97034  1.0000 -0.2113559511
N   N12       1.0  0.84470  0.61240  0.71010  1.0000 -0.1580762877
N   N13       1.0  0.85750  0.11750  0.97937  1.0000 -0.1886012341
N   N14       1.0  0.88280  0.54420  0.14130  1.0000 -0.2531124171
N   N15       1.0  0.87190  0.06790  0.47034  1.0000 -0.2113559511
N   N16       1.0  0.84470  0.88760  0.21010  1.0000 -0.1580762877
O   O1        1.0  0.27820  0.67390  0.02530  1.0000 -0.533891898
O   O2        1.0  0.29570  0.77320  0.02310  1.0000 -0.5406561212
O   O3        1.0  0.97280  0.67920  0.02065  1.0000 -0.533891898
O   O4        1.0  0.99100  0.77790  0.02450  1.0000 -0.5406561212
O   O5        1.0  0.12270  0.66970  0.94625  1.0000 -0.533891898
O   O6        1.0  0.13260  0.76970  0.94710  1.0000 -0.5406561212
O   O7        1.0  0.15490  0.72180  0.60058  1.0000 -0.5406561212
O   O8        1.0  0.13050  0.82120  0.59959  1.0000 -0.5454342182
O   O9        1.0  0.27820  0.82610  0.52530  1.0000 -0.533891898
O   O10       1.0  0.29570  0.72680  0.52310  1.0000 -0.5406561212
O   O11       1.0  0.97280  0.82080  0.52065  1.0000 -0.533891898
O   O12       1.0  0.99100  0.72210  0.52450  1.0000 -0.5406561212
O   O13       1.0  0.12270  0.83030  0.44625  1.0000 -0.533891898
O   O14       1.0  0.13260  0.73030  0.44710  1.0000 -0.5406561212
O   O15       1.0  0.15490  0.77820  0.10058  1.0000 -0.5406561212
O   O16       1.0  0.13050  0.67880  0.09959  1.0000 -0.5454342182
O   O17       1.0  0.72180  0.17390  0.47470  1.0000 -0.533891898
O   O18       1.0  0.70430  0.27320  0.47690  1.0000 -0.5406561212
O   O19       1.0  0.02720  0.17920  0.47935  1.0000 -0.533891898
O   O20       1.0  0.00900  0.27790  0.47550  1.0000 -0.5406561212
O   O21       1.0  0.87730  0.16970  0.55375  1.0000 -0.533891898
O   O22       1.0  0.86740  0.26970  0.55290  1.0000 -0.5406561212
O   O23       1.0  0.84510  0.22180  0.89942  1.0000 -0.5406561212
O   O24       1.0  0.86950  0.32120  0.90041  1.0000 -0.5406561212
O   O25       1.0  0.72180  0.32610  0.97470  1.0000 -0.533891898
O   O26       1.0  0.70430  0.22680  0.97690  1.0000 -0.5406561212
O   O27       1.0  0.02720  0.32080  0.97935  1.0000 -0.533891898
O   O28       1.0  0.00900  0.22210  0.97550  1.0000 -0.5406561212
O   O29       1.0  0.87730  0.33030  0.05375  1.0000 -0.533891898
O   O30       1.0  0.86740  0.23030  0.05290  1.0000 -0.5406561212
O   O31       1.0  0.84510  0.27820  0.39942  1.0000 -0.5406561212
O   O32       1.0  0.86950  0.17880  0.40041  1.0000 -0.5406561212
