# DDEC6 charges by PACMAN v1.1 (https://github.com/mtap-research/PACMAN-charge/)
data_2022[Tb][dia]3[FSR]1
_chemical_formula_sum              "Tb2 H8 C4 O12 F2"
_cell_length_a       8.1951
_cell_length_b       8.1951
_cell_length_c       8.2428
_cell_angle_alpha    62.5336
_cell_angle_beta     117.466
_cell_angle_gamma    94.5217

_symmetry_space_group_name_H-M    "P 1"
_symmetry_Int_Tables_number       1

loop_
  _symmetry_equiv_pos_as_xyz
  'x, y, z'

loop_
  _atom_site_type_symbol
  _atom_site_label
  _atom_site_symmetry_multiplicity
  _atom_site_fract_x
  _atom_site_fract_y
  _atom_site_fract_z
  _atom_site_occupancy
  _atom_site_charge
Tb  Tb1       1.0  0.43488  0.43488  0.75000  1.0000 2.0387582343
Tb  Tb2       1.0  0.56512  0.56512  0.25000  1.0000 2.0387582343
H   H1        1.0  0.34200  0.84400  0.54300  1.0000 0.3122798066
H   H2        1.0  0.39200  0.80000  0.44500  1.0000 0.3281893368
H   H3        1.0  0.84400  0.34200  0.95700  1.0000 0.3122798066
H   H4        1.0  0.80000  0.39200  0.05500  1.0000 0.3281893368
H   H5        1.0  0.65800  0.15600  0.45700  1.0000 0.3122798066
H   H6        1.0  0.60800  0.20000  0.55500  1.0000 0.3281893368
H   H7        1.0  0.15600  0.65800  0.04300  1.0000 0.3122798066
H   H8        1.0  0.20000  0.60800  0.94500  1.0000 0.3281893368
C   C1        1.0  0.44850  0.00690  0.05690  1.0000 0.5085346262
C   C2        1.0  0.00690  0.44850  0.44310  1.0000 0.5085346262
C   C3        1.0  0.55150  0.99310  0.94310  1.0000 0.5085346262
C   C4        1.0  0.99310  0.55150  0.55690  1.0000 0.5085346262
O   O1        1.0  0.39610  0.76670  0.54920  1.0000 -0.6544733484
O   O2        1.0  0.37613  0.16797  0.99460  1.0000 -0.5858537991
O   O3        1.0  0.44644  0.85732  0.19730  1.0000 -0.5703751434
O   O4        1.0  0.76670  0.39610  0.95080  1.0000 -0.6544733484
O   O5        1.0  0.16797  0.37613  0.50540  1.0000 -0.5858537991
O   O6        1.0  0.85732  0.44644  0.30270  1.0000 -0.5703751434
O   O7        1.0  0.60390  0.23330  0.45080  1.0000 -0.6544733484
O   O8        1.0  0.62387  0.83203  0.00540  1.0000 -0.5858537991
O   O9        1.0  0.55356  0.14268  0.80270  1.0000 -0.5703751434
O   O10       1.0  0.23330  0.60390  0.04920  1.0000 -0.6544733484
O   O11       1.0  0.83203  0.62387  0.49460  1.0000 -0.5858537991
O   O12       1.0  0.14268  0.55356  0.69730  1.0000 -0.5703751434
F   F1        1.0  0.50000  0.50000  0.00000  1.0000 -0.7170362909
F   F2        1.0  0.50000  0.50000  0.50000  1.0000 -0.7136860926
