# DDEC6 charges by PACMAN v1.1 (https://github.com/mtap-research/PACMAN-charge/)
data_2022[Cd][kgd]2[FSR]1
_chemical_formula_sum              "Cd3 H28 C28 N2 O18"
_cell_length_a       10.7336
_cell_length_b       10.7336
_cell_length_c       10.7268
_cell_angle_alpha    65.0839
_cell_angle_beta     114.916
_cell_angle_gamma    123.285

_symmetry_space_group_name_H-M    "P 1"
_symmetry_Int_Tables_number       1

loop_
  _symmetry_equiv_pos_as_xyz
  'x, y, z'

loop_
  _atom_site_type_symbol
  _atom_site_label
  _atom_site_symmetry_multiplicity
  _atom_site_fract_x
  _atom_site_fract_y
  _atom_site_fract_z
  _atom_site_occupancy
  _atom_site_charge
Cd  Cd1       1.0  0.54126  0.54424  0.75609  1.0000 1.0203844514
Cd  Cd2       1.0  0.54424  0.54126  0.24391  1.0000 1.0203844514
Cd  Cd3       1.0  0.76666  0.76666  0.50000  1.0000 1.031046411
H   H1        1.0  0.08928  0.06018  0.76887  1.0000 0.1301603727
H   H2        1.0  0.97440  0.71056  0.10893  1.0000 0.12074567
H   H3        1.0  0.38099  0.08415  0.15485  1.0000 0.1301603727
H   H4        1.0  0.16585  0.83193  0.35689  1.0000 0.1301603727
H   H5        1.0  0.32926  0.87224  0.35461  1.0000 0.12074567
H   H6        1.0  0.96793  0.31667  0.43972  1.0000 0.1301603727
H   H7        1.0  0.12599  0.35667  0.55619  1.0000 0.1533816661
H   H8        1.0  0.21848  0.37092  0.39807  1.0000 0.12074567
H   H9        1.0  0.07907  0.38747  0.27147  1.0000 0.1061734613
H   H10       1.0  0.25037  0.63867  0.21591  1.0000 0.12074567
H   H11       1.0  0.40500  0.71900  0.75600  1.0000 0.3697459902
H   H12       1.0  0.70500  0.99100  0.45700  1.0000 0.3558039572
H   H13       1.0  0.73100  0.04300  0.32700  1.0000 0.3376186695
H   H14       1.0  0.51700  0.71700  0.88000  1.0000 0.3697459902
H   H15       1.0  0.06018  0.08928  0.23113  1.0000 0.1301603727
H   H16       1.0  0.71056  0.97440  0.89107  1.0000 0.12074567
H   H17       1.0  0.08415  0.38099  0.84515  1.0000 0.1301603727
H   H18       1.0  0.83193  0.16585  0.64311  1.0000 0.1301603727
H   H19       1.0  0.87224  0.32926  0.64539  1.0000 0.12074567
H   H20       1.0  0.31667  0.96793  0.56028  1.0000 0.1301603727
H   H21       1.0  0.35667  0.12599  0.44381  1.0000 0.1533816661
H   H22       1.0  0.37092  0.21848  0.60193  1.0000 0.12074567
H   H23       1.0  0.38747  0.07907  0.72853  1.0000 0.1061734613
H   H24       1.0  0.63867  0.25037  0.78409  1.0000 0.12074567
H   H25       1.0  0.71900  0.40500  0.24400  1.0000 0.3697459902
H   H26       1.0  0.99100  0.70500  0.54300  1.0000 0.3558039572
H   H27       1.0  0.04300  0.73100  0.67300  1.0000 0.3376186695
H   H28       1.0  0.71700  0.51700  0.12000  1.0000 0.3697459902
C   C1        1.0  0.36470  0.25370  0.88950  1.0000 0.5421655979
C   C2        1.0  0.25070  0.09570  0.95150  1.0000 -0.0060796496
C   C3        1.0  0.11290  0.01650  0.86590  1.0000 -0.1286245082
C   C4        1.0  0.00890  0.87150  0.92440  1.0000 -0.0157960709
C   C5        1.0  0.85810  0.78170  0.83340  1.0000 0.5793583598
C   C6        1.0  0.04460  0.80740  0.06970  1.0000 -0.1616993007
C   C7        1.0  0.18390  0.88610  0.15680  1.0000 0.1043540891
C   C8        1.0  0.28720  0.03040  0.09750  1.0000 -0.1517972816
C   C9        1.0  0.21980  0.81780  0.31440  1.0000 -0.1517972816
C   C10       1.0  0.08630  0.54710  0.43930  1.0000 0.4894604738
C   C11       1.0  0.07470  0.39290  0.45970  1.0000 -0.326623166
C   C12       1.0  0.15390  0.42270  0.35520  1.0000 -0.1616993007
C   C13       1.0  0.25210  0.59950  0.31700  1.0000 -0.0495183338
C   C14       1.0  0.41750  0.64330  0.40920  1.0000 0.6032930221
C   C15       1.0  0.25370  0.36470  0.11050  1.0000 0.5421655979
C   C16       1.0  0.09570  0.25070  0.04850  1.0000 -0.0060796496
C   C17       1.0  0.01650  0.11290  0.13410  1.0000 -0.1286245082
C   C18       1.0  0.87150  0.00890  0.07560  1.0000 -0.0157960709
C   C19       1.0  0.78170  0.85810  0.16660  1.0000 0.5793583598
C   C20       1.0  0.80740  0.04460  0.93030  1.0000 -0.1616993007
C   C21       1.0  0.88610  0.18390  0.84320  1.0000 0.1043540891
C   C22       1.0  0.03040  0.28720  0.90250  1.0000 -0.1517972816
C   C23       1.0  0.81780  0.21980  0.68560  1.0000 -0.1517972816
C   C24       1.0  0.54710  0.08630  0.56070  1.0000 0.4894604738
C   C25       1.0  0.39290  0.07470  0.54030  1.0000 -0.326623166
C   C26       1.0  0.42270  0.15390  0.64480  1.0000 -0.1616993007
C   C27       1.0  0.59950  0.25210  0.68300  1.0000 -0.0495183338
C   C28       1.0  0.64330  0.41750  0.59080  1.0000 0.6032930221
N   N1        1.0  0.17530  0.65410  0.35010  1.0000 -0.1114042905
N   N2        1.0  0.65410  0.17530  0.64990  1.0000 -0.1114042905
O   O1        1.0  0.49950  0.31650  0.96200  1.0000 -0.5470919106
O   O2        1.0  0.32160  0.32120  0.76330  1.0000 -0.559485713
O   O3        1.0  0.82820  0.83500  0.70240  1.0000 -0.5762235914
O   O4        1.0  0.76620  0.65240  0.89690  1.0000 -0.5722224508
O   O5        1.0  0.02840  0.57240  0.49740  1.0000 -0.5296082888
O   O6        1.0  0.44564  0.65356  0.53010  1.0000 -0.5470919106
O   O7        1.0  0.51580  0.66540  0.35680  1.0000 -0.6002036128
O   O8        1.0  0.75760  0.99580  0.41360  1.0000 -0.6768332217
O   O9        1.0  0.46120  0.66420  0.81450  1.0000 -0.6768332217
O   O10       1.0  0.31650  0.49950  0.03800  1.0000 -0.5470919106
O   O11       1.0  0.32120  0.32160  0.23670  1.0000 -0.559485713
O   O12       1.0  0.83500  0.82820  0.29760  1.0000 -0.5762235914
O   O13       1.0  0.65240  0.76620  0.10310  1.0000 -0.5722224508
O   O14       1.0  0.57240  0.02840  0.50260  1.0000 -0.5296082888
O   O15       1.0  0.65356  0.44564  0.46990  1.0000 -0.5470919106
O   O16       1.0  0.66540  0.51580  0.64320  1.0000 -0.6002036128
O   O17       1.0  0.99580  0.75760  0.58640  1.0000 -0.6768332217
O   O18       1.0  0.66420  0.46120  0.18550  1.0000 -0.6768332217
