# DDEC6 charges by PACMAN v1.1 (https://github.com/mtap-research/PACMAN-charge/)
data_2022[Zn][umc]3[FSR]1
_chemical_formula_sum              "Zn4 H24 C40 N8 O8"
_cell_length_a       11.0686
_cell_length_b       11.0686
_cell_length_c       13.4317
_cell_angle_alpha    82.0008
_cell_angle_beta     97.9992
_cell_angle_gamma    54.8201

_symmetry_space_group_name_H-M    "P 1"
_symmetry_Int_Tables_number       1

loop_
  _symmetry_equiv_pos_as_xyz
  'x, y, z'

loop_
  _atom_site_type_symbol
  _atom_site_label
  _atom_site_symmetry_multiplicity
  _atom_site_fract_x
  _atom_site_fract_y
  _atom_site_fract_z
  _atom_site_occupancy
  _atom_site_charge
Zn  Zn1       1.0  0.42315  0.47261  0.10055  1.0000 0.7573960359
Zn  Zn2       1.0  0.47261  0.42315  0.39945  1.0000 0.7573960359
Zn  Zn3       1.0  0.57685  0.52739  0.89945  1.0000 0.7573960359
Zn  Zn4       1.0  0.52739  0.57685  0.60055  1.0000 0.7573960359
H   H1        1.0  0.07142  0.68066  0.35791  1.0000 0.1186610532
H   H2        1.0  0.89103  0.67619  0.42079  1.0000 0.114679196
H   H3        1.0  0.89858  0.42452  0.23297  1.0000 0.1186610532
H   H4        1.0  0.07372  0.43436  0.16612  1.0000 0.1264431263
H   H5        1.0  0.73896  0.39690  0.31051  1.0000 0.1264431263
H   H6        1.0  0.71398  0.66298  0.48730  1.0000 0.1186610532
H   H7        1.0  0.68066  0.07142  0.14209  1.0000 0.1186610532
H   H8        1.0  0.67619  0.89103  0.07921  1.0000 0.114679196
H   H9        1.0  0.42452  0.89858  0.26703  1.0000 0.1186610532
H   H10       1.0  0.43436  0.07372  0.33388  1.0000 0.1264431263
H   H11       1.0  0.39690  0.73896  0.18949  1.0000 0.1264431263
H   H12       1.0  0.66298  0.71398  0.01270  1.0000 0.1186610532
H   H13       1.0  0.92858  0.31934  0.64209  1.0000 0.1186610532
H   H14       1.0  0.10897  0.32381  0.57921  1.0000 0.114679196
H   H15       1.0  0.10142  0.57548  0.76703  1.0000 0.1186610532
H   H16       1.0  0.92628  0.56564  0.83388  1.0000 0.1264431263
H   H17       1.0  0.26104  0.60310  0.68949  1.0000 0.1264431263
H   H18       1.0  0.28602  0.33702  0.51270  1.0000 0.1186610532
H   H19       1.0  0.31934  0.92858  0.85791  1.0000 0.1186610532
H   H20       1.0  0.32381  0.10897  0.92079  1.0000 0.114679196
H   H21       1.0  0.57548  0.10142  0.73297  1.0000 0.1186610532
H   H22       1.0  0.56564  0.92628  0.66612  1.0000 0.1264431263
H   H23       1.0  0.60310  0.26104  0.81051  1.0000 0.1264431263
H   H24       1.0  0.33702  0.28602  0.98730  1.0000 0.1186610532
C   C1        1.0  0.21674  0.55134  0.21900  1.0000 0.5779674585
C   C2        1.0  0.09396  0.55556  0.25620  1.0000 -0.0409299815
C   C3        1.0  0.03693  0.62873  0.33240  1.0000 -0.098406868
C   C4        1.0  0.92946  0.62486  0.37070  1.0000 -0.1507825916
C   C5        1.0  0.87761  0.54621  0.33610  1.0000 0.0909210118
C   C6        1.0  0.93322  0.47622  0.25870  1.0000 -0.1507825916
C   C7        1.0  0.03915  0.48135  0.21870  1.0000 -0.098406868
C   C8        1.0  0.76856  0.53536  0.38050  1.0000 -0.0409299815
C   C9        1.0  0.71287  0.45507  0.35840  1.0000 -0.0495405206
C   C10       1.0  0.69914  0.60134  0.45550  1.0000 -0.0495405206
C   C11       1.0  0.55134  0.21674  0.28100  1.0000 0.5779674585
C   C12       1.0  0.55556  0.09396  0.24380  1.0000 -0.0409299815
C   C13       1.0  0.62873  0.03693  0.16760  1.0000 -0.098406868
C   C14       1.0  0.62486  0.92946  0.12930  1.0000 -0.1507825916
C   C15       1.0  0.54621  0.87761  0.16390  1.0000 0.0909210118
C   C16       1.0  0.47622  0.93322  0.24130  1.0000 -0.1507825916
C   C17       1.0  0.48135  0.03915  0.28130  1.0000 -0.098406868
C   C18       1.0  0.53536  0.76856  0.11950  1.0000 -0.0409299815
C   C19       1.0  0.45507  0.71287  0.14160  1.0000 -0.0495405206
C   C20       1.0  0.60134  0.69914  0.04450  1.0000 -0.0495405206
C   C21       1.0  0.78326  0.44866  0.78100  1.0000 0.5779674585
C   C22       1.0  0.90604  0.44444  0.74380  1.0000 -0.0409299815
C   C23       1.0  0.96307  0.37127  0.66760  1.0000 -0.098406868
C   C24       1.0  0.07054  0.37514  0.62930  1.0000 -0.1507825916
C   C25       1.0  0.12239  0.45379  0.66390  1.0000 0.0909210118
C   C26       1.0  0.06678  0.52378  0.74130  1.0000 -0.1507825916
C   C27       1.0  0.96085  0.51865  0.78130  1.0000 -0.098406868
C   C28       1.0  0.23144  0.46464  0.61950  1.0000 -0.0409299815
C   C29       1.0  0.28713  0.54493  0.64160  1.0000 -0.0495405206
C   C30       1.0  0.30086  0.39866  0.54450  1.0000 -0.0495405206
C   C31       1.0  0.44866  0.78326  0.71900  1.0000 0.5779674585
C   C32       1.0  0.44444  0.90604  0.75620  1.0000 -0.0409299815
C   C33       1.0  0.37127  0.96307  0.83240  1.0000 -0.098406868
C   C34       1.0  0.37514  0.07054  0.87070  1.0000 -0.1507825916
C   C35       1.0  0.45379  0.12239  0.83610  1.0000 0.0909210118
C   C36       1.0  0.52378  0.06678  0.75870  1.0000 -0.1507825916
C   C37       1.0  0.51865  0.96085  0.71870  1.0000 -0.098406868
C   C38       1.0  0.46464  0.23144  0.88050  1.0000 -0.0409299815
C   C39       1.0  0.54493  0.28713  0.85840  1.0000 -0.0495405206
C   C40       1.0  0.39866  0.30086  0.95550  1.0000 -0.0495405206
N   N1        1.0  0.61698  0.47198  0.41504  1.0000 -0.2021653419
N   N2        1.0  0.60754  0.56454  0.47624  1.0000 -0.2021653419
N   N3        1.0  0.47198  0.61698  0.08496  1.0000 -0.2021653419
N   N4        1.0  0.56454  0.60754  0.02376  1.0000 -0.2021653419
N   N5        1.0  0.38302  0.52802  0.58496  1.0000 -0.2021653419
N   N6        1.0  0.39246  0.43546  0.52376  1.0000 -0.2021653419
N   N7        1.0  0.52802  0.38302  0.91504  1.0000 -0.2021653419
N   N8        1.0  0.43546  0.39246  0.97624  1.0000 -0.2021653419
O   O1        1.0  0.23942  0.51322  0.13514  1.0000 -0.5159043734
O   O2        1.0  0.29522  0.58122  0.27186  1.0000 -0.5502781337
O   O3        1.0  0.51322  0.23942  0.36486  1.0000 -0.5159043734
O   O4        1.0  0.58122  0.29522  0.22814  1.0000 -0.5502781337
O   O5        1.0  0.76058  0.48678  0.86486  1.0000 -0.5159043734
O   O6        1.0  0.70478  0.41878  0.72814  1.0000 -0.5502781337
O   O7        1.0  0.48678  0.76058  0.63514  1.0000 -0.5159043734
O   O8        1.0  0.41878  0.70478  0.77186  1.0000 -0.5502781337
