# DDEC6 charges by PACMAN v1.1 (https://github.com/mtap-research/PACMAN-charge/)
data_2022[Co][nan]3[FSR]13
_chemical_formula_sum              "Co6 H30 C30 O24"
_cell_length_a       15.2372
_cell_length_b       15.2372
_cell_length_c       15.2372
_cell_angle_alpha    117.915
_cell_angle_beta     117.915
_cell_angle_gamma    117.915

_symmetry_space_group_name_H-M    "P 1"
_symmetry_Int_Tables_number       1

loop_
  _symmetry_equiv_pos_as_xyz
  'x, y, z'

loop_
  _atom_site_type_symbol
  _atom_site_label
  _atom_site_symmetry_multiplicity
  _atom_site_fract_x
  _atom_site_fract_y
  _atom_site_fract_z
  _atom_site_occupancy
  _atom_site_charge
Co  Co1       1.0  0.88082  0.19491  0.45873  1.0000 0.9791882721
Co  Co2       1.0  0.19491  0.45873  0.88082  1.0000 0.9791882721
Co  Co3       1.0  0.45873  0.88082  0.19491  1.0000 0.9791882721
Co  Co4       1.0  0.11918  0.80509  0.54127  1.0000 0.9791882721
Co  Co5       1.0  0.80509  0.54127  0.11918  1.0000 0.9791882721
Co  Co6       1.0  0.54127  0.11918  0.80509  1.0000 0.9791882721
H   H1        1.0  0.70830  0.91470  0.13200  1.0000 0.3488538254
H   H2        1.0  0.66156  0.64592  0.20097  1.0000 0.1422363061
H   H3        1.0  0.71235  0.01231  0.06632  1.0000 0.1094308074
H   H4        1.0  0.94959  0.24929  0.31112  1.0000 0.1311290998
H   H5        1.0  0.89234  0.08860  0.17818  1.0000 0.1094308074
H   H6        1.0  0.91470  0.13200  0.70830  1.0000 0.3488538254
H   H7        1.0  0.64592  0.20097  0.66156  1.0000 0.1422363061
H   H8        1.0  0.01231  0.06632  0.71235  1.0000 0.1094308074
H   H9        1.0  0.24929  0.31112  0.94959  1.0000 0.1311290998
H   H10       1.0  0.08860  0.17818  0.89234  1.0000 0.1094308074
H   H11       1.0  0.13200  0.70830  0.91470  1.0000 0.3488538254
H   H12       1.0  0.20097  0.66156  0.64592  1.0000 0.1422363061
H   H13       1.0  0.06632  0.71235  0.01231  1.0000 0.1094308074
H   H14       1.0  0.31112  0.94959  0.24929  1.0000 0.1311290998
H   H15       1.0  0.17818  0.89234  0.08860  1.0000 0.1094308074
H   H16       1.0  0.29170  0.08530  0.86800  1.0000 0.3488538254
H   H17       1.0  0.33844  0.35408  0.79903  1.0000 0.1422363061
H   H18       1.0  0.28765  0.98769  0.93368  1.0000 0.1094308074
H   H19       1.0  0.05041  0.75071  0.68888  1.0000 0.1311290998
H   H20       1.0  0.10766  0.91140  0.82182  1.0000 0.1094308074
H   H21       1.0  0.08530  0.86800  0.29170  1.0000 0.3488538254
H   H22       1.0  0.35408  0.79903  0.33844  1.0000 0.1422363061
H   H23       1.0  0.98769  0.93368  0.28765  1.0000 0.1094308074
H   H24       1.0  0.75071  0.68888  0.05041  1.0000 0.1311290998
H   H25       1.0  0.91140  0.82182  0.10766  1.0000 0.1094308074
H   H26       1.0  0.86800  0.29170  0.08530  1.0000 0.3488538254
H   H27       1.0  0.79903  0.33844  0.35408  1.0000 0.1422363061
H   H28       1.0  0.93368  0.28765  0.98769  1.0000 0.1094308074
H   H29       1.0  0.68888  0.05041  0.75071  1.0000 0.1311290998
H   H30       1.0  0.82182  0.10766  0.91140  1.0000 0.1094308074
C   C1        1.0  0.64348  0.81921  0.25673  1.0000 0.6049368966
C   C2        1.0  0.83199  0.92037  0.38586  1.0000 -0.1547491264
C   C3        1.0  0.03861  0.13758  0.56854  1.0000 0.2831227768
C   C4        1.0  0.80029  0.79068  0.32348  1.0000 -0.2212606978
C   C5        1.0  0.84365  0.10347  0.19578  1.0000 -0.2030937236
C   C6        1.0  0.81921  0.25673  0.64348  1.0000 0.6049368966
C   C7        1.0  0.92037  0.38586  0.83199  1.0000 -0.1547491264
C   C8        1.0  0.13758  0.56854  0.03861  1.0000 0.2831227768
C   C9        1.0  0.79068  0.32348  0.80029  1.0000 -0.2212606978
C   C10       1.0  0.10347  0.19578  0.84365  1.0000 -0.2030937236
C   C11       1.0  0.25673  0.64348  0.81921  1.0000 0.6049368966
C   C12       1.0  0.38586  0.83199  0.92037  1.0000 -0.1547491264
C   C13       1.0  0.56854  0.03861  0.13758  1.0000 0.2831227768
C   C14       1.0  0.32348  0.80029  0.79068  1.0000 -0.2212606978
C   C15       1.0  0.19578  0.84365  0.10347  1.0000 -0.2030937236
C   C16       1.0  0.35652  0.18079  0.74327  1.0000 0.6049368966
C   C17       1.0  0.16801  0.07963  0.61414  1.0000 -0.1547491264
C   C18       1.0  0.96139  0.86242  0.43146  1.0000 0.2831227768
C   C19       1.0  0.19971  0.20932  0.67652  1.0000 -0.2212606978
C   C20       1.0  0.15635  0.89653  0.80422  1.0000 -0.2030937236
C   C21       1.0  0.18079  0.74327  0.35652  1.0000 0.6049368966
C   C22       1.0  0.07963  0.61414  0.16801  1.0000 -0.1547491264
C   C23       1.0  0.86242  0.43146  0.96139  1.0000 0.2831227768
C   C24       1.0  0.20932  0.67652  0.19971  1.0000 -0.2212606978
C   C25       1.0  0.89653  0.80422  0.15635  1.0000 -0.2030937236
C   C26       1.0  0.74327  0.35652  0.18079  1.0000 0.6049368966
C   C27       1.0  0.61414  0.16801  0.07963  1.0000 -0.1547491264
C   C28       1.0  0.43146  0.96139  0.86242  1.0000 0.2831227768
C   C29       1.0  0.67652  0.19971  0.20932  1.0000 -0.2212606978
C   C30       1.0  0.80422  0.15635  0.89653  1.0000 -0.2030937236
O   O1        1.0  0.66435  0.93054  0.30750  1.0000 -0.6041092884
O   O2        1.0  0.46948  0.62648  0.10296  1.0000 -0.5294316721
O   O3        1.0  0.09024  0.27937  0.64590  1.0000 -0.6172128927
O   O4        1.0  0.80959  0.04537  0.24210  1.0000 -0.3784713906
O   O5        1.0  0.93054  0.30750  0.66435  1.0000 -0.6041092884
O   O6        1.0  0.62648  0.10296  0.46948  1.0000 -0.5294316721
O   O7        1.0  0.27937  0.64590  0.09024  1.0000 -0.6172128927
O   O8        1.0  0.04537  0.24210  0.80959  1.0000 -0.3784713906
O   O9        1.0  0.30750  0.66435  0.93054  1.0000 -0.6041092884
O   O10       1.0  0.10296  0.46948  0.62648  1.0000 -0.5294316721
O   O11       1.0  0.64590  0.09024  0.27937  1.0000 -0.6172128927
O   O12       1.0  0.24210  0.80959  0.04537  1.0000 -0.3784713906
O   O13       1.0  0.33565  0.06946  0.69250  1.0000 -0.6041092884
O   O14       1.0  0.53052  0.37352  0.89704  1.0000 -0.5294316721
O   O15       1.0  0.90976  0.72063  0.35410  1.0000 -0.6172128927
O   O16       1.0  0.19041  0.95463  0.75790  1.0000 -0.3784713906
O   O17       1.0  0.06946  0.69250  0.33565  1.0000 -0.6041092884
O   O18       1.0  0.37352  0.89704  0.53052  1.0000 -0.5294316721
O   O19       1.0  0.72063  0.35410  0.90976  1.0000 -0.6172128927
O   O20       1.0  0.95463  0.75790  0.19041  1.0000 -0.3784713906
O   O21       1.0  0.69250  0.33565  0.06946  1.0000 -0.6041092884
O   O22       1.0  0.89704  0.53052  0.37352  1.0000 -0.5294316721
O   O23       1.0  0.35410  0.90976  0.72063  1.0000 -0.6172128927
O   O24       1.0  0.75790  0.19041  0.95463  1.0000 -0.3784713906
