# DDEC6 charges by PACMAN v1.1 (https://github.com/mtap-research/PACMAN-charge/)
data_2022[Zn][nan]3[FSR]14
_chemical_formula_sum              "Zn12 P16 H32 C16 O56"
_cell_length_a       11.1882
_cell_length_b       11.1882
_cell_length_c       23.0416
_cell_angle_alpha    88.526
_cell_angle_beta     91.474
_cell_angle_gamma    132.243

_symmetry_space_group_name_H-M    "P 1"
_symmetry_Int_Tables_number       1

loop_
  _symmetry_equiv_pos_as_xyz
  'x, y, z'

loop_
  _atom_site_type_symbol
  _atom_site_label
  _atom_site_symmetry_multiplicity
  _atom_site_fract_x
  _atom_site_fract_y
  _atom_site_fract_z
  _atom_site_occupancy
  _atom_site_charge
Zn  Zn1       1.0  0.12541  0.92159  0.53515  1.0000 1.0837343081
Zn  Zn2       1.0  0.48593  0.93109  0.66804  1.0000 1.1122982844
Zn  Zn3       1.0  0.07800  0.39188  0.62580  1.0000 1.074079667
Zn  Zn4       1.0  0.92159  0.12541  0.96485  1.0000 1.0837343081
Zn  Zn5       1.0  0.93109  0.48593  0.83196  1.0000 1.1122982844
Zn  Zn6       1.0  0.39188  0.07800  0.87420  1.0000 1.074079667
Zn  Zn7       1.0  0.87459  0.07841  0.46485  1.0000 1.0837343081
Zn  Zn8       1.0  0.51407  0.06891  0.33196  1.0000 1.1122982844
Zn  Zn9       1.0  0.92200  0.60812  0.37420  1.0000 1.074079667
Zn  Zn10      1.0  0.07841  0.87459  0.03515  1.0000 1.0837343081
Zn  Zn11      1.0  0.06891  0.51407  0.16804  1.0000 1.1122982844
Zn  Zn12      1.0  0.60812  0.92200  0.12580  1.0000 1.074079667
P   P1        1.0  0.10745  0.16355  0.57343  1.0000 1.2398891791
P   P2        1.0  0.77133  0.03697  0.59167  1.0000 1.2645464286
P   P3        1.0  0.16109  0.71749  0.60778  1.0000 1.2664429888
P   P4        1.0  0.17807  0.60869  0.72827  1.0000 1.2488652512
P   P5        1.0  0.16355  0.10745  0.92657  1.0000 1.2398891791
P   P6        1.0  0.03697  0.77133  0.90833  1.0000 1.2645464286
P   P7        1.0  0.71749  0.16109  0.89222  1.0000 1.2664429888
P   P8        1.0  0.60869  0.17807  0.77173  1.0000 1.2488652512
P   P9        1.0  0.89255  0.83645  0.42657  1.0000 1.2398891791
P   P10       1.0  0.22867  0.96303  0.40833  1.0000 1.2645464286
P   P11       1.0  0.83891  0.28251  0.39222  1.0000 1.2664429888
P   P12       1.0  0.82193  0.39131  0.27173  1.0000 1.2488652512
P   P13       1.0  0.83645  0.89255  0.07343  1.0000 1.2398891791
P   P14       1.0  0.96303  0.22867  0.09167  1.0000 1.2645464286
P   P15       1.0  0.28251  0.83891  0.10778  1.0000 1.2664429888
P   P16       1.0  0.39131  0.82193  0.22827  1.0000 1.2488652512
H   H1        1.0  0.86104  0.46854  0.70063  1.0000 0.3789193377
H   H2        1.0  0.82442  0.83836  0.55994  1.0000 0.3789193377
H   H3        1.0  0.98944  0.12464  0.68944  1.0000 0.1678571447
H   H4        1.0  0.01409  0.00293  0.68458  1.0000 0.1817118206
H   H5        1.0  0.84120  0.93846  0.69490  1.0000 0.1817118206
H   H6        1.0  0.19446  0.87764  0.71555  1.0000 0.1817118206
H   H7        1.0  0.02717  0.74131  0.74480  1.0000 0.1678571447
H   H8        1.0  0.03440  0.80658  0.68274  1.0000 0.1817118206
H   H9        1.0  0.46854  0.86104  0.79937  1.0000 0.3789193377
H   H10       1.0  0.83836  0.82442  0.94006  1.0000 0.3789193377
H   H11       1.0  0.12464  0.98944  0.81056  1.0000 0.1678571447
H   H12       1.0  0.00293  0.01409  0.81542  1.0000 0.1817118206
H   H13       1.0  0.93846  0.84120  0.80510  1.0000 0.1817118206
H   H14       1.0  0.87764  0.19446  0.78445  1.0000 0.1817118206
H   H15       1.0  0.74131  0.02717  0.75520  1.0000 0.1678571447
H   H16       1.0  0.80658  0.03440  0.81726  1.0000 0.1817118206
H   H17       1.0  0.13896  0.53146  0.29937  1.0000 0.3789193377
H   H18       1.0  0.17558  0.16164  0.44006  1.0000 0.3789193377
H   H19       1.0  0.01056  0.87536  0.31056  1.0000 0.1678571447
H   H20       1.0  0.98591  0.99707  0.31542  1.0000 0.1817118206
H   H21       1.0  0.15880  0.06154  0.30510  1.0000 0.1817118206
H   H22       1.0  0.80554  0.12236  0.28445  1.0000 0.1817118206
H   H23       1.0  0.97283  0.25869  0.25520  1.0000 0.1678571447
H   H24       1.0  0.96560  0.19342  0.31726  1.0000 0.1817118206
H   H25       1.0  0.53146  0.13896  0.20063  1.0000 0.3789193377
H   H26       1.0  0.16164  0.17558  0.05994  1.0000 0.3789193377
H   H27       1.0  0.87536  0.01056  0.18944  1.0000 0.1678571447
H   H28       1.0  0.99707  0.98591  0.18458  1.0000 0.1817118206
H   H29       1.0  0.06154  0.15880  0.19490  1.0000 0.1817118206
H   H30       1.0  0.12236  0.80554  0.21555  1.0000 0.1817118206
H   H31       1.0  0.25869  0.97283  0.24480  1.0000 0.1678571447
H   H32       1.0  0.19342  0.96560  0.18274  1.0000 0.1817118206
C   C1        1.0  0.07650  0.65270  0.68130  1.0000 -0.1599967883
C   C2        1.0  0.91410  0.01190  0.61050  1.0000 -0.1528018818
C   C3        1.0  0.94230  0.02030  0.67590  1.0000 -0.4300958172
C   C4        1.0  0.08390  0.78170  0.70870  1.0000 -0.4486644969
C   C5        1.0  0.65270  0.07650  0.81870  1.0000 -0.1599967883
C   C6        1.0  0.01190  0.91410  0.88950  1.0000 -0.1528018818
C   C7        1.0  0.02030  0.94230  0.82410  1.0000 -0.4300958172
C   C8        1.0  0.78170  0.08390  0.79130  1.0000 -0.4486644969
C   C9        1.0  0.92350  0.34730  0.31870  1.0000 -0.1599967883
C   C10       1.0  0.08590  0.98810  0.38950  1.0000 -0.1528018818
C   C11       1.0  0.05770  0.97970  0.32410  1.0000 -0.4300958172
C   C12       1.0  0.91610  0.21830  0.29130  1.0000 -0.4486644969
C   C13       1.0  0.34730  0.92350  0.18130  1.0000 -0.1599967883
C   C14       1.0  0.98810  0.08590  0.11050  1.0000 -0.1528018818
C   C15       1.0  0.97970  0.05770  0.17590  1.0000 -0.4300958172
C   C16       1.0  0.21830  0.91610  0.20870  1.0000 -0.4486644969
O   O1        1.0  0.19890  0.10690  0.57967  1.0000 -0.649775297
O   O2        1.0  0.07430  0.17330  0.51027  1.0000 -0.709350055
O   O3        1.0  0.19410  0.32190  0.60460  1.0000 -0.649775297
O   O4        1.0  0.85670  0.21190  0.60220  1.0000 -0.7023926631
O   O5        1.0  0.72250  0.99330  0.52780  1.0000 -0.6900642669
O   O6        1.0  0.62670  0.91930  0.62980  1.0000 -0.6758786694
O   O7        1.0  0.32810  0.88410  0.61085  1.0000 -0.709350055
O   O8        1.0  0.04960  0.72400  0.57156  1.0000 -0.649775297
O   O9        1.0  0.15930  0.58950  0.58450  1.0000 -0.6718252406
O   O10       1.0  0.12280  0.58580  0.79045  1.0000 -0.6900642669
O   O11       1.0  0.35900  0.75560  0.72586  1.0000 -0.709350055
O   O12       1.0  0.13220  0.45720  0.70535  1.0000 -0.6900642669
O   O13       1.0  0.91070  0.50470  0.67004  1.0000 -0.3605159701
O   O14       1.0  0.84340  0.85080  0.59500  1.0000 -0.3605159701
O   O15       1.0  0.10690  0.19890  0.92033  1.0000 -0.649775297
O   O16       1.0  0.17330  0.07430  0.98973  1.0000 -0.709350055
O   O17       1.0  0.32190  0.19410  0.89540  1.0000 -0.649775297
O   O18       1.0  0.21190  0.85670  0.89780  1.0000 -0.7023926631
O   O19       1.0  0.99330  0.72250  0.97220  1.0000 -0.6900642669
O   O20       1.0  0.91930  0.62670  0.87020  1.0000 -0.6758786694
O   O21       1.0  0.88410  0.32810  0.88915  1.0000 -0.709350055
O   O22       1.0  0.72400  0.04960  0.92844  1.0000 -0.649775297
O   O23       1.0  0.58950  0.15930  0.91550  1.0000 -0.6718252406
O   O24       1.0  0.58580  0.12280  0.70955  1.0000 -0.6900642669
O   O25       1.0  0.75560  0.35900  0.77414  1.0000 -0.709350055
O   O26       1.0  0.45720  0.13220  0.79465  1.0000 -0.6900642669
O   O27       1.0  0.50470  0.91070  0.82996  1.0000 -0.3605159701
O   O28       1.0  0.85080  0.84340  0.90500  1.0000 -0.3605159701
O   O29       1.0  0.80110  0.89310  0.42033  1.0000 -0.649775297
O   O30       1.0  0.92570  0.82670  0.48973  1.0000 -0.709350055
O   O31       1.0  0.80590  0.67810  0.39540  1.0000 -0.649775297
O   O32       1.0  0.14330  0.78810  0.39780  1.0000 -0.7023926631
O   O33       1.0  0.27750  0.00670  0.47220  1.0000 -0.6900642669
O   O34       1.0  0.37330  0.08070  0.37020  1.0000 -0.6758786694
O   O35       1.0  0.67190  0.11590  0.38915  1.0000 -0.709350055
O   O36       1.0  0.95040  0.27600  0.42844  1.0000 -0.649775297
O   O37       1.0  0.84070  0.41050  0.41550  1.0000 -0.6718252406
O   O38       1.0  0.87720  0.41420  0.20955  1.0000 -0.6900642669
O   O39       1.0  0.64100  0.24440  0.27414  1.0000 -0.709350055
O   O40       1.0  0.86780  0.54280  0.29465  1.0000 -0.6900642669
O   O41       1.0  0.08930  0.49530  0.32996  1.0000 -0.3605159701
O   O42       1.0  0.15660  0.14920  0.40500  1.0000 -0.3605159701
O   O43       1.0  0.89310  0.80110  0.07967  1.0000 -0.649775297
O   O44       1.0  0.82670  0.92570  0.01027  1.0000 -0.709350055
O   O45       1.0  0.67810  0.80590  0.10460  1.0000 -0.649775297
O   O46       1.0  0.78810  0.14330  0.10220  1.0000 -0.7023926631
O   O47       1.0  0.00670  0.27750  0.02780  1.0000 -0.6900642669
O   O48       1.0  0.08070  0.37330  0.12980  1.0000 -0.6758786694
O   O49       1.0  0.11590  0.67190  0.11085  1.0000 -0.709350055
O   O50       1.0  0.27600  0.95040  0.07156  1.0000 -0.649775297
O   O51       1.0  0.41050  0.84070  0.08450  1.0000 -0.6718252406
O   O52       1.0  0.41420  0.87720  0.29045  1.0000 -0.6900642669
O   O53       1.0  0.24440  0.64100  0.22586  1.0000 -0.709350055
O   O54       1.0  0.54280  0.86780  0.20535  1.0000 -0.6900642669
O   O55       1.0  0.49530  0.08930  0.17004  1.0000 -0.3605159701
O   O56       1.0  0.14920  0.15660  0.09500  1.0000 -0.3605159701
