# DDEC6 charges by PACMAN v1.1 (https://github.com/mtap-research/PACMAN-charge/)
data_2022[Mn][kgd]2[FSR]1
_chemical_formula_sum              "Mn3 H54 C56 N8 O16"
_cell_length_a       13.342
_cell_length_b       13.501
_cell_length_c       14.1571
_cell_angle_alpha    94.5786
_cell_angle_beta     116.713
_cell_angle_gamma    118.409

_symmetry_space_group_name_H-M    "P 1"
_symmetry_Int_Tables_number       1

loop_
  _symmetry_equiv_pos_as_xyz
  'x, y, z'

loop_
  _atom_site_type_symbol
  _atom_site_label
  _atom_site_symmetry_multiplicity
  _atom_site_fract_x
  _atom_site_fract_y
  _atom_site_fract_z
  _atom_site_occupancy
  _atom_site_charge
Mn  Mn1       1.0  0.27958  0.10046  0.45273  1.0000 1.0189197189
Mn  Mn2       1.0  0.72042  0.89954  0.54727  1.0000 1.0189197189
Mn  Mn3       1.0  0.50000  0.00000  0.50000  1.0000 1.0758243925
H   H1        1.0  0.93800  0.06650  0.49040  1.0000 0.3025131947
H   H2        1.0  0.07340  0.19980  0.31620  1.0000 0.3072638935
H   H3        1.0  0.74850  0.51530  0.25530  1.0000 0.1211467241
H   H4        1.0  0.92690  0.71810  0.33830  1.0000 0.1211467241
H   H5        1.0  0.16000  0.63160  0.30460  1.0000 0.1211467241
H   H6        1.0  0.98190  0.42860  0.22120  1.0000 0.1306513867
H   H7        1.0  0.80120  0.33610  0.37370  1.0000 0.1211467241
H   H8        1.0  0.66510  0.25020  0.44170  1.0000 0.1211467241
H   H9        1.0  0.33150  0.13030  0.13360  1.0000 0.1211467241
H   H10       1.0  0.46530  0.20320  0.06120  1.0000 0.1211467241
H   H11       1.0  0.63690  0.10940  0.04430  1.0000 0.1211467241
H   H12       1.0  0.53560  0.02620  0.85130  1.0000 0.1211467241
H   H13       1.0  0.58300  0.33430  0.82040  1.0000 0.1211467241
H   H14       1.0  0.69550  0.42240  0.01480  1.0000 0.1306513867
H   H15       1.0  0.63670  0.37970  0.67900  1.0000 0.1578784636
H   H16       1.0  0.68160  0.49010  0.64020  1.0000 0.1380463145
H   H17       1.0  0.60260  0.35850  0.55480  1.0000 0.1578784636
H   H18       1.0  0.68450  0.58660  0.74410  1.0000 0.1211467241
H   H19       1.0  0.59760  0.59530  0.78640  1.0000 0.1306513867
H   H20       1.0  0.61690  0.65560  0.70030  1.0000 0.1380463145
H   H21       1.0  0.29970  0.45160  0.51450  1.0000 0.1306513867
H   H22       1.0  0.35590  0.51500  0.64150  1.0000 0.1211467241
H   H23       1.0  0.28610  0.37500  0.59120  1.0000 0.1306513867
H   H24       1.0  0.85890  0.19030  0.43440  1.0000 0.11092372
H   H25       1.0  0.77100  0.07580  0.32190  1.0000 0.1211467241
H   H26       1.0  0.87910  0.20460  0.25740  1.0000 0.11092372
H   H27       1.0  0.99330  0.30670  0.38090  1.0000 0.11092372
H   H28       1.0  0.06200  0.93350  0.50960  1.0000 0.3025131947
H   H29       1.0  0.92660  0.80020  0.68380  1.0000 0.3072638935
H   H30       1.0  0.25150  0.48470  0.74470  1.0000 0.1211467241
H   H31       1.0  0.07310  0.28190  0.66170  1.0000 0.1211467241
H   H32       1.0  0.84000  0.36840  0.69540  1.0000 0.1211467241
H   H33       1.0  0.01810  0.57140  0.77880  1.0000 0.1306513867
H   H34       1.0  0.19880  0.66390  0.62630  1.0000 0.1211467241
H   H35       1.0  0.33490  0.74980  0.55830  1.0000 0.1211467241
H   H36       1.0  0.66850  0.86970  0.86640  1.0000 0.1211467241
H   H37       1.0  0.53470  0.79680  0.93880  1.0000 0.1211467241
H   H38       1.0  0.36310  0.89060  0.95570  1.0000 0.1211467241
H   H39       1.0  0.46440  0.97380  0.14870  1.0000 0.1211467241
H   H40       1.0  0.41700  0.66570  0.17960  1.0000 0.1211467241
H   H41       1.0  0.30450  0.57760  0.98520  1.0000 0.1306513867
H   H42       1.0  0.36330  0.62030  0.32100  1.0000 0.1578784636
H   H43       1.0  0.31840  0.50990  0.35980  1.0000 0.1380463145
H   H44       1.0  0.39740  0.64150  0.44520  1.0000 0.1578784636
H   H45       1.0  0.31550  0.41340  0.25590  1.0000 0.1211467241
H   H46       1.0  0.40240  0.40470  0.21360  1.0000 0.1306513867
H   H47       1.0  0.38310  0.34440  0.29970  1.0000 0.1380463145
H   H48       1.0  0.70030  0.54840  0.48550  1.0000 0.1306513867
H   H49       1.0  0.64410  0.48500  0.35850  1.0000 0.1211467241
H   H50       1.0  0.71390  0.62500  0.40880  1.0000 0.1306513867
H   H51       1.0  0.14110  0.80970  0.56560  1.0000 0.11092372
H   H52       1.0  0.22900  0.92420  0.67810  1.0000 0.1211467241
H   H53       1.0  0.12090  0.79540  0.74260  1.0000 0.11092372
H   H54       1.0  0.00670  0.69330  0.61910  1.0000 0.11092372
C   C1        1.0  0.84602  0.45154  0.22783  1.0000 0.1726958281
C   C2        1.0  0.83102  0.53850  0.26430  1.0000 -0.1917052143
C   C3        1.0  0.93840  0.66030  0.31430  1.0000 -0.0910034079
C   C4        1.0  0.06237  0.69738  0.32908  1.0000 -0.0404858287
C   C5        1.0  0.07690  0.60860  0.29410  1.0000 -0.0910034079
C   C6        1.0  0.97020  0.48680  0.24400  1.0000 -0.1917052143
C   C7        1.0  0.17834  0.82915  0.37945  1.0000 0.5809198445
C   C8        1.0  0.64786  0.27746  0.21006  1.0000 0.1816928438
C   C9        1.0  0.70642  0.29234  0.32454  1.0000 -0.2055517756
C   C10       1.0  0.62497  0.24245  0.36575  1.0000 -0.0795051889
C   C11       1.0  0.48359  0.18102  0.29462  1.0000 -0.0404858287
C   C12       1.0  0.42581  0.16931  0.18141  1.0000 -0.0910034079
C   C13       1.0  0.50600  0.21463  0.13803  1.0000 -0.2022375935
C   C14       1.0  0.39682  0.13378  0.34098  1.0000 0.5639089471
C   C15       1.0  0.67424  0.27458  0.04978  1.0000 0.1816928438
C   C16       1.0  0.62691  0.15531  0.99971  1.0000 -0.1917052143
C   C17       1.0  0.56513  0.10523  0.88383  1.0000 -0.0910034079
C   C18       1.0  0.54649  0.17079  0.81519  1.0000 -0.027989062
C   C19       1.0  0.59475  0.28915  0.86545  1.0000 -0.0910034079
C   C20       1.0  0.66039  0.34159  0.98189  1.0000 -0.1834203475
C   C21       1.0  0.47236  0.11510  0.68730  1.0000 0.5809198445
C   C22       1.0  0.47310  0.38900  0.57550  1.0000 0.484896434
C   C23       1.0  0.61170  0.40590  0.61620  1.0000 -0.588470804
C   C24       1.0  0.60590  0.58780  0.72270  1.0000 -0.3501942231
C   C25       1.0  0.34300  0.45230  0.59030  1.0000 -0.3554034108
C   C26       1.0  0.03520  0.12040  0.41640  1.0000 0.5963844782
C   C27       1.0  0.86330  0.14310  0.38300  1.0000 -0.0795051889
C   C28       1.0  0.94070  0.22100  0.33660  1.0000 -0.0910034079
C   C29       1.0  0.15398  0.54846  0.77217  1.0000 0.1726958281
C   C30       1.0  0.16898  0.46150  0.73570  1.0000 -0.1917052143
C   C31       1.0  0.06160  0.33970  0.68570  1.0000 -0.0910034079
C   C32       1.0  0.93763  0.30262  0.67092  1.0000 -0.0404858287
C   C33       1.0  0.92310  0.39140  0.70590  1.0000 -0.0910034079
C   C34       1.0  0.02980  0.51320  0.75600  1.0000 -0.1917052143
C   C35       1.0  0.82166  0.17085  0.62055  1.0000 0.5809198445
C   C36       1.0  0.35214  0.72254  0.78994  1.0000 0.1816928438
C   C37       1.0  0.29358  0.70766  0.67546  1.0000 -0.2055517756
C   C38       1.0  0.37503  0.75755  0.63425  1.0000 -0.0795051889
C   C39       1.0  0.51641  0.81898  0.70538  1.0000 -0.0404858287
C   C40       1.0  0.57419  0.83069  0.81859  1.0000 -0.0910034079
C   C41       1.0  0.49400  0.78537  0.86197  1.0000 -0.2022375935
C   C42       1.0  0.60318  0.86622  0.65902  1.0000 0.5639089471
C   C43       1.0  0.32576  0.72542  0.95022  1.0000 0.1816928438
C   C44       1.0  0.37309  0.84469  0.00029  1.0000 -0.1917052143
C   C45       1.0  0.43487  0.89477  0.11617  1.0000 -0.0910034079
C   C46       1.0  0.45351  0.82921  0.18481  1.0000 -0.027989062
C   C47       1.0  0.40525  0.71085  0.13455  1.0000 -0.0910034079
C   C48       1.0  0.33961  0.65841  0.01811  1.0000 -0.1834203475
C   C49       1.0  0.52764  0.88490  0.31270  1.0000 0.5809198445
C   C50       1.0  0.52690  0.61100  0.42450  1.0000 0.484896434
C   C51       1.0  0.38830  0.59410  0.38380  1.0000 -0.588470804
C   C52       1.0  0.39410  0.41220  0.27730  1.0000 -0.3501942231
C   C53       1.0  0.65700  0.54770  0.40970  1.0000 -0.3554034108
C   C54       1.0  0.96480  0.87960  0.58360  1.0000 0.5963844782
C   C55       1.0  0.13670  0.85690  0.61700  1.0000 -0.0795051889
C   C56       1.0  0.05930  0.77900  0.66340  1.0000 -0.0910034079
N   N1        1.0  0.73384  0.32536  0.16941  1.0000 -0.2055517756
N   N2        1.0  0.47880  0.47390  0.62590  1.0000 -0.007576312
N   N3        1.0  0.94604  0.10060  0.44300  1.0000 -0.3501942231
N   N4        1.0  0.02956  0.18340  0.34880  1.0000 -0.3501942231
N   N5        1.0  0.26616  0.67464  0.83059  1.0000 -0.2055517756
N   N6        1.0  0.52120  0.52610  0.37410  1.0000 -0.007576312
N   N7        1.0  0.05396  0.89940  0.55700  1.0000 -0.3501942231
N   N8        1.0  0.97044  0.81660  0.65120  1.0000 -0.3501942231
O   O1        1.0  0.29072  0.85208  0.40132  1.0000 -0.5527116531
O   O2        1.0  0.15489  0.90676  0.39507  1.0000 -0.5697335773
O   O3        1.0  0.44916  0.12553  0.43841  1.0000 -0.588470804
O   O4        1.0  0.27822  0.10815  0.28847  1.0000 -0.520056712
O   O5        1.0  0.39249  0.14354  0.63030  1.0000 -0.5605926388
O   O6        1.0  0.49340  0.04684  0.64802  1.0000 -0.5527116531
O   O7        1.0  0.36260  0.29448  0.49246  1.0000 -0.5697335773
O   O8        1.0  0.10915  0.08245  0.44862  1.0000 -0.5605926388
O   O9        1.0  0.70928  0.14792  0.59868  1.0000 -0.5527116531
O   O10       1.0  0.84511  0.09324  0.60493  1.0000 -0.5697335773
O   O11       1.0  0.55084  0.87447  0.56159  1.0000 -0.588470804
O   O12       1.0  0.72178  0.89185  0.71153  1.0000 -0.520056712
O   O13       1.0  0.60751  0.85646  0.36970  1.0000 -0.5605926388
O   O14       1.0  0.50660  0.95316  0.35198  1.0000 -0.5527116531
O   O15       1.0  0.63740  0.70552  0.50754  1.0000 -0.5697335773
O   O16       1.0  0.89085  0.91755  0.55138  1.0000 -0.5605926388
