# DDEC6 charges by PACMAN v1.1 (https://github.com/mtap-research/PACMAN-charge/)
data_2022[Zn][sql]2[FSR]1
_chemical_formula_sum              "Zn8 H144 C228 N16 O32"
_cell_length_a       13.1033
_cell_length_b       22.1936
_cell_length_c       25.9942
_cell_angle_alpha    90
_cell_angle_beta     97.122
_cell_angle_gamma    90

_symmetry_space_group_name_H-M    "P 1"
_symmetry_Int_Tables_number       1

loop_
  _symmetry_equiv_pos_as_xyz
  'x, y, z'

loop_
  _atom_site_type_symbol
  _atom_site_label
  _atom_site_symmetry_multiplicity
  _atom_site_fract_x
  _atom_site_fract_y
  _atom_site_fract_z
  _atom_site_occupancy
  _atom_site_charge
Zn  Zn1       1.0  0.13825  0.29027  0.02343  1.0000 0.8359412943
Zn  Zn2       1.0  0.11957  0.15759  0.02324  1.0000 0.8333445732
Zn  Zn3       1.0  0.13825  0.20973  0.52343  1.0000 0.8359412943
Zn  Zn4       1.0  0.11957  0.34241  0.52324  1.0000 0.8333445732
Zn  Zn5       1.0  0.86175  0.79027  0.47657  1.0000 0.8359412943
Zn  Zn6       1.0  0.88043  0.65759  0.47676  1.0000 0.8333445732
Zn  Zn7       1.0  0.86175  0.70973  0.97657  1.0000 0.8359412943
Zn  Zn8       1.0  0.88043  0.84241  0.97676  1.0000 0.8333445732
H   H1        1.0  0.82061  0.32864  0.02197  1.0000 0.1203834038
H   H2        1.0  0.64910  0.34244  0.02039  1.0000 0.1124944461
H   H3        1.0  0.78207  0.14967  0.01769  1.0000 0.1124944461
H   H4        1.0  0.47264  0.30016  0.02047  1.0000 0.127720696
H   H5        1.0  0.43376  0.12122  0.01826  1.0000 0.127720696
H   H6        1.0  0.60566  0.10656  0.01518  1.0000 0.1203834038
H   H7        1.0  0.10210  0.30652  0.85637  1.0000 0.1203834038
H   H8        1.0  0.19783  0.13124  0.77719  1.0000 0.1124944461
H   H9        1.0  0.17641  0.13093  0.86299  1.0000 0.1203834038
H   H10       1.0  0.09828  0.36217  0.77295  1.0000 0.1124944461
H   H11       1.0  0.11532  0.36213  0.68736  1.0000 0.1124944461
H   H12       1.0  0.18489  0.18582  0.69234  1.0000 0.1203834038
H   H13       1.0  0.12383  0.04675  0.95673  1.0000 0.1124944461
H   H14       1.0  0.12435  0.94353  0.96562  1.0000 0.127720696
H   H15       1.0  0.12869  0.90154  0.04746  1.0000 0.127720696
H   H16       1.0  0.13144  0.06779  0.10653  1.0000 0.1124944461
H   H17       1.0  0.23103  0.02102  0.17548  1.0000 0.1203834038
H   H18       1.0  0.24563  0.98214  0.25761  1.0000 0.127720696
H   H19       1.0  0.05969  0.84551  0.20694  1.0000 0.1203834038
H   H20       1.0  0.04795  0.88332  0.12378  1.0000 0.1203834038
H   H21       1.0  0.06384  0.98584  0.30217  1.0000 0.1203834038
H   H22       1.0  0.05663  0.04433  0.37528  1.0000 0.1124944461
H   H23       1.0  0.25768  0.93352  0.45605  1.0000 0.1124944461
H   H24       1.0  0.26875  0.87734  0.38265  1.0000 0.127720696
H   H25       1.0  0.13812  0.11052  0.44544  1.0000 0.1203834038
H   H26       1.0  0.12331  0.10799  0.59454  1.0000 0.1203834038
H   H27       1.0  0.12661  0.00409  0.59578  1.0000 0.1203834038
H   H28       1.0  0.13991  0.95221  0.51923  1.0000 0.1203834038
H   H29       1.0  0.25513  0.80188  0.24444  1.0000 0.127720696
H   H30       1.0  0.24380  0.69844  0.25115  1.0000 0.1203834038
H   H31       1.0  0.07017  0.71708  0.36584  1.0000 0.1124944461
H   H32       1.0  0.07530  0.81994  0.35747  1.0000 0.127720696
H   H33       1.0  0.12877  0.62477  0.38611  1.0000 0.0993893939
H   H34       1.0  0.10314  0.46720  0.32180  1.0000 0.0993893939
H   H35       1.0  0.12746  0.50649  0.24396  1.0000 0.1203834038
H   H36       1.0  0.14705  0.61026  0.23505  1.0000 0.1203834038
H   H37       1.0  0.82061  0.17136  0.52197  1.0000 0.1203834038
H   H38       1.0  0.64910  0.15756  0.52039  1.0000 0.1124944461
H   H39       1.0  0.78207  0.35033  0.51769  1.0000 0.1124944461
H   H40       1.0  0.47264  0.19984  0.52047  1.0000 0.127720696
H   H41       1.0  0.43376  0.37878  0.51826  1.0000 0.127720696
H   H42       1.0  0.60566  0.39344  0.51518  1.0000 0.1203834038
H   H43       1.0  0.10210  0.19348  0.35637  1.0000 0.1203834038
H   H44       1.0  0.19783  0.36876  0.27719  1.0000 0.1124944461
H   H45       1.0  0.17641  0.36907  0.36299  1.0000 0.1203834038
H   H46       1.0  0.09828  0.13783  0.27295  1.0000 0.1124944461
H   H47       1.0  0.11532  0.13787  0.18736  1.0000 0.1124944461
H   H48       1.0  0.18489  0.31418  0.19234  1.0000 0.1203834038
H   H49       1.0  0.12383  0.45325  0.45673  1.0000 0.1124944461
H   H50       1.0  0.12435  0.55647  0.46562  1.0000 0.127720696
H   H51       1.0  0.12869  0.59846  0.54746  1.0000 0.127720696
H   H52       1.0  0.13144  0.43221  0.60653  1.0000 0.1124944461
H   H53       1.0  0.23103  0.47898  0.67548  1.0000 0.1203834038
H   H54       1.0  0.24563  0.51786  0.75761  1.0000 0.127720696
H   H55       1.0  0.05969  0.65449  0.70694  1.0000 0.1203834038
H   H56       1.0  0.04795  0.61668  0.62378  1.0000 0.1203834038
H   H57       1.0  0.06384  0.51416  0.80217  1.0000 0.1203834038
H   H58       1.0  0.05663  0.45567  0.87528  1.0000 0.1124944461
H   H59       1.0  0.25768  0.56648  0.95605  1.0000 0.1124944461
H   H60       1.0  0.26875  0.62266  0.88265  1.0000 0.127720696
H   H61       1.0  0.13812  0.38948  0.94544  1.0000 0.1203834038
H   H62       1.0  0.12331  0.39201  0.09454  1.0000 0.1203834038
H   H63       1.0  0.12661  0.49591  0.09578  1.0000 0.1203834038
H   H64       1.0  0.13991  0.54779  0.01923  1.0000 0.1203834038
H   H65       1.0  0.25513  0.69812  0.74444  1.0000 0.127720696
H   H66       1.0  0.24380  0.80156  0.75115  1.0000 0.1124944461
H   H67       1.0  0.07017  0.78292  0.86584  1.0000 0.1124944461
H   H68       1.0  0.07530  0.68006  0.85747  1.0000 0.127720696
H   H69       1.0  0.12877  0.87523  0.88611  1.0000 0.0993893939
H   H70       1.0  0.10314  0.03280  0.82180  1.0000 0.0993893939
H   H71       1.0  0.12746  0.99351  0.74396  1.0000 0.1203834038
H   H72       1.0  0.14705  0.88974  0.73505  1.0000 0.1203834038
H   H73       1.0  0.17939  0.82864  0.47803  1.0000 0.1203834038
H   H74       1.0  0.35090  0.84244  0.47961  1.0000 0.1124944461
H   H75       1.0  0.21793  0.64967  0.48231  1.0000 0.1124944461
H   H76       1.0  0.52736  0.80016  0.47953  1.0000 0.127720696
H   H77       1.0  0.56624  0.62122  0.48174  1.0000 0.127720696
H   H78       1.0  0.39434  0.60656  0.48482  1.0000 0.1203834038
H   H79       1.0  0.89790  0.80652  0.64363  1.0000 0.1203834038
H   H80       1.0  0.80217  0.63124  0.72281  1.0000 0.1124944461
H   H81       1.0  0.82359  0.63093  0.63701  1.0000 0.1203834038
H   H82       1.0  0.90172  0.86217  0.72705  1.0000 0.1124944461
H   H83       1.0  0.88468  0.86213  0.81264  1.0000 0.1124944461
H   H84       1.0  0.81511  0.68582  0.80766  1.0000 0.1203834038
H   H85       1.0  0.87617  0.54675  0.54327  1.0000 0.1124944461
H   H86       1.0  0.87565  0.44353  0.53438  1.0000 0.127720696
H   H87       1.0  0.87131  0.40154  0.45254  1.0000 0.127720696
H   H88       1.0  0.86856  0.56779  0.39347  1.0000 0.1124944461
H   H89       1.0  0.76897  0.52102  0.32452  1.0000 0.1203834038
H   H90       1.0  0.75437  0.48214  0.24239  1.0000 0.127720696
H   H91       1.0  0.94031  0.34551  0.29306  1.0000 0.1203834038
H   H92       1.0  0.95205  0.38332  0.37622  1.0000 0.1203834038
H   H93       1.0  0.93616  0.48584  0.19783  1.0000 0.1203834038
H   H94       1.0  0.94337  0.54433  0.12472  1.0000 0.1124944461
H   H95       1.0  0.74232  0.43352  0.04395  1.0000 0.1124944461
H   H96       1.0  0.73125  0.37734  0.11735  1.0000 0.127720696
H   H97       1.0  0.86188  0.61052  0.05456  1.0000 0.1203834038
H   H98       1.0  0.87669  0.60799  0.90546  1.0000 0.1203834038
H   H99       1.0  0.87339  0.50409  0.90422  1.0000 0.1203834038
H   H100      1.0  0.86009  0.45221  0.98077  1.0000 0.1203834038
H   H101      1.0  0.74487  0.30188  0.25556  1.0000 0.127720696
H   H102      1.0  0.75620  0.19844  0.24885  1.0000 0.1124944461
H   H103      1.0  0.92983  0.21708  0.13416  1.0000 0.1124944461
H   H104      1.0  0.92470  0.31994  0.14253  1.0000 0.127720696
H   H105      1.0  0.87123  0.12477  0.11389  1.0000 0.0993893939
H   H106      1.0  0.89686  0.96720  0.17820  1.0000 0.0993893939
H   H107      1.0  0.87254  0.00649  0.25604  1.0000 0.1203834038
H   H108      1.0  0.85295  0.11026  0.26495  1.0000 0.1203834038
H   H109      1.0  0.17939  0.67136  0.97803  1.0000 0.1203834038
H   H110      1.0  0.35090  0.65756  0.97961  1.0000 0.1124944461
H   H111      1.0  0.21793  0.85033  0.98231  1.0000 0.1124944461
H   H112      1.0  0.52736  0.69984  0.97953  1.0000 0.127720696
H   H113      1.0  0.56624  0.87878  0.98174  1.0000 0.127720696
H   H114      1.0  0.39434  0.89344  0.98482  1.0000 0.1203834038
H   H115      1.0  0.89790  0.69348  0.14363  1.0000 0.1203834038
H   H116      1.0  0.80217  0.86876  0.22281  1.0000 0.1124944461
H   H117      1.0  0.82359  0.86907  0.13701  1.0000 0.1203834038
H   H118      1.0  0.90172  0.63783  0.22705  1.0000 0.1124944461
H   H119      1.0  0.88468  0.63787  0.31264  1.0000 0.1124944461
H   H120      1.0  0.81511  0.81418  0.30766  1.0000 0.1203834038
H   H121      1.0  0.87617  0.95325  0.04327  1.0000 0.1124944461
H   H122      1.0  0.87565  0.05647  0.03438  1.0000 0.127720696
H   H123      1.0  0.87131  0.09846  0.95254  1.0000 0.127720696
H   H124      1.0  0.86856  0.93221  0.89347  1.0000 0.1124944461
H   H125      1.0  0.76897  0.97898  0.82452  1.0000 0.1203834038
H   H126      1.0  0.75437  0.01786  0.74239  1.0000 0.127720696
H   H127      1.0  0.94031  0.15449  0.79306  1.0000 0.1203834038
H   H128      1.0  0.95205  0.11668  0.87622  1.0000 0.1203834038
H   H129      1.0  0.93616  0.01416  0.69783  1.0000 0.1203834038
H   H130      1.0  0.94337  0.95567  0.62472  1.0000 0.1124944461
H   H131      1.0  0.74232  0.06648  0.54395  1.0000 0.1124944461
H   H132      1.0  0.73125  0.12266  0.61735  1.0000 0.127720696
H   H133      1.0  0.86188  0.88948  0.55456  1.0000 0.1203834038
H   H134      1.0  0.87669  0.89201  0.40546  1.0000 0.1203834038
H   H135      1.0  0.87339  0.99591  0.40422  1.0000 0.1203834038
H   H136      1.0  0.86009  0.04779  0.48077  1.0000 0.1203834038
H   H137      1.0  0.74487  0.19812  0.75556  1.0000 0.127720696
H   H138      1.0  0.75620  0.30156  0.74885  1.0000 0.1203834038
H   H139      1.0  0.92983  0.28292  0.63416  1.0000 0.1124944461
H   H140      1.0  0.92470  0.18006  0.64253  1.0000 0.127720696
H   H141      1.0  0.87123  0.37523  0.61389  1.0000 0.0993893939
H   H142      1.0  0.89686  0.53280  0.67820  1.0000 0.0993893939
H   H143      1.0  0.87254  0.49351  0.75604  1.0000 0.1203834038
H   H144      1.0  0.85295  0.38974  0.76495  1.0000 0.1203834038
C   C1        1.0  0.93305  0.22856  0.02155  1.0000 0.5736079757
C   C2        1.0  0.81919  0.23682  0.02030  1.0000 -0.0204182232
C   C3        1.0  0.77730  0.29535  0.02097  1.0000 -0.1201605733
C   C4        1.0  0.67530  0.30351  0.02017  1.0000 -0.1510879549
C   C5        1.0  0.60717  0.25385  0.01901  1.0000 0.0737139066
C   C6        1.0  0.64878  0.19500  0.01815  1.0000 0.0803036188
C   C7        1.0  0.75461  0.18824  0.01859  1.0000 -0.1674463785
C   C8        1.0  0.49988  0.26151  0.01987  1.0000 -0.1443675514
C   C9        1.0  0.43620  0.21284  0.01981  1.0000 -0.0266858469
C   C10       1.0  0.47720  0.15435  0.01832  1.0000 -0.1011514384
C   C11       1.0  0.58030  0.14555  0.01694  1.0000 -0.1602842052
C   C12       1.0  0.32387  0.22083  0.02225  1.0000 0.5915707891
C   C13       1.0  0.12097  0.21833  0.92449  1.0000 0.5828325842
C   C14       1.0  0.13500  0.21888  0.86802  1.0000 -0.0204182232
C   C15       1.0  0.12020  0.27158  0.83996  1.0000 -0.1674463785
C   C16       1.0  0.13210  0.27335  0.78707  1.0000 0.0737139066
C   C17       1.0  0.16010  0.21973  0.76243  1.0000 0.0737139066
C   C18       1.0  0.17760  0.16636  0.79261  1.0000 -0.1602842052
C   C19       1.0  0.16510  0.16620  0.84382  1.0000 -0.1201605733
C   C20       1.0  0.11570  0.32667  0.75716  1.0000 -0.1510879549
C   C21       1.0  0.12510  0.32653  0.70620  1.0000 -0.1201605733
C   C22       1.0  0.14990  0.27273  0.68076  1.0000 -0.0204182232
C   C23       1.0  0.16760  0.22087  0.70886  1.0000 -0.1602842052
C   C24       1.0  0.14794  0.27217  0.62291  1.0000 0.5828325842
C   C25       1.0  0.12522  0.02998  0.98959  1.0000 0.0737139066
C   C26       1.0  0.12600  0.96811  0.99468  1.0000 -0.1297613747
C   C27       1.0  0.12918  0.94319  0.04353  1.0000 -0.0923312585
C   C28       1.0  0.13317  0.98041  0.08700  1.0000 0.0293157211
C   C29       1.0  0.13043  0.04218  0.07815  1.0000 0.0367228296
C   C30       1.0  0.13900  0.95661  0.14027  1.0000 0.0498410529
C   C31       1.0  0.19710  0.98538  0.18148  1.0000 -0.1297613747
C   C32       1.0  0.20540  0.96239  0.23079  1.0000 -0.1822244352
C   C33       1.0  0.15380  0.90940  0.24096  1.0000 0.1764412169
C   C34       1.0  0.09480  0.88060  0.20056  1.0000 -0.1822244352
C   C35       1.0  0.08740  0.90342  0.15064  1.0000 -0.1297613747
C   C36       1.0  0.16320  0.92380  0.33540  1.0000 0.172402436
C   C37       1.0  0.10200  0.97481  0.33333  1.0000 -0.1822244352
C   C38       1.0  0.09710  0.00979  0.37744  1.0000 -0.1510879549
C   C39       1.0  0.15200  0.99372  0.42465  1.0000 0.0599879753
C   C40       1.0  0.21740  0.94393  0.42532  1.0000 -0.1297613747
C   C41       1.0  0.22370  0.90984  0.38136  1.0000 -0.1674463785
C   C42       1.0  0.14180  0.02560  0.47327  1.0000 0.0293157211
C   C43       1.0  0.13724  0.08845  0.47580  1.0000 0.0293157211
C   C44       1.0  0.12780  0.08712  0.56387  1.0000 0.0599879753
C   C45       1.0  0.13010  0.02488  0.56497  1.0000 -0.1443675514
C   C46       1.0  0.13760  0.99409  0.51921  1.0000 -0.108250359
C   C47       1.0  0.16320  0.82176  0.29884  1.0000 0.172402436
C   C48       1.0  0.21570  0.78496  0.26812  1.0000 -0.1822244352
C   C49       1.0  0.20960  0.72269  0.27265  1.0000 -0.1297613747
C   C50       1.0  0.15400  0.69590  0.30827  1.0000 0.0599879753
C   C51       1.0  0.10570  0.73390  0.34052  1.0000 -0.1201605733
C   C52       1.0  0.10920  0.79568  0.33584  1.0000 -0.1674463785
C   C53       1.0  0.14180  0.62965  0.31103  1.0000 0.0293157211
C   C54       1.0  0.12840  0.60091  0.35668  1.0000 0.0164000076
C   C55       1.0  0.11370  0.50849  0.31941  1.0000 0.0498410529
C   C56       1.0  0.12700  0.53174  0.27248  1.0000 -0.1602842052
C   C57       1.0  0.13990  0.59348  0.26719  1.0000 -0.1201605733
C   C58       1.0  0.93305  0.27144  0.52155  1.0000 0.5736079757
C   C59       1.0  0.81919  0.26318  0.52030  1.0000 -0.0204182232
C   C60       1.0  0.77730  0.20465  0.52097  1.0000 -0.1201605733
C   C61       1.0  0.67530  0.19649  0.52017  1.0000 -0.1510879549
C   C62       1.0  0.60717  0.24615  0.51901  1.0000 0.0737139066
C   C63       1.0  0.64878  0.30500  0.51815  1.0000 0.0803036188
C   C64       1.0  0.75461  0.31176  0.51859  1.0000 -0.1674463785
C   C65       1.0  0.49988  0.23849  0.51987  1.0000 -0.1443675514
C   C66       1.0  0.43620  0.28716  0.51981  1.0000 -0.0266858469
C   C67       1.0  0.47720  0.34565  0.51832  1.0000 -0.1011514384
C   C68       1.0  0.58030  0.35445  0.51694  1.0000 -0.1602842052
C   C69       1.0  0.32387  0.27917  0.52225  1.0000 0.5915707891
C   C70       1.0  0.12097  0.28167  0.42449  1.0000 0.5828325842
C   C71       1.0  0.13500  0.28112  0.36802  1.0000 -0.0204182232
C   C72       1.0  0.12020  0.22842  0.33996  1.0000 -0.1674463785
C   C73       1.0  0.13210  0.22665  0.28707  1.0000 0.0737139066
C   C74       1.0  0.16010  0.28027  0.26243  1.0000 0.0737139066
C   C75       1.0  0.17760  0.33364  0.29261  1.0000 -0.1602842052
C   C76       1.0  0.16510  0.33380  0.34382  1.0000 -0.1201605733
C   C77       1.0  0.11570  0.17333  0.25716  1.0000 -0.1510879549
C   C78       1.0  0.12510  0.17347  0.20620  1.0000 -0.1201605733
C   C79       1.0  0.14990  0.22727  0.18076  1.0000 -0.0204182232
C   C80       1.0  0.16760  0.27913  0.20886  1.0000 -0.1602842052
C   C81       1.0  0.14794  0.22783  0.12291  1.0000 0.5828325842
C   C82       1.0  0.12522  0.47002  0.48959  1.0000 0.0737139066
C   C83       1.0  0.12600  0.53189  0.49468  1.0000 -0.1297613747
C   C84       1.0  0.12918  0.55681  0.54353  1.0000 -0.0923312585
C   C85       1.0  0.13317  0.51959  0.58700  1.0000 0.0293157211
C   C86       1.0  0.13043  0.45782  0.57815  1.0000 0.0367228296
C   C87       1.0  0.13900  0.54339  0.64027  1.0000 0.0498410529
C   C88       1.0  0.19710  0.51462  0.68148  1.0000 -0.1297613747
C   C89       1.0  0.20540  0.53761  0.73079  1.0000 -0.1851092781
C   C90       1.0  0.15380  0.59060  0.74096  1.0000 0.1764412169
C   C91       1.0  0.09480  0.61940  0.70056  1.0000 -0.1822244352
C   C92       1.0  0.08740  0.59658  0.65064  1.0000 -0.1297613747
C   C93       1.0  0.16320  0.57620  0.83540  1.0000 0.172402436
C   C94       1.0  0.10200  0.52519  0.83331  1.0000 -0.1822244352
C   C95       1.0  0.09710  0.49021  0.87744  1.0000 -0.1510879549
C   C96       1.0  0.15200  0.50628  0.92465  1.0000 0.0599879753
C   C97       1.0  0.21740  0.55607  0.92532  1.0000 -0.1297613747
C   C98       1.0  0.22370  0.59016  0.88136  1.0000 -0.1674463785
C   C99       1.0  0.14180  0.47440  0.97327  1.0000 0.0293157211
C   C100      1.0  0.13724  0.41155  0.97580  1.0000 0.0293157211
C   C101      1.0  0.12780  0.41288  0.06387  1.0000 0.0599879753
C   C102      1.0  0.13010  0.47512  0.06497  1.0000 -0.1443675514
C   C103      1.0  0.13760  0.50591  0.01921  1.0000 -0.108250359
C   C104      1.0  0.16320  0.67824  0.79884  1.0000 0.172402436
C   C105      1.0  0.21570  0.71504  0.76812  1.0000 -0.1822244352
C   C106      1.0  0.20960  0.77731  0.77265  1.0000 -0.1297613747
C   C107      1.0  0.15400  0.80410  0.80827  1.0000 0.0599879753
C   C108      1.0  0.10570  0.76610  0.84052  1.0000 -0.1201605733
C   C109      1.0  0.10920  0.70432  0.83584  1.0000 -0.1674463785
C   C110      1.0  0.14180  0.87035  0.81103  1.0000 0.0293157211
C   C111      1.0  0.12840  0.89909  0.85668  1.0000 0.0164000076
C   C112      1.0  0.11370  0.99151  0.81941  1.0000 0.0498410529
C   C113      1.0  0.12700  0.96826  0.77248  1.0000 -0.1602842052
C   C114      1.0  0.13990  0.90652  0.76719  1.0000 -0.1201605733
C   C115      1.0  0.06695  0.72856  0.47845  1.0000 0.5736079757
C   C116      1.0  0.18081  0.73682  0.47970  1.0000 -0.0204182232
C   C117      1.0  0.22270  0.79535  0.47903  1.0000 -0.1201605733
C   C118      1.0  0.32470  0.80351  0.47983  1.0000 -0.1510879549
C   C119      1.0  0.39283  0.75385  0.48099  1.0000 0.0737139066
C   C120      1.0  0.35122  0.69500  0.48185  1.0000 0.0803036188
C   C121      1.0  0.24539  0.68824  0.48141  1.0000 -0.1674463785
C   C122      1.0  0.50012  0.76151  0.48013  1.0000 -0.1443675514
C   C123      1.0  0.56380  0.71284  0.48019  1.0000 -0.0266858469
C   C124      1.0  0.52280  0.65435  0.48168  1.0000 -0.1011514384
C   C125      1.0  0.41970  0.64555  0.48306  1.0000 -0.1602842052
C   C126      1.0  0.67613  0.72083  0.47775  1.0000 0.5915707891
C   C127      1.0  0.87903  0.71833  0.57551  1.0000 0.5828325842
C   C128      1.0  0.86500  0.71888  0.63198  1.0000 -0.0204182232
C   C129      1.0  0.87980  0.77158  0.66004  1.0000 -0.1674463785
C   C130      1.0  0.86790  0.77335  0.71293  1.0000 0.0737139066
C   C131      1.0  0.83990  0.71973  0.73757  1.0000 0.0737139066
C   C132      1.0  0.82240  0.66636  0.70739  1.0000 -0.1602842052
C   C133      1.0  0.83490  0.66620  0.65618  1.0000 -0.1201605733
C   C134      1.0  0.88430  0.82667  0.74284  1.0000 -0.1510879549
C   C135      1.0  0.87490  0.82653  0.79380  1.0000 -0.1201605733
C   C136      1.0  0.85010  0.77273  0.81924  1.0000 -0.0204182232
C   C137      1.0  0.83240  0.72087  0.79114  1.0000 -0.1602842052
C   C138      1.0  0.85206  0.77217  0.87709  1.0000 0.5828325842
C   C139      1.0  0.87478  0.52998  0.51041  1.0000 0.0737139066
C   C140      1.0  0.87400  0.46811  0.50532  1.0000 -0.1297613747
C   C141      1.0  0.87082  0.44319  0.45647  1.0000 -0.0923312585
C   C142      1.0  0.86683  0.48041  0.41300  1.0000 0.0293157211
C   C143      1.0  0.86957  0.54218  0.42185  1.0000 0.0367228296
C   C144      1.0  0.86100  0.45661  0.35973  1.0000 0.0498410529
C   C145      1.0  0.80290  0.48538  0.31852  1.0000 -0.1297613747
C   C146      1.0  0.79460  0.46239  0.26921  1.0000 -0.1851092781
C   C147      1.0  0.84620  0.40940  0.25904  1.0000 0.1764412169
C   C148      1.0  0.90520  0.38060  0.29944  1.0000 -0.1822244352
C   C149      1.0  0.91260  0.40342  0.34936  1.0000 -0.1297613747
C   C150      1.0  0.83680  0.42380  0.16460  1.0000 0.172402436
C   C151      1.0  0.89800  0.47481  0.16669  1.0000 -0.1822244352
C   C152      1.0  0.90290  0.50979  0.12256  1.0000 -0.1510879549
C   C153      1.0  0.84800  0.49372  0.07535  1.0000 0.0599879753
C   C154      1.0  0.78260  0.44393  0.07468  1.0000 -0.1297613747
C   C155      1.0  0.77630  0.40984  0.11864  1.0000 -0.1674463785
C   C156      1.0  0.85820  0.52560  0.02673  1.0000 0.0293157211
C   C157      1.0  0.86276  0.58845  0.02420  1.0000 0.0293157211
C   C158      1.0  0.87220  0.58712  0.93613  1.0000 0.0599879753
C   C159      1.0  0.86990  0.52488  0.93503  1.0000 -0.1510879549
C   C160      1.0  0.86240  0.49409  0.98079  1.0000 -0.108250359
C   C161      1.0  0.83680  0.32176  0.20116  1.0000 0.172402436
C   C162      1.0  0.78430  0.28496  0.23188  1.0000 -0.1822244352
C   C163      1.0  0.79040  0.22269  0.22735  1.0000 -0.1297613747
C   C164      1.0  0.84600  0.19590  0.19173  1.0000 0.0599879753
C   C165      1.0  0.89430  0.23390  0.15948  1.0000 -0.1201605733
C   C166      1.0  0.89080  0.29568  0.16416  1.0000 -0.1674463785
C   C167      1.0  0.85820  0.12965  0.18897  1.0000 0.0293157211
C   C168      1.0  0.87160  0.10091  0.14332  1.0000 0.0164000076
C   C169      1.0  0.88630  0.00849  0.18059  1.0000 0.0498410529
C   C170      1.0  0.87300  0.03174  0.22752  1.0000 -0.1602842052
C   C171      1.0  0.86010  0.09348  0.23281  1.0000 -0.1201605733
C   C172      1.0  0.06695  0.77144  0.97845  1.0000 0.5736079757
C   C173      1.0  0.18081  0.76318  0.97970  1.0000 -0.0204182232
C   C174      1.0  0.22270  0.70465  0.97903  1.0000 -0.1201605733
C   C175      1.0  0.32470  0.69649  0.97983  1.0000 -0.1510879549
C   C176      1.0  0.39283  0.74615  0.98099  1.0000 0.0737139066
C   C177      1.0  0.35122  0.80500  0.98185  1.0000 0.0803036188
C   C178      1.0  0.24539  0.81176  0.98141  1.0000 -0.1674463785
C   C179      1.0  0.50012  0.73849  0.98013  1.0000 -0.1443675514
C   C180      1.0  0.56380  0.78716  0.98019  1.0000 -0.0266858469
C   C181      1.0  0.52280  0.84565  0.98168  1.0000 -0.1011514384
C   C182      1.0  0.41970  0.85445  0.98306  1.0000 -0.1602842052
C   C183      1.0  0.67613  0.77917  0.97775  1.0000 0.5915707891
C   C184      1.0  0.87903  0.78167  0.07551  1.0000 0.5828325842
C   C185      1.0  0.86500  0.78112  0.13198  1.0000 -0.0204182232
C   C186      1.0  0.87980  0.72842  0.16004  1.0000 -0.1674463785
C   C187      1.0  0.86790  0.72665  0.21293  1.0000 0.0737139066
C   C188      1.0  0.83990  0.78027  0.23757  1.0000 0.0737139066
C   C189      1.0  0.82240  0.83364  0.20739  1.0000 -0.1602842052
C   C190      1.0  0.83490  0.83380  0.15618  1.0000 -0.1201605733
C   C191      1.0  0.88430  0.67333  0.24284  1.0000 -0.1510879549
C   C192      1.0  0.87490  0.67347  0.29380  1.0000 -0.1201605733
C   C193      1.0  0.85010  0.72727  0.31924  1.0000 -0.0204182232
C   C194      1.0  0.83240  0.77913  0.29114  1.0000 -0.1602842052
C   C195      1.0  0.85206  0.72783  0.37709  1.0000 0.5828325842
C   C196      1.0  0.87478  0.97002  0.01041  1.0000 0.0737139066
C   C197      1.0  0.87400  0.03189  0.00532  1.0000 -0.1297613747
C   C198      1.0  0.87082  0.05681  0.95647  1.0000 -0.0923312585
C   C199      1.0  0.86683  0.01959  0.91300  1.0000 0.0293157211
C   C200      1.0  0.86957  0.95782  0.92185  1.0000 0.0367228296
C   C201      1.0  0.86100  0.04339  0.85973  1.0000 0.0498410529
C   C202      1.0  0.80290  0.01462  0.81852  1.0000 -0.1297613747
C   C203      1.0  0.79460  0.03761  0.76921  1.0000 -0.1851092781
C   C204      1.0  0.84620  0.09060  0.75904  1.0000 0.1764412169
C   C205      1.0  0.90520  0.11940  0.79944  1.0000 -0.1822244352
C   C206      1.0  0.91260  0.09658  0.84936  1.0000 -0.1297613747
C   C207      1.0  0.83680  0.07620  0.66460  1.0000 0.172402436
C   C208      1.0  0.89800  0.02519  0.66667  1.0000 -0.1822244352
C   C209      1.0  0.90290  0.99021  0.62256  1.0000 -0.1510879549
C   C210      1.0  0.84800  0.00628  0.57535  1.0000 0.0599879753
C   C211      1.0  0.78260  0.05607  0.57468  1.0000 -0.1297613747
C   C212      1.0  0.77630  0.09016  0.61864  1.0000 -0.1674463785
C   C213      1.0  0.85820  0.97440  0.52673  1.0000 0.0293157211
C   C214      1.0  0.86276  0.91155  0.52420  1.0000 0.0293157211
C   C215      1.0  0.87220  0.91288  0.43613  1.0000 0.0599879753
C   C216      1.0  0.86990  0.97512  0.43503  1.0000 -0.1510879549
C   C217      1.0  0.86240  0.00591  0.48079  1.0000 -0.108250359
C   C218      1.0  0.83680  0.17824  0.70116  1.0000 0.172402436
C   C219      1.0  0.78430  0.21504  0.73188  1.0000 -0.1822244352
C   C220      1.0  0.79040  0.27731  0.72735  1.0000 -0.1297613747
C   C221      1.0  0.84600  0.30410  0.69173  1.0000 0.0599879753
C   C222      1.0  0.89430  0.26610  0.65948  1.0000 -0.1201605733
C   C223      1.0  0.89080  0.20432  0.66416  1.0000 -0.1674463785
C   C224      1.0  0.85820  0.37035  0.68897  1.0000 0.0293157211
C   C225      1.0  0.87160  0.39909  0.64332  1.0000 0.0164000076
C   C226      1.0  0.88630  0.49151  0.68059  1.0000 0.0498410529
C   C227      1.0  0.87300  0.46826  0.72752  1.0000 -0.1602842052
C   C228      1.0  0.86010  0.40652  0.73281  1.0000 -0.1201605733
N   N1        1.0  0.12642  0.06679  0.03083  1.0000 -0.2174248453
N   N2        1.0  0.16340  0.88539  0.29168  1.0000 -0.1822244352
N   N3        1.0  0.13168  0.11820  0.52032  1.0000 -0.20044001
N   N4        1.0  0.11490  0.54153  0.36235  1.0000 -0.2409271131
N   N5        1.0  0.12642  0.43321  0.53083  1.0000 -0.2174248453
N   N6        1.0  0.16340  0.61461  0.79168  1.0000 -0.1822244352
N   N7        1.0  0.13168  0.38180  0.02032  1.0000 -0.20044001
N   N8        1.0  0.11490  0.95847  0.86235  1.0000 -0.2409271131
N   N9        1.0  0.87358  0.56679  0.46917  1.0000 -0.2174248453
N   N10       1.0  0.83660  0.38539  0.20832  1.0000 -0.1822244352
N   N11       1.0  0.86832  0.61820  0.97968  1.0000 -0.20044001
N   N12       1.0  0.88510  0.04153  0.13765  1.0000 -0.2409271131
N   N13       1.0  0.87358  0.93321  0.96917  1.0000 -0.2174248453
N   N14       1.0  0.83660  0.11461  0.70832  1.0000 -0.1822244352
N   N15       1.0  0.86832  0.88180  0.47968  1.0000 -0.20044001
N   N16       1.0  0.88510  0.45847  0.63765  1.0000 -0.2409271131
O   O1        1.0  0.12670  0.32102  0.59977  1.0000 -0.5486273821
O   O2        1.0  0.16508  0.22312  0.60170  1.0000 -0.5401441898
O   O3        1.0  0.11391  0.26805  0.94648  1.0000 -0.5401441898
O   O4        1.0  0.11714  0.16746  0.94537  1.0000 -0.5401441898
O   O5        1.0  0.28903  0.27369  0.01865  1.0000 -0.5401441898
O   O6        1.0  0.27282  0.17432  0.02776  1.0000 -0.5486273821
O   O7        1.0  0.98690  0.27533  0.02805  1.0000 -0.5486273821
O   O8        1.0  0.96641  0.17621  0.01666  1.0000 -0.5401441898
O   O9        1.0  0.12670  0.17898  0.09977  1.0000 -0.5486273821
O   O10       1.0  0.16508  0.27688  0.10170  1.0000 -0.5401441898
O   O11       1.0  0.11391  0.23195  0.44648  1.0000 -0.5401441898
O   O12       1.0  0.11714  0.33254  0.44537  1.0000 -0.5401441898
O   O13       1.0  0.28903  0.22631  0.51865  1.0000 -0.5401441898
O   O14       1.0  0.27282  0.32568  0.52776  1.0000 -0.5486273821
O   O15       1.0  0.98690  0.22467  0.52805  1.0000 -0.5486273821
O   O16       1.0  0.96641  0.32379  0.51666  1.0000 -0.5401441898
O   O17       1.0  0.87330  0.82102  0.90023  1.0000 -0.5486273821
O   O18       1.0  0.83492  0.72312  0.89830  1.0000 -0.5401441898
O   O19       1.0  0.88609  0.76805  0.55352  1.0000 -0.5401441898
O   O20       1.0  0.88286  0.66746  0.55463  1.0000 -0.5401441898
O   O21       1.0  0.71097  0.77369  0.48135  1.0000 -0.5401441898
O   O22       1.0  0.72718  0.67432  0.47224  1.0000 -0.5486273821
O   O23       1.0  0.01310  0.77533  0.47195  1.0000 -0.5486273821
O   O24       1.0  0.03359  0.67621  0.48334  1.0000 -0.5401441898
O   O25       1.0  0.87330  0.67898  0.40023  1.0000 -0.5486273821
O   O26       1.0  0.83492  0.77688  0.39830  1.0000 -0.5401441898
O   O27       1.0  0.88609  0.73195  0.05352  1.0000 -0.5401441898
O   O28       1.0  0.88286  0.83254  0.05463  1.0000 -0.5401441898
O   O29       1.0  0.71097  0.72631  0.98135  1.0000 -0.5401441898
O   O30       1.0  0.72718  0.82568  0.97224  1.0000 -0.5486273821
O   O31       1.0  0.01310  0.72467  0.97195  1.0000 -0.5486273821
O   O32       1.0  0.03359  0.82379  0.98334  1.0000 -0.5401441898
