# DDEC6 charges by PACMAN v1.1 (https://github.com/mtap-research/PACMAN-charge/)
data_2022[CdPb][nan]3[FSR]1
_chemical_formula_sum              "Cd2 H28 Pb4 C36 N16 O24"
_cell_length_a       12.3482
_cell_length_b       12.3482
_cell_length_c       19.3581
_cell_angle_alpha    58.1839
_cell_angle_beta     121.816
_cell_angle_gamma    147.06

_symmetry_space_group_name_H-M    "P 1"
_symmetry_Int_Tables_number       1

loop_
  _symmetry_equiv_pos_as_xyz
  'x, y, z'

loop_
  _atom_site_type_symbol
  _atom_site_label
  _atom_site_symmetry_multiplicity
  _atom_site_fract_x
  _atom_site_fract_y
  _atom_site_fract_z
  _atom_site_occupancy
  _atom_site_charge
Cd  Cd1       1.0  0.97263  0.97263  0.75000  1.0000 0.9259536337
Cd  Cd2       1.0  0.02737  0.02737  0.25000  1.0000 0.9259536337
H   H1        1.0  0.04850  0.79210  0.59360  1.0000 0.3503800702
H   H2        1.0  0.09800  0.81420  0.67530  1.0000 0.3790977929
H   H3        1.0  0.70400  0.66960  0.66440  1.0000 0.38679672
H   H4        1.0  0.87000  0.71220  0.70380  1.0000 0.3790977929
H   H5        1.0  0.64400  0.54120  0.33150  1.0000 0.128021441
H   H6        1.0  0.84830  0.38370  0.35500  1.0000 0.1245965731
H   H7        1.0  0.65420  0.21040  0.54600  1.0000 0.128021441
H   H8        1.0  0.79210  0.04850  0.90640  1.0000 0.3503800702
H   H9        1.0  0.81420  0.09800  0.82470  1.0000 0.3790977929
H   H10       1.0  0.66960  0.70400  0.83560  1.0000 0.38679672
H   H11       1.0  0.71220  0.87000  0.79620  1.0000 0.3790977929
H   H12       1.0  0.54120  0.64400  0.16850  1.0000 0.128021441
H   H13       1.0  0.38370  0.84830  0.14500  1.0000 0.1245965731
H   H14       1.0  0.21040  0.65420  0.95400  1.0000 0.128021441
H   H15       1.0  0.95150  0.20790  0.40640  1.0000 0.3503800702
H   H16       1.0  0.90200  0.18580  0.32470  1.0000 0.3790977929
H   H17       1.0  0.29600  0.33040  0.33560  1.0000 0.38679672
H   H18       1.0  0.13000  0.28780  0.29620  1.0000 0.3790977929
H   H19       1.0  0.35600  0.45880  0.66850  1.0000 0.128021441
H   H20       1.0  0.15170  0.61630  0.64500  1.0000 0.1245965731
H   H21       1.0  0.34580  0.78960  0.45400  1.0000 0.128021441
H   H22       1.0  0.20790  0.95150  0.09360  1.0000 0.3503800702
H   H23       1.0  0.18580  0.90200  0.17530  1.0000 0.3790977929
H   H24       1.0  0.33040  0.29600  0.16440  1.0000 0.38679672
H   H25       1.0  0.28780  0.13000  0.20380  1.0000 0.3790977929
H   H26       1.0  0.45880  0.35600  0.83150  1.0000 0.128021441
H   H27       1.0  0.61630  0.15170  0.85500  1.0000 0.1245965731
H   H28       1.0  0.78960  0.34580  0.04600  1.0000 0.128021441
Pb  Pb1       1.0  0.27641  0.20211  0.56912  1.0000 0.9954095554
Pb  Pb2       1.0  0.20211  0.27641  0.93088  1.0000 0.9942338538
Pb  Pb3       1.0  0.72359  0.79789  0.43088  1.0000 0.9954095554
Pb  Pb4       1.0  0.79789  0.72359  0.06912  1.0000 0.9954095554
C   C1        1.0  0.63190  0.37130  0.44350  1.0000 -0.0168156129
C   C2        1.0  0.67190  0.47410  0.36370  1.0000 -0.1123334545
C   C3        1.0  0.75260  0.47900  0.33080  1.0000 0.0021975493
C   C4        1.0  0.79640  0.38320  0.37800  1.0000 -0.1384252835
C   C5        1.0  0.76380  0.28700  0.45910  1.0000 0.0449946966
C   C6        1.0  0.67950  0.27930  0.49110  1.0000 -0.126253188
C   C7        1.0  0.53970  0.36070  0.47800  1.0000 0.5620301884
C   C8        1.0  0.78780  0.58520  0.24360  1.0000 0.5726854276
C   C9        1.0  0.82250  0.19690  0.51200  1.0000 0.2341760468
C   C10       1.0  0.37130  0.63190  0.05650  1.0000 -0.0168156129
C   C11       1.0  0.47410  0.67190  0.13630  1.0000 -0.1123334545
C   C12       1.0  0.47900  0.75260  0.16920  1.0000 0.0021975493
C   C13       1.0  0.38320  0.79640  0.12200  1.0000 -0.1384252835
C   C14       1.0  0.28700  0.76380  0.04090  1.0000 0.0449946966
C   C15       1.0  0.27930  0.67950  0.00890  1.0000 -0.126253188
C   C16       1.0  0.36070  0.53970  0.02200  1.0000 0.5620301884
C   C17       1.0  0.58520  0.78780  0.25640  1.0000 0.5726854276
C   C18       1.0  0.19690  0.82250  0.98800  1.0000 0.2341760468
C   C19       1.0  0.36810  0.62870  0.55650  1.0000 -0.0168156129
C   C20       1.0  0.32810  0.52590  0.63630  1.0000 -0.1123334545
C   C21       1.0  0.24740  0.52100  0.66920  1.0000 0.0021975493
C   C22       1.0  0.20360  0.61680  0.62200  1.0000 -0.1384252835
C   C23       1.0  0.23620  0.71300  0.54090  1.0000 0.0449946966
C   C24       1.0  0.32050  0.72070  0.50890  1.0000 -0.126253188
C   C25       1.0  0.46030  0.63930  0.52200  1.0000 0.5620301884
C   C26       1.0  0.21220  0.41480  0.75640  1.0000 0.5726854276
C   C27       1.0  0.17750  0.80310  0.48800  1.0000 0.2341760468
C   C28       1.0  0.62870  0.36810  0.94350  1.0000 -0.0168156129
C   C29       1.0  0.52590  0.32810  0.86370  1.0000 -0.1123334545
C   C30       1.0  0.52100  0.24740  0.83080  1.0000 0.0021975493
C   C31       1.0  0.61680  0.20360  0.87800  1.0000 -0.1384252835
C   C32       1.0  0.71300  0.23620  0.95910  1.0000 0.0449946966
C   C33       1.0  0.72070  0.32050  0.99110  1.0000 -0.126253188
C   C34       1.0  0.63930  0.46030  0.97800  1.0000 0.5620301884
C   C35       1.0  0.41480  0.21220  0.74360  1.0000 0.5726854276
C   C36       1.0  0.80310  0.17750  0.01200  1.0000 0.2341760468
N   N1        1.0  0.81520  0.12100  0.59270  1.0000 -0.2699107372
N   N2        1.0  0.88352  0.05968  0.61710  1.0000 -0.0815008733
N   N3        1.0  0.93343  0.09917  0.55400  1.0000 -0.1579314026
N   N4        1.0  0.89388  0.18512  0.48670  1.0000 -0.2699107372
N   N5        1.0  0.12100  0.81520  0.90730  1.0000 -0.2699107372
N   N6        1.0  0.05968  0.88352  0.88290  1.0000 -0.0815008733
N   N7        1.0  0.09917  0.93343  0.94600  1.0000 -0.1579314026
N   N8        1.0  0.18512  0.89388  0.01330  1.0000 -0.2753319669
N   N9        1.0  0.18480  0.87900  0.40730  1.0000 -0.2699107372
N   N10       1.0  0.11648  0.94032  0.38290  1.0000 -0.0815008733
N   N11       1.0  0.06657  0.90083  0.44600  1.0000 -0.1579314026
N   N12       1.0  0.10612  0.81488  0.51330  1.0000 -0.2699107372
N   N13       1.0  0.87900  0.18480  0.09270  1.0000 -0.2699107372
N   N14       1.0  0.94032  0.11648  0.11710  1.0000 -0.0815008733
N   N15       1.0  0.90083  0.06657  0.05400  1.0000 -0.1579314026
N   N16       1.0  0.81488  0.10612  0.98670  1.0000 -0.2699107372
O   O1        1.0  0.51731  0.27849  0.55213  1.0000 -0.4899995703
O   O2        1.0  0.48434  0.43466  0.43149  1.0000 -0.5920945633
O   O3        1.0  0.84146  0.74274  0.21406  1.0000 -0.5920945633
O   O4        1.0  0.75607  0.51193  0.19894  1.0000 -0.4899995703
O   O5        1.0  0.05140  0.84020  0.62010  1.0000 -0.7108262706
O   O6        1.0  0.78982  0.69298  0.71440  1.0000 -0.700737052
O   O7        1.0  0.27849  0.51731  0.94787  1.0000 -0.4899995703
O   O8        1.0  0.43466  0.48434  0.06851  1.0000 -0.5920945633
O   O9        1.0  0.74274  0.84146  0.28594  1.0000 -0.5920945633
O   O10       1.0  0.51193  0.75607  0.30106  1.0000 -0.4899995703
O   O11       1.0  0.84020  0.05140  0.87990  1.0000 -0.7108262706
O   O12       1.0  0.69298  0.78982  0.78560  1.0000 -0.700737052
O   O13       1.0  0.48269  0.72151  0.44787  1.0000 -0.4899995703
O   O14       1.0  0.51566  0.56534  0.56851  1.0000 -0.5920945633
O   O15       1.0  0.15854  0.25726  0.78594  1.0000 -0.5920945633
O   O16       1.0  0.24393  0.48807  0.80106  1.0000 -0.4899995703
O   O17       1.0  0.94860  0.15980  0.37990  1.0000 -0.7108262706
O   O18       1.0  0.21018  0.30702  0.28560  1.0000 -0.700737052
O   O19       1.0  0.72151  0.48269  0.05213  1.0000 -0.4899995703
O   O20       1.0  0.56534  0.51566  0.93149  1.0000 -0.5920945633
O   O21       1.0  0.25726  0.15854  0.71406  1.0000 -0.5920945633
O   O22       1.0  0.48807  0.24393  0.69894  1.0000 -0.4899995703
O   O23       1.0  0.15980  0.94860  0.12010  1.0000 -0.7108262706
O   O24       1.0  0.30702  0.21018  0.21440  1.0000 -0.700737052
