# DDEC6 charges by PACMAN v1.1 (https://github.com/mtap-research/PACMAN-charge/)
data_2023[Cd][nan]2[FSR]3
_chemical_formula_sum              "Cd8 H104 C116 N8 O52"
_cell_length_a       13.4555
_cell_length_b       15.7288
_cell_length_c       19.5797
_cell_angle_alpha    90
_cell_angle_beta     112.699
_cell_angle_gamma    90

_symmetry_space_group_name_H-M    "P 1"
_symmetry_Int_Tables_number       1

loop_
  _symmetry_equiv_pos_as_xyz
  'x, y, z'

loop_
  _atom_site_type_symbol
  _atom_site_label
  _atom_site_symmetry_multiplicity
  _atom_site_fract_x
  _atom_site_fract_y
  _atom_site_fract_z
  _atom_site_occupancy
  _atom_site_charge
Cd  Cd1       1.0  0.99173  0.06990  0.69737  1.0000 0.9569750748
Cd  Cd2       1.0  0.00827  0.56990  0.80263  1.0000 0.9569750748
Cd  Cd3       1.0  0.00827  0.93010  0.30263  1.0000 0.9569750748
Cd  Cd4       1.0  0.99173  0.43010  0.19737  1.0000 0.9569750748
Cd  Cd5       1.0  0.91725  0.15949  0.22831  1.0000 1.0698821865
Cd  Cd6       1.0  0.08275  0.65949  0.27169  1.0000 1.0698821865
Cd  Cd7       1.0  0.08275  0.84051  0.77169  1.0000 1.0698821865
Cd  Cd8       1.0  0.91725  0.34051  0.72831  1.0000 1.0698821865
H   H1        1.0  0.79510  0.49420  0.50440  1.0000 0.3646496556
H   H2        1.0  0.20490  0.99420  0.99560  1.0000 0.3646496556
H   H3        1.0  0.20490  0.50580  0.49560  1.0000 0.3646496556
H   H4        1.0  0.79510  0.00580  0.00440  1.0000 0.3646496556
H   H5        1.0  0.52030  0.32580  0.44330  1.0000 0.1200003662
H   H6        1.0  0.47970  0.82580  0.05670  1.0000 0.1200003662
H   H7        1.0  0.47970  0.67420  0.55670  1.0000 0.1200003662
H   H8        1.0  0.52030  0.17420  0.94330  1.0000 0.1200003662
H   H9        1.0  0.20240  0.35210  0.41390  1.0000 0.1200003662
H   H10       1.0  0.79760  0.85210  0.08610  1.0000 0.1200003662
H   H11       1.0  0.79760  0.64790  0.58610  1.0000 0.1200003662
H   H12       1.0  0.20240  0.14790  0.91390  1.0000 0.1200003662
H   H13       1.0  0.55260  0.57500  0.41550  1.0000 0.1200003662
H   H14       1.0  0.44740  0.07500  0.08450  1.0000 0.1200003662
H   H15       1.0  0.44740  0.42500  0.58450  1.0000 0.1200003662
H   H16       1.0  0.55260  0.92500  0.91550  1.0000 0.1200003662
H   H17       1.0  0.36920  0.58600  0.35470  1.0000 0.1288337301
H   H18       1.0  0.63080  0.08600  0.14530  1.0000 0.1288337301
H   H19       1.0  0.63080  0.41400  0.64530  1.0000 0.1288337301
H   H20       1.0  0.36920  0.91400  0.85470  1.0000 0.1288337301
H   H21       1.0  0.31360  0.10390  0.34050  1.0000 0.1200003662
H   H22       1.0  0.68640  0.60390  0.15950  1.0000 0.1200003662
H   H23       1.0  0.68640  0.89610  0.65950  1.0000 0.1200003662
H   H24       1.0  0.31360  0.39610  0.84050  1.0000 0.1200003662
H   H25       1.0  0.11760  0.25210  0.21820  1.0000 0.0972044769
H   H26       1.0  0.88240  0.75210  0.28180  1.0000 0.0972044769
H   H27       1.0  0.88240  0.74790  0.78180  1.0000 0.0972044769
H   H28       1.0  0.11760  0.24790  0.71820  1.0000 0.0972044769
H   H29       1.0  0.33810  0.24860  0.19220  1.0000 0.1288337301
H   H30       1.0  0.66190  0.74860  0.30780  1.0000 0.1288337301
H   H31       1.0  0.66190  0.75140  0.80780  1.0000 0.1288337301
H   H32       1.0  0.33810  0.25140  0.69220  1.0000 0.1288337301
H   H33       1.0  0.25790  0.29980  0.12470  1.0000 0.1397108836
H   H34       1.0  0.74210  0.79980  0.37530  1.0000 0.1397108836
H   H35       1.0  0.74210  0.70020  0.87530  1.0000 0.1397108836
H   H36       1.0  0.25790  0.20020  0.62470  1.0000 0.1397108836
H   H37       1.0  0.25810  0.31390  0.20400  1.0000 0.1397108836
H   H38       1.0  0.74190  0.81390  0.29600  1.0000 0.1397108836
H   H39       1.0  0.74190  0.68610  0.79600  1.0000 0.1397108836
H   H40       1.0  0.25810  0.18610  0.70400  1.0000 0.1397108836
H   H41       1.0  0.17660  0.15710  0.06060  1.0000 0.1288337301
H   H42       1.0  0.82340  0.65710  0.43940  1.0000 0.1288337301
H   H43       1.0  0.82340  0.84290  0.93940  1.0000 0.1288337301
H   H44       1.0  0.17660  0.34290  0.56060  1.0000 0.1288337301
H   H45       1.0  0.25520  0.10620  0.12890  1.0000 0.1288337301
H   H46       1.0  0.74480  0.60620  0.37110  1.0000 0.1288337301
H   H47       1.0  0.74480  0.89380  0.87110  1.0000 0.1288337301
H   H48       1.0  0.25520  0.39380  0.62890  1.0000 0.1288337301
H   H49       1.0  0.13030  0.09610  0.10440  1.0000 0.1452277548
H   H50       1.0  0.86970  0.59610  0.39560  1.0000 0.1452277548
H   H51       1.0  0.86970  0.90390  0.89560  1.0000 0.1452277548
H   H52       1.0  0.13030  0.40390  0.60440  1.0000 0.1452277548
H   H53       1.0  0.12160  0.14000  0.49430  1.0000 0.1200003662
H   H54       1.0  0.87840  0.64000  0.00570  1.0000 0.1200003662
H   H55       1.0  0.87840  0.86000  0.50570  1.0000 0.1200003662
H   H56       1.0  0.12160  0.36000  0.99430  1.0000 0.1200003662
H   H57       1.0  0.86710  0.26860  0.49920  1.0000 0.1110267941
H   H58       1.0  0.13290  0.76860  0.00080  1.0000 0.1110267941
H   H59       1.0  0.13290  0.73140  0.50080  1.0000 0.1110267941
H   H60       1.0  0.86710  0.23140  0.99920  1.0000 0.1110267941
H   H61       1.0  0.86210  0.34950  0.39920  1.0000 0.1200003662
H   H62       1.0  0.13790  0.84950  0.10080  1.0000 0.1200003662
H   H63       1.0  0.13790  0.65050  0.60080  1.0000 0.1200003662
H   H64       1.0  0.86210  0.15050  0.89920  1.0000 0.1200003662
H   H65       1.0  0.86490  0.07200  0.35250  1.0000 0.1110267941
H   H66       1.0  0.13510  0.57200  0.14750  1.0000 0.1110267941
H   H67       1.0  0.13510  0.92800  0.64750  1.0000 0.1110267941
H   H68       1.0  0.86490  0.42800  0.85250  1.0000 0.1110267941
H   H69       1.0  0.83500  0.26670  0.10980  1.0000 0.390179234
H   H70       1.0  0.16500  0.76670  0.39020  1.0000 0.390179234
H   H71       1.0  0.16500  0.73330  0.89020  1.0000 0.390179234
H   H72       1.0  0.83500  0.23330  0.60980  1.0000 0.390179234
H   H73       1.0  0.77820  0.18730  0.08570  1.0000 0.390179234
H   H74       1.0  0.22180  0.68730  0.41430  1.0000 0.390179234
H   H75       1.0  0.22180  0.81270  0.91430  1.0000 0.390179234
H   H76       1.0  0.77820  0.31270  0.58570  1.0000 0.390179234
H   H77       1.0  0.77100  0.08170  0.47770  1.0000 0.1397108836
H   H78       1.0  0.22900  0.58170  0.02230  1.0000 0.1397108836
H   H79       1.0  0.22900  0.91830  0.52230  1.0000 0.1397108836
H   H80       1.0  0.77100  0.41830  0.97770  1.0000 0.1397108836
H   H81       1.0  0.69960  0.01150  0.42440  1.0000 0.1397108836
H   H82       1.0  0.30040  0.51150  0.07560  1.0000 0.1397108836
H   H83       1.0  0.30040  0.98850  0.57560  1.0000 0.1397108836
H   H84       1.0  0.69960  0.48850  0.92440  1.0000 0.1397108836
H   H85       1.0  0.82350  0.01530  0.44200  1.0000 0.1397108836
H   H86       1.0  0.17650  0.51530  0.05800  1.0000 0.1397108836
H   H87       1.0  0.17650  0.98470  0.55800  1.0000 0.1397108836
H   H88       1.0  0.82350  0.48470  0.94200  1.0000 0.1397108836
H   H89       1.0  0.59080  0.14680  0.31250  1.0000 0.1288337301
H   H90       1.0  0.40920  0.64680  0.18750  1.0000 0.1288337301
H   H91       1.0  0.40920  0.85320  0.68750  1.0000 0.1288337301
H   H92       1.0  0.59080  0.35320  0.81250  1.0000 0.1288337301
H   H93       1.0  0.63750  0.17810  0.39490  1.0000 0.1288337301
H   H94       1.0  0.36250  0.67810  0.10510  1.0000 0.1288337301
H   H95       1.0  0.36250  0.82190  0.60510  1.0000 0.1288337301
H   H96       1.0  0.63750  0.32190  0.89490  1.0000 0.1288337301
H   H97       1.0  0.67590  0.22040  0.33680  1.0000 0.1397108836
H   H98       1.0  0.32410  0.72040  0.16320  1.0000 0.1397108836
H   H99       1.0  0.32410  0.77960  0.66320  1.0000 0.1397108836
H   H100      1.0  0.67590  0.27960  0.83680  1.0000 0.1397108836
H   H101      1.0  0.41090  0.22660  0.35140  1.0000 0.1200003662
H   H102      1.0  0.58910  0.72660  0.14860  1.0000 0.1200003662
H   H103      1.0  0.58910  0.77340  0.64860  1.0000 0.1200003662
H   H104      1.0  0.41090  0.27340  0.85140  1.0000 0.1200003662
C   C1        1.0  0.31390  0.30350  0.38050  1.0000 0.0870954342
C   C2        1.0  0.68610  0.80350  0.11950  1.0000 0.0870954342
C   C3        1.0  0.68610  0.69650  0.61950  1.0000 0.0870954342
C   C4        1.0  0.31390  0.19650  0.88050  1.0000 0.0870954342
C   C5        1.0  0.48960  0.37810  0.42470  1.0000 -0.1541948595
C   C6        1.0  0.51040  0.87810  0.07530  1.0000 -0.1541948595
C   C7        1.0  0.51040  0.62190  0.57530  1.0000 -0.1541948595
C   C8        1.0  0.48960  0.12190  0.92470  1.0000 -0.1541948595
C   C9        1.0  0.33260  0.46280  0.36040  1.0000 -0.0485156059
C   C10       1.0  0.66740  0.96280  0.13960  1.0000 -0.0485156059
C   C11       1.0  0.66740  0.53720  0.63960  1.0000 -0.0485156059
C   C12       1.0  0.33260  0.03720  0.86040  1.0000 -0.0485156059
C   C13       1.0  0.37860  0.38320  0.38780  1.0000 0.0464083667
C   C14       1.0  0.62140  0.88320  0.11220  1.0000 0.0464083667
C   C15       1.0  0.62140  0.61680  0.61220  1.0000 0.0464083667
C   C16       1.0  0.37860  0.11680  0.88780  1.0000 0.0464083667
C   C17       1.0  0.22350  0.30230  0.39770  1.0000 -0.1812324055
C   C18       1.0  0.77650  0.80230  0.10230  1.0000 -0.1812324055
C   C19       1.0  0.77650  0.69770  0.60230  1.0000 -0.1812324055
C   C20       1.0  0.22350  0.19770  0.89770  1.0000 -0.1812324055
C   C21       1.0  0.67390  0.43630  0.47360  1.0000 0.5404534063
C   C22       1.0  0.32610  0.93630  0.02640  1.0000 0.5404534063
C   C23       1.0  0.32610  0.56370  0.52640  1.0000 0.5404534063
C   C24       1.0  0.67390  0.06370  0.97360  1.0000 0.5404534063
C   C25       1.0  0.21390  0.47620  0.31510  1.0000 0.5779934846
C   C26       1.0  0.78610  0.97620  0.18490  1.0000 0.5779934846
C   C27       1.0  0.78610  0.52380  0.68490  1.0000 0.5779934846
C   C28       1.0  0.21390  0.02380  0.81510  1.0000 0.5779934846
C   C29       1.0  0.55650  0.44860  0.43480  1.0000 -0.0485156059
C   C30       1.0  0.44350  0.94860  0.06520  1.0000 -0.0485156059
C   C31       1.0  0.44350  0.55140  0.56520  1.0000 -0.0485156059
C   C32       1.0  0.55650  0.05140  0.93480  1.0000 -0.0485156059
C   C33       1.0  0.50970  0.52690  0.40850  1.0000 -0.1094960492
C   C34       1.0  0.49030  0.02690  0.09150  1.0000 -0.1094960492
C   C35       1.0  0.49030  0.47310  0.59150  1.0000 -0.1094960492
C   C36       1.0  0.50970  0.97310  0.90850  1.0000 -0.1094960492
C   C37       1.0  0.39950  0.53320  0.37200  1.0000 -0.1151523866
C   C38       1.0  0.60050  0.03320  0.12800  1.0000 -0.1151523866
C   C39       1.0  0.60050  0.46680  0.62800  1.0000 -0.1151523866
C   C40       1.0  0.39950  0.96680  0.87200  1.0000 -0.1151523866
C   C41       1.0  0.19570  0.15310  0.36750  1.0000 -0.0833718233
C   C42       1.0  0.80430  0.65310  0.13250  1.0000 -0.0833718233
C   C43       1.0  0.80430  0.84690  0.63250  1.0000 -0.0833718233
C   C44       1.0  0.19570  0.34690  0.86750  1.0000 -0.0833718233
C   C45       1.0  0.06980  0.23250  0.41580  1.0000 0.0367750091
C   C46       1.0  0.93020  0.73250  0.08420  1.0000 0.0367750091
C   C47       1.0  0.93020  0.76750  0.58420  1.0000 0.0367750091
C   C48       1.0  0.06980  0.26750  0.91580  1.0000 0.0367750091
C   C49       1.0  0.13040  0.07310  0.34960  1.0000 0.5684556387
C   C50       1.0  0.86960  0.57310  0.15040  1.0000 0.5684556387
C   C51       1.0  0.86960  0.92690  0.65040  1.0000 0.5684556387
C   C52       1.0  0.13040  0.42690  0.84960  1.0000 0.5684556387
C   C53       1.0  0.16250  0.22810  0.39150  1.0000 0.0566720836
C   C54       1.0  0.83750  0.72810  0.10850  1.0000 0.0566720836
C   C55       1.0  0.83750  0.77190  0.60850  1.0000 0.0566720836
C   C56       1.0  0.16250  0.27190  0.89150  1.0000 0.0566720836
C   C57       1.0  0.28950  0.15400  0.35410  1.0000 -0.1094960492
C   C58       1.0  0.71050  0.65400  0.14590  1.0000 -0.1094960492
C   C59       1.0  0.71050  0.84600  0.64590  1.0000 -0.1094960492
C   C60       1.0  0.28950  0.34600  0.85410  1.0000 -0.1094960492
C   C61       1.0  0.97810  0.34140  0.31720  1.0000 0.5636519067
C   C62       1.0  0.02190  0.84140  0.18280  1.0000 0.5636519067
C   C63       1.0  0.02190  0.65860  0.68280  1.0000 0.5636519067
C   C64       1.0  0.97810  0.15860  0.81720  1.0000 0.5636519067
C   C65       1.0  0.98940  0.29370  0.38640  1.0000 -0.068876974
C   C66       1.0  0.01060  0.79370  0.11360  1.0000 -0.068876974
C   C67       1.0  0.01060  0.70630  0.61360  1.0000 -0.068876974
C   C68       1.0  0.98940  0.20630  0.88640  1.0000 -0.068876974
C   C69       1.0  0.11550  0.20650  0.18740  1.0000 0.296309816
C   C70       1.0  0.88450  0.70650  0.31260  1.0000 0.296309816
C   C71       1.0  0.88450  0.79350  0.81260  1.0000 0.296309816
C   C72       1.0  0.11550  0.29350  0.68740  1.0000 0.296309816
C   C73       1.0  0.26720  0.27270  0.17070  1.0000 -0.3317818024
C   C74       1.0  0.73280  0.77270  0.32930  1.0000 -0.3317818024
C   C75       1.0  0.73280  0.72730  0.82930  1.0000 -0.3317818024
C   C76       1.0  0.26720  0.22730  0.67070  1.0000 -0.3317818024
C   C77       1.0  0.18720  0.13520  0.10860  1.0000 -0.3185177125
C   C78       1.0  0.81280  0.63520  0.39140  1.0000 -0.3185177125
C   C79       1.0  0.81280  0.86480  0.89140  1.0000 -0.3185177125
C   C80       1.0  0.18720  0.36480  0.60860  1.0000 -0.3185177125
C   C81       1.0  0.06970  0.18210  0.47500  1.0000 -0.1582266816
C   C82       1.0  0.93030  0.68210  0.02500  1.0000 -0.1582266816
C   C83       1.0  0.93030  0.81790  0.52500  1.0000 -0.1582266816
C   C84       1.0  0.06970  0.31790  0.97500  1.0000 -0.1582266816
C   C85       1.0  0.91650  0.25860  0.47750  1.0000 -0.1094960492
C   C86       1.0  0.08350  0.75860  0.02250  1.0000 -0.1094960492
C   C87       1.0  0.08350  0.74140  0.52250  1.0000 -0.1094960492
C   C88       1.0  0.91650  0.24140  0.97750  1.0000 -0.1094960492
C   C89       1.0  0.91410  0.30740  0.41810  1.0000 -0.1094960492
C   C90       1.0  0.08590  0.80740  0.08190  1.0000 -0.1094960492
C   C91       1.0  0.08590  0.69260  0.58190  1.0000 -0.1094960492
C   C92       1.0  0.91410  0.19260  0.91810  1.0000 -0.1094960492
C   C93       1.0  0.99300  0.19470  0.50470  1.0000 -0.0213626071
C   C94       1.0  0.00700  0.69470  0.99530  1.0000 -0.0213626071
C   C95       1.0  0.00700  0.80530  0.49530  1.0000 -0.0213626071
C   C96       1.0  0.99300  0.30530  0.00470  1.0000 -0.0213626071
C   C97       1.0  0.80710  0.10960  0.33650  1.0000 0.2948053799
C   C98       1.0  0.19290  0.60960  0.16350  1.0000 0.2948053799
C   C99       1.0  0.19290  0.89040  0.66350  1.0000 0.2948053799
C   C100      1.0  0.80710  0.39040  0.83650  1.0000 0.2948053799
C   C101      1.0  0.99530  0.14060  0.56960  1.0000 0.5335798584
C   C102      1.0  0.00470  0.64060  0.93040  1.0000 0.5335798584
C   C103      1.0  0.00470  0.85940  0.43040  1.0000 0.5335798584
C   C104      1.0  0.99530  0.35940  0.06960  1.0000 0.5335798584
C   C105      1.0  0.76020  0.04850  0.43420  1.0000 -0.3361664988
C   C106      1.0  0.23980  0.54850  0.06580  1.0000 -0.3361664988
C   C107      1.0  0.23980  0.95150  0.56580  1.0000 -0.3361664988
C   C108      1.0  0.76020  0.45150  0.93420  1.0000 -0.3361664988
C   C109      1.0  0.65380  0.16810  0.35200  1.0000 -0.3066543021
C   C110      1.0  0.34620  0.66810  0.14800  1.0000 -0.3066543021
C   C111      1.0  0.34620  0.83190  0.64800  1.0000 -0.3066543021
C   C112      1.0  0.65380  0.33190  0.85200  1.0000 -0.3066543021
C   C113      1.0  0.34800  0.22770  0.36050  1.0000 -0.1582266816
C   C114      1.0  0.65200  0.72770  0.13950  1.0000 -0.1582266816
C   C115      1.0  0.65200  0.77230  0.63950  1.0000 -0.1582266816
C   C116      1.0  0.34800  0.27230  0.86050  1.0000 -0.1582266816
N   N1        1.0  0.18660  0.20500  0.15720  1.0000 0.0230173975
N   N2        1.0  0.81340  0.70500  0.34280  1.0000 0.0230173975
N   N3        1.0  0.81340  0.79500  0.84280  1.0000 0.0230173975
N   N4        1.0  0.18660  0.29500  0.65720  1.0000 0.0230173975
N   N5        1.0  0.73920  0.10680  0.36940  1.0000 0.0367750091
N   N6        1.0  0.26080  0.60680  0.13060  1.0000 0.0367750091
N   N7        1.0  0.26080  0.89320  0.63060  1.0000 0.0367750091
N   N8        1.0  0.73920  0.39320  0.86940  1.0000 0.0367750091
O   O1        1.0  0.73100  0.50580  0.48340  1.0000 -0.4307543465
O   O2        1.0  0.26900  0.00580  0.01660  1.0000 -0.4307543465
O   O3        1.0  0.26900  0.49420  0.51660  1.0000 -0.4307543465
O   O4        1.0  0.73100  0.99420  0.98340  1.0000 -0.4307543465
O   O5        1.0  0.71350  0.36680  0.49450  1.0000 -0.521739965
O   O6        1.0  0.28650  0.86680  0.00550  1.0000 -0.521739965
O   O7        1.0  0.28650  0.63320  0.50550  1.0000 -0.521739965
O   O8        1.0  0.71350  0.13320  0.99450  1.0000 -0.521739965
O   O9        1.0  0.02766  0.07801  0.32256  1.0000 -0.5983931252
O   O10       1.0  0.97234  0.57801  0.17744  1.0000 -0.5983931252
O   O11       1.0  0.97234  0.92199  0.67744  1.0000 -0.5983931252
O   O12       1.0  0.02766  0.42199  0.82256  1.0000 -0.5983931252
O   O13       1.0  0.17620  0.00324  0.35790  1.0000 -0.4877984353
O   O14       1.0  0.82380  0.50324  0.14210  1.0000 -0.4877984353
O   O15       1.0  0.82380  0.99676  0.64210  1.0000 -0.4877984353
O   O16       1.0  0.17620  0.49676  0.85790  1.0000 -0.4877984353
O   O17       1.0  0.04570  0.15200  0.17800  1.0000 -0.4606224277
O   O18       1.0  0.95430  0.65200  0.32200  1.0000 -0.4606224277
O   O19       1.0  0.95430  0.84800  0.82200  1.0000 -0.4606224277
O   O20       1.0  0.04570  0.34800  0.67800  1.0000 -0.4606224277
O   O21       1.0  0.97175  0.42069  0.31565  1.0000 -0.506290523
O   O22       1.0  0.02825  0.92069  0.18435  1.0000 -0.506290523
O   O23       1.0  0.02825  0.57931  0.68435  1.0000 -0.506290523
O   O24       1.0  0.97175  0.07931  0.81565  1.0000 -0.506290523
O   O25       1.0  0.97458  0.29837  0.26148  1.0000 -0.5912429668
O   O26       1.0  0.02542  0.79837  0.23852  1.0000 -0.5912429668
O   O27       1.0  0.02542  0.70163  0.73852  1.0000 -0.5912429668
O   O28       1.0  0.97458  0.20163  0.76148  1.0000 -0.5912429668
O   O29       1.0  0.16865  0.42360  0.26425  1.0000 -0.5503977515
O   O30       1.0  0.83135  0.92360  0.23575  1.0000 -0.5503977515
O   O31       1.0  0.83135  0.57640  0.73575  1.0000 -0.5503977515
O   O32       1.0  0.16865  0.07640  0.76425  1.0000 -0.5503977515
O   O33       1.0  0.17091  0.53980  0.33051  1.0000 -0.5912429668
O   O34       1.0  0.82909  0.03980  0.16949  1.0000 -0.5912429668
O   O35       1.0  0.82909  0.46020  0.66949  1.0000 -0.5912429668
O   O36       1.0  0.17091  0.96020  0.83051  1.0000 -0.5912429668
O   O37       1.0  0.79960  0.15900  0.28570  1.0000 -0.4691041388
O   O38       1.0  0.20040  0.65900  0.21430  1.0000 -0.4691041388
O   O39       1.0  0.20040  0.84100  0.71430  1.0000 -0.4691041388
O   O40       1.0  0.79960  0.34100  0.78570  1.0000 -0.4691041388
O   O41       1.0  0.80336  0.22370  0.12426  1.0000 -0.701109735
O   O42       1.0  0.19664  0.72370  0.37574  1.0000 -0.701109735
O   O43       1.0  0.19664  0.77630  0.87574  1.0000 -0.701109735
O   O44       1.0  0.80336  0.27630  0.62426  1.0000 -0.701109735
O   O45       1.0  0.93039  0.15920  0.59929  1.0000 -0.5503977515
O   O46       1.0  0.06961  0.65920  0.90071  1.0000 -0.5503977515
O   O47       1.0  0.06961  0.84080  0.40071  1.0000 -0.5503977515
O   O48       1.0  0.93039  0.34080  0.09929  1.0000 -0.5503977515
O   O49       1.0  0.06010  0.08190  0.59180  1.0000 -0.521739965
O   O50       1.0  0.93990  0.58190  0.90820  1.0000 -0.521739965
O   O51       1.0  0.93990  0.91810  0.40820  1.0000 -0.521739965
O   O52       1.0  0.06010  0.41810  0.09180  1.0000 -0.521739965
