# DDEC6 charges by PACMAN v1.1 (https://github.com/mtap-research/PACMAN-charge/)
data_2023[Cu][sql]2[FSR]3
_chemical_formula_sum              "Cu4 H120 C152 N16 O28"
_cell_length_a       11.0875
_cell_length_b       15.5828
_cell_length_c       30.1736
_cell_angle_alpha    75.473
_cell_angle_beta     84.941
_cell_angle_gamma    70.676

_symmetry_space_group_name_H-M    "P 1"
_symmetry_Int_Tables_number       1

loop_
  _symmetry_equiv_pos_as_xyz
  'x, y, z'

loop_
  _atom_site_type_symbol
  _atom_site_label
  _atom_site_symmetry_multiplicity
  _atom_site_fract_x
  _atom_site_fract_y
  _atom_site_fract_z
  _atom_site_occupancy
  _atom_site_charge
Cu  Cu1       1.0  0.25414  0.50771  0.24958  1.0000 0.7510954659
Cu  Cu2       1.0  0.23912  0.50920  0.74889  1.0000 0.7510954659
Cu  Cu3       1.0  0.74586  0.49229  0.75042  1.0000 0.7510954659
Cu  Cu4       1.0  0.76088  0.49080  0.25111  1.0000 0.7510954659
H   H1        1.0  0.47697  0.55779  0.22437  1.0000 0.3736634772
H   H2        1.0  0.44795  0.57109  0.26963  1.0000 0.3736634772
H   H3        1.0  0.97348  0.56276  0.76502  1.0000 0.3506566804
H   H4        1.0  0.98536  0.56714  0.71834  1.0000 0.3506566804
H   H5        1.0  0.67507  0.87815  0.31419  1.0000 0.2695835154
H   H6        1.0  0.76476  0.11531  0.18180  1.0000 0.2631474432
H   H7        1.0  0.20247  0.11842  0.93687  1.0000 0.2631474432
H   H8        1.0  0.43993  0.57337  0.68642  1.0000 0.1110398927
H   H9        1.0  0.39714  0.46386  0.38308  1.0000 0.1195313832
H   H10       1.0  0.46686  0.42776  0.19289  1.0000 0.1110398927
H   H11       1.0  0.10270  0.37075  0.42085  1.0000 0.1195313832
H   H12       1.0  0.13723  0.36223  0.49689  1.0000 0.1195313832
H   H13       1.0  0.13632  0.47200  0.62289  1.0000 0.1300897222
H   H14       1.0  0.00419  0.56687  0.30081  1.0000 0.1110398927
H   H15       1.0  0.35180  0.87854  0.57708  1.0000 0.2695835154
H   H16       1.0  0.42686  0.46090  0.45869  1.0000 0.1195313832
H   H17       1.0  0.48698  0.37320  0.53403  1.0000 0.1195313832
H   H18       1.0  0.29253  0.30051  0.29121  1.0000 0.1195313832
H   H19       1.0  0.47280  0.71002  0.64880  1.0000 0.1397084384
H   H20       1.0  0.11280  0.45964  0.55056  1.0000 0.1195313832
H   H21       1.0  0.17341  0.70833  0.20735  1.0000 0.1195313832
H   H22       1.0  0.60567  0.29085  0.18305  1.0000 0.1300897222
H   H23       1.0  0.84398  0.70115  0.30707  1.0000 0.1300897222
H   H24       1.0  0.33651  0.63866  0.02581  1.0000 0.1195313832
H   H25       1.0  0.39186  0.30215  0.75934  1.0000 0.1195313832
H   H26       1.0  0.31705  0.61234  0.10437  1.0000 0.1397084384
H   H27       1.0  0.12052  0.71030  0.73932  1.0000 0.1195313832
H   H28       1.0  0.01744  0.84629  0.21279  1.0000 0.1397084384
H   H29       1.0  0.51316  0.38267  0.60795  1.0000 0.1195313832
H   H30       1.0  0.42467  0.15931  0.28263  1.0000 0.1397084384
H   H31       1.0  0.09097  0.43241  0.82343  1.0000 0.1110398927
H   H32       1.0  0.08744  0.59466  0.87386  1.0000 0.1300897222
H   H33       1.0  0.57878  0.06715  0.23412  1.0000 0.1195313832
H   H34       1.0  0.68915  0.09078  0.25232  1.0000 0.1110398927
H   H35       1.0  0.04408  0.62874  0.94486  1.0000 0.1195313832
H   H36       1.0  0.37457  0.90714  0.66093  1.0000 0.1195313832
H   H37       1.0  0.24297  0.93522  0.63683  1.0000 0.1195313832
H   H38       1.0  0.46151  0.51510  0.89783  1.0000 0.1195313832
H   H39       1.0  0.39301  0.16164  0.80495  1.0000 0.1397084384
H   H40       1.0  0.08101  0.29452  0.86905  1.0000 0.1300897222
H   H41       1.0  0.74897  0.89272  0.24186  1.0000 0.1043907326
H   H42       1.0  0.85094  0.92997  0.25637  1.0000 0.1110398927
H   H43       1.0  0.05137  0.53578  0.02229  1.0000 0.1110398927
H   H44       1.0  0.04141  0.50733  0.10186  1.0000 0.1195313832
H   H45       1.0  0.14396  0.84897  0.69937  1.0000 0.1397084384
H   H46       1.0  0.41620  0.55013  0.96746  1.0000 0.1195313832
H   H47       1.0  0.85117  0.13721  0.11615  1.0000 0.1195313832
H   H48       1.0  0.31636  0.07544  0.87659  1.0000 0.1110398927
H   H49       1.0  0.18886  0.09159  0.85241  1.0000 0.1110398927
H   H50       1.0  0.55010  0.09875  0.07252  1.0000 0.1195313832
H   H51       1.0  0.63639  0.10281  0.00157  1.0000 0.1300897222
H   H52       1.0  0.81723  0.11345  0.94722  1.0000 0.1300897222
H   H53       1.0  0.11366  0.15708  0.99288  1.0000 0.1110398927
H   H54       1.0  0.01536  0.16078  0.06439  1.0000 0.1195313832
H   H55       1.0  0.60703  0.83316  0.37755  1.0000 0.1110398927
H   H56       1.0  0.49667  0.82661  0.44731  1.0000 0.1195313832
H   H57       1.0  0.88175  0.89868  0.42280  1.0000 0.1195313832
H   H58       1.0  0.70292  0.91836  0.56486  1.0000 0.1195313832
H   H59       1.0  0.44237  0.85321  0.51113  1.0000 0.1195313832
H   H60       1.0  0.84066  0.92901  0.50632  1.0000 0.1195313832
H   H61       1.0  0.52303  0.44221  0.77563  1.0000 0.3736634772
H   H62       1.0  0.55205  0.42891  0.73037  1.0000 0.3736634772
H   H63       1.0  0.02652  0.43724  0.23498  1.0000 0.3506566804
H   H64       1.0  0.01464  0.43286  0.28166  1.0000 0.3506566804
H   H65       1.0  0.32493  0.12185  0.68581  1.0000 0.2695835154
H   H66       1.0  0.23524  0.88469  0.81820  1.0000 0.2631474432
H   H67       1.0  0.79753  0.88158  0.06313  1.0000 0.2631474432
H   H68       1.0  0.56007  0.42663  0.31358  1.0000 0.1110398927
H   H69       1.0  0.60286  0.53614  0.61692  1.0000 0.1195313832
H   H70       1.0  0.53314  0.57224  0.80711  1.0000 0.1110398927
H   H71       1.0  0.89730  0.62925  0.57915  1.0000 0.1195313832
H   H72       1.0  0.86277  0.63777  0.50311  1.0000 0.1195313832
H   H73       1.0  0.86368  0.52800  0.37711  1.0000 0.1300897222
H   H74       1.0  0.99581  0.43313  0.69919  1.0000 0.1110398927
H   H75       1.0  0.64820  0.12146  0.42292  1.0000 0.2695835154
H   H76       1.0  0.57314  0.53910  0.54131  1.0000 0.1195313832
H   H77       1.0  0.51302  0.62680  0.46597  1.0000 0.1195313832
H   H78       1.0  0.70747  0.69949  0.70879  1.0000 0.1195313832
H   H79       1.0  0.52720  0.28998  0.35120  1.0000 0.1397084384
H   H80       1.0  0.88720  0.54036  0.44944  1.0000 0.1195313832
H   H81       1.0  0.82659  0.29167  0.79265  1.0000 0.1195313832
H   H82       1.0  0.39433  0.70915  0.81695  1.0000 0.1300897222
H   H83       1.0  0.15602  0.29885  0.69293  1.0000 0.1300897222
H   H84       1.0  0.66349  0.36134  0.97419  1.0000 0.1195313832
H   H85       1.0  0.60814  0.69785  0.24066  1.0000 0.1195313832
H   H86       1.0  0.68295  0.38766  0.89563  1.0000 0.1397084384
H   H87       1.0  0.87948  0.28970  0.26068  1.0000 0.1195313832
H   H88       1.0  0.98256  0.15371  0.78721  1.0000 0.1397084384
H   H89       1.0  0.48684  0.61733  0.39205  1.0000 0.1195313832
H   H90       1.0  0.57533  0.84069  0.71737  1.0000 0.1397084384
H   H91       1.0  0.90903  0.56759  0.17657  1.0000 0.1110398927
H   H92       1.0  0.91256  0.40534  0.12614  1.0000 0.1300897222
H   H93       1.0  0.42122  0.93285  0.76588  1.0000 0.1195313832
H   H94       1.0  0.31085  0.90922  0.74768  1.0000 0.1110398927
H   H95       1.0  0.95592  0.37126  0.05514  1.0000 0.1195313832
H   H96       1.0  0.62543  0.09286  0.33907  1.0000 0.1195313832
H   H97       1.0  0.75703  0.06478  0.36317  1.0000 0.1195313832
H   H98       1.0  0.53849  0.48490  0.10217  1.0000 0.1195313832
H   H99       1.0  0.60699  0.83836  0.19505  1.0000 0.1397084384
H   H100      1.0  0.91899  0.70548  0.13095  1.0000 0.1300897222
H   H101      1.0  0.25103  0.10728  0.75814  1.0000 0.1043907326
H   H102      1.0  0.14906  0.07003  0.74363  1.0000 0.1110398927
H   H103      1.0  0.94863  0.46422  0.97771  1.0000 0.1110398927
H   H104      1.0  0.95859  0.49267  0.89814  1.0000 0.1195313832
H   H105      1.0  0.85604  0.15103  0.30063  1.0000 0.1397084384
H   H106      1.0  0.58380  0.44987  0.03254  1.0000 0.1195313832
H   H107      1.0  0.14883  0.86279  0.88385  1.0000 0.1195313832
H   H108      1.0  0.68364  0.92456  0.12341  1.0000 0.1110398927
H   H109      1.0  0.81114  0.90841  0.14759  1.0000 0.1110398927
H   H110      1.0  0.44990  0.90125  0.92748  1.0000 0.1195313832
H   H111      1.0  0.36361  0.89719  0.99843  1.0000 0.1300897222
H   H112      1.0  0.18277  0.88655  0.05278  1.0000 0.1300897222
H   H113      1.0  0.88634  0.84292  0.00712  1.0000 0.1110398927
H   H114      1.0  0.98464  0.83922  0.93561  1.0000 0.1195313832
H   H115      1.0  0.39297  0.16684  0.62245  1.0000 0.1110398927
H   H116      1.0  0.50333  0.17339  0.55269  1.0000 0.1195313832
H   H117      1.0  0.11825  0.10132  0.57720  1.0000 0.1195313832
H   H118      1.0  0.29708  0.08164  0.43514  1.0000 0.1195313832
H   H119      1.0  0.55763  0.14679  0.48887  1.0000 0.1195313832
H   H120      1.0  0.15934  0.07099  0.49368  1.0000 0.1195313832
C   C1        1.0  0.24360  0.42090  0.39410  1.0000 -0.0481644128
C   C2        1.0  0.37950  0.62960  0.68940  1.0000 0.0881662468
C   C3        1.0  0.34210  0.44540  0.40570  1.0000 -0.0923077226
C   C4        1.0  0.28290  0.41400  0.48590  1.0000 0.0795400377
C   C5        1.0  0.18190  0.55210  0.11060  1.0000 -0.0190858742
C   C6        1.0  0.32660  0.42840  0.62330  1.0000 -0.0296293352
C   C7        1.0  0.45900  0.37240  0.21150  1.0000 0.0881662468
C   C8        1.0  0.34430  0.43650  0.67070  1.0000 0.5478244644
C   C9        1.0  0.21500  0.43080  0.34650  1.0000 0.5478244644
C   C10       1.0  0.28020  0.54740  0.87810  1.0000 -0.0481644128
C   C11       1.0  0.16830  0.38950  0.42810  1.0000 -0.0923077226
C   C12       1.0  0.18860  0.38510  0.47410  1.0000 -0.1506817664
C   C13       1.0  0.20850  0.45170  0.60530  1.0000 -0.0923077226
C   C14       1.0  0.00880  0.62380  0.28300  1.0000 0.070383494
C   C15       1.0  0.30540  0.52030  0.83420  1.0000 0.5393527668
C   C16       1.0  0.36050  0.44270  0.45150  1.0000 -0.1622707669
C   C17       1.0  0.41520  0.39430  0.55160  1.0000 -0.1506817664
C   C18       1.0  0.35620  0.29820  0.26890  1.0000 0.0881662468
C   C19       1.0  0.29880  0.41940  0.53360  1.0000 0.0795400377
C   C20       1.0  0.39860  0.71190  0.66600  1.0000 -0.1905643124
C   C21       1.0  0.91610  0.78970  0.26190  1.0000 0.1300897222
C   C22       1.0  0.19450  0.44570  0.56160  1.0000 -0.1506817664
C   C23       1.0  0.10800  0.70610  0.22870  1.0000 0.1110398927
C   C24       1.0  0.54210  0.29090  0.20530  1.0000 -0.1905643124
C   C25       1.0  0.91200  0.70470  0.28710  1.0000 -0.1823058147
C   C26       1.0  0.23590  0.21140  0.84200  1.0000 0.1397084384
C   C27       1.0  0.20360  0.58140  0.01540  1.0000 0.0795400377
C   C28       1.0  0.27850  0.60950  0.04090  1.0000 -0.1506817664
C   C29       1.0  0.53270  0.20590  0.23270  1.0000 0.1397084384
C   C30       1.0  0.32900  0.30050  0.78180  1.0000 0.070383494
C   C31       1.0  0.22710  0.57910  0.96670  1.0000 0.0795400377
C   C32       1.0  0.17800  0.52340  0.16220  1.0000 0.5478244644
C   C33       1.0  0.26660  0.59390  0.08800  1.0000 -0.0979365114
C   C34       1.0  0.79910  0.12090  0.01660  1.0000 0.070383494
C   C35       1.0  0.19090  0.71010  0.72010  1.0000 0.0795400377
C   C36       1.0  0.01340  0.79010  0.23170  1.0000 -0.1823058147
C   C37       1.0  0.30990  0.79690  0.66770  1.0000 0.1300897222
C   C38       1.0  0.43140  0.39920  0.59650  1.0000 -0.1056305248
C   C39       1.0  0.43630  0.21340  0.26400  1.0000 -0.1823058147
C   C40       1.0  0.15140  0.37710  0.81930  1.0000 0.0881662468
C   C41       1.0  0.15470  0.58300  0.89320  1.0000 -0.0979365114
C   C42       1.0  0.62500  0.11200  0.22870  1.0000 -0.1229556877
C   C43       1.0  0.62770  0.11030  0.14930  1.0000 0.4400365796
C   C44       1.0  0.12810  0.60150  0.93630  1.0000 -0.1622707669
C   C45       1.0  0.32640  0.88790  0.64210  1.0000 -0.1372876519
C   C46       1.0  0.04160  0.12620  0.91710  1.0000 0.4400365796
C   C47       1.0  0.37680  0.53580  0.90720  1.0000 -0.0923077226
C   C48       1.0  0.32980  0.21600  0.80880  1.0000 -0.2020619739
C   C49       1.0  0.69290  0.12060  0.10160  1.0000 -0.0190858742
C   C50       1.0  0.14520  0.29480  0.84700  1.0000 -0.1823058147
C   C51       1.0  0.81400  0.87960  0.26430  1.0000 -0.1289115378
C   C52       1.0  0.86610  0.13620  0.04870  1.0000 0.070383494
C   C53       1.0  0.10950  0.54790  0.03820  1.0000 -0.1506817664
C   C54       1.0  0.10290  0.53230  0.08630  1.0000 -0.1056305248
C   C55       1.0  0.20560  0.79330  0.69630  1.0000 -0.2020619739
C   C56       1.0  0.34940  0.55440  0.94960  1.0000 -0.1506817664
C   C57       1.0  0.80760  0.13190  0.09250  1.0000 -0.1823058147
C   C58       1.0  0.22980  0.11760  0.87040  1.0000 -0.1289115378
C   C59       1.0  0.62910  0.10810  0.06650  1.0000 -0.1289115378
C   C60       1.0  0.68010  0.10950  0.02480  1.0000 -0.1372876519
C   C61       1.0  0.85910  0.12070  0.97070  1.0000 -0.1506817664
C   C62       1.0  0.97610  0.13130  0.96380  1.0000 -0.0083828274
C   C63       1.0  0.81680  0.87670  0.34460  1.0000 0.4400365796
C   C64       1.0  0.03460  0.14760  0.99830  1.0000 -0.1661245752
C   C65       1.0  0.97590  0.14970  0.04140  1.0000 -0.1229556877
C   C66       1.0  0.50660  0.88760  0.59290  1.0000 0.4400365796
C   C67       1.0  0.64080  0.84690  0.40110  1.0000 -0.1372876519
C   C68       1.0  0.57100  0.84300  0.44350  1.0000 -0.1622707669
C   C69       1.0  0.61580  0.86310  0.47600  1.0000 0.070383494
C   C70       1.0  0.73280  0.88350  0.46990  1.0000 0.050304094
C   C71       1.0  0.80470  0.88600  0.42640  1.0000 -0.1622707669
C   C72       1.0  0.75240  0.86870  0.39140  1.0000 -0.036613366
C   C73       1.0  0.68060  0.90410  0.53920  1.0000 -0.1229556877
C   C74       1.0  0.56590  0.88300  0.54760  1.0000 -0.0683323707
C   C75       1.0  0.51980  0.86380  0.51210  1.0000 -0.2055914704
C   C76       1.0  0.76950  0.91040  0.50550  1.0000 -0.1622707669
C   C77       1.0  0.75640  0.57910  0.60590  1.0000 -0.0481644128
C   C78       1.0  0.62050  0.37040  0.31060  1.0000 0.0881662468
C   C79       1.0  0.65790  0.55460  0.59430  1.0000 -0.0923077226
C   C80       1.0  0.71710  0.58600  0.51410  1.0000 0.0795400377
C   C81       1.0  0.81810  0.44790  0.88940  1.0000 -0.0190858742
C   C82       1.0  0.67340  0.57160  0.37670  1.0000 -0.0296293352
C   C83       1.0  0.54100  0.62760  0.78850  1.0000 0.0881662468
C   C84       1.0  0.65570  0.56350  0.32930  1.0000 0.5478244644
C   C85       1.0  0.78500  0.56920  0.65350  1.0000 0.5478244644
C   C86       1.0  0.71980  0.45260  0.12190  1.0000 -0.0481644128
C   C87       1.0  0.83170  0.61050  0.57190  1.0000 -0.0923077226
C   C88       1.0  0.81140  0.61490  0.52590  1.0000 -0.1506817664
C   C89       1.0  0.79150  0.54830  0.39470  1.0000 -0.0923077226
C   C90       1.0  0.99120  0.37620  0.71700  1.0000 0.070383494
C   C91       1.0  0.69460  0.47970  0.16580  1.0000 0.5393527668
C   C92       1.0  0.63950  0.55730  0.54850  1.0000 -0.1622707669
C   C93       1.0  0.58480  0.60570  0.44840  1.0000 -0.1506817664
C   C94       1.0  0.64380  0.70180  0.73110  1.0000 0.0881662468
C   C95       1.0  0.70120  0.58060  0.46640  1.0000 0.0795400377
C   C96       1.0  0.60140  0.28810  0.33400  1.0000 -0.1905643124
C   C97       1.0  0.08390  0.21030  0.73810  1.0000 0.1300897222
C   C98       1.0  0.80550  0.55430  0.43840  1.0000 -0.1506817664
C   C99       1.0  0.89200  0.29390  0.77130  1.0000 0.1110398927
C   C100      1.0  0.45790  0.70910  0.79470  1.0000 -0.1905643124
C   C101      1.0  0.08800  0.29530  0.71290  1.0000 -0.1823058147
C   C102      1.0  0.76410  0.78860  0.15800  1.0000 0.1397084384
C   C103      1.0  0.79640  0.41860  0.98460  1.0000 0.0795400377
C   C104      1.0  0.72150  0.39050  0.95910  1.0000 -0.1506817664
C   C105      1.0  0.46730  0.79410  0.76730  1.0000 0.1397084384
C   C106      1.0  0.67100  0.69950  0.21820  1.0000 0.070383494
C   C107      1.0  0.77290  0.42090  0.03330  1.0000 0.0795400377
C   C108      1.0  0.82200  0.47660  0.83780  1.0000 0.5478244644
C   C109      1.0  0.73340  0.40610  0.91200  1.0000 -0.0979365114
C   C110      1.0  0.20090  0.87910  0.98340  1.0000 0.070383494
C   C111      1.0  0.80910  0.28990  0.27990  1.0000 0.0795400377
C   C112      1.0  0.98660  0.20990  0.76830  1.0000 -0.1823058147
C   C113      1.0  0.69010  0.20310  0.33230  1.0000 0.1397084384
C   C114      1.0  0.56860  0.60080  0.40350  1.0000 -0.1056305248
C   C115      1.0  0.56370  0.78660  0.73600  1.0000 -0.1823058147
C   C116      1.0  0.84860  0.62290  0.18070  1.0000 0.0881662468
C   C117      1.0  0.84530  0.41700  0.10680  1.0000 -0.0979365114
C   C118      1.0  0.37500  0.88800  0.77130  1.0000 -0.1229556877
C   C119      1.0  0.37230  0.88970  0.85070  1.0000 0.4400365796
C   C120      1.0  0.87190  0.39850  0.06370  1.0000 -0.1622707669
C   C121      1.0  0.67360  0.11210  0.35790  1.0000 -0.1372876519
C   C122      1.0  0.95840  0.87380  0.08290  1.0000 0.4400365796
C   C123      1.0  0.62320  0.46420  0.09280  1.0000 -0.0923077226
C   C124      1.0  0.67020  0.78400  0.19120  1.0000 -0.2020619739
C   C125      1.0  0.30710  0.87940  0.89840  1.0000 -0.0190858742
C   C126      1.0  0.85480  0.70520  0.15300  1.0000 -0.1823058147
C   C127      1.0  0.18600  0.12040  0.73570  1.0000 -0.1289115378
C   C128      1.0  0.13390  0.86380  0.95130  1.0000 0.070383494
C   C129      1.0  0.89050  0.45210  0.96180  1.0000 -0.1506817664
C   C130      1.0  0.89710  0.46770  0.91370  1.0000 -0.1056305248
C   C131      1.0  0.79440  0.20670  0.30370  1.0000 -0.2020619739
C   C132      1.0  0.65060  0.44560  0.05040  1.0000 -0.1506817664
C   C133      1.0  0.19240  0.86810  0.90750  1.0000 -0.1823058147
C   C134      1.0  0.77020  0.88240  0.12960  1.0000 -0.1289115378
C   C135      1.0  0.37090  0.89190  0.93350  1.0000 -0.1289115378
C   C136      1.0  0.31990  0.89050  0.97520  1.0000 -0.1372876519
C   C137      1.0  0.14090  0.87930  0.02930  1.0000 -0.1506817664
C   C138      1.0  0.02390  0.86870  0.03620  1.0000 -0.0083828274
C   C139      1.0  0.18320  0.12330  0.65540  1.0000 0.4400365796
C   C140      1.0  0.96540  0.85240  0.00170  1.0000 -0.1661245752
C   C141      1.0  0.02410  0.85030  0.95860  1.0000 -0.1229556877
C   C142      1.0  0.49340  0.11240  0.40710  1.0000 0.4400365796
C   C143      1.0  0.35920  0.15310  0.59890  1.0000 -0.1372876519
C   C144      1.0  0.42900  0.15700  0.55650  1.0000 -0.1622707669
C   C145      1.0  0.38420  0.13690  0.52400  1.0000 0.070383494
C   C146      1.0  0.26720  0.11650  0.53010  1.0000 0.050304094
C   C147      1.0  0.19530  0.11400  0.57360  1.0000 -0.1622707669
C   C148      1.0  0.24760  0.13130  0.60860  1.0000 -0.036613366
C   C149      1.0  0.31940  0.09590  0.46080  1.0000 -0.1229556877
C   C150      1.0  0.43410  0.11700  0.45240  1.0000 -0.0683323707
C   C151      1.0  0.48020  0.13620  0.48790  1.0000 -0.2055914704
C   C152      1.0  0.23050  0.08960  0.49450  1.0000 -0.1622707669
N   N1        1.0  0.27800  0.62720  0.71597  1.0000 -0.2273999829
N   N2        1.0  0.36680  0.37770  0.24258  1.0000 -0.2273999829
N   N3        1.0  0.10940  0.62360  0.25458  1.0000 -0.2273999829
N   N4        1.0  0.24020  0.38250  0.78617  1.0000 -0.2388583798
N   N5        1.0  0.75290  0.87810  0.31030  1.0000 -0.3362002004
N   N6        1.0  0.68800  0.11300  0.18500  1.0000 -0.3684776504
N   N7        1.0  0.16250  0.12050  0.91330  1.0000 -0.3193425018
N   N8        1.0  0.39060  0.88370  0.59920  1.0000 -0.2861036141
N   N9        1.0  0.72200  0.37280  0.28403  1.0000 -0.2273999829
N   N10       1.0  0.63320  0.62230  0.75742  1.0000 -0.2273999829
N   N11       1.0  0.89060  0.37640  0.74542  1.0000 -0.2273999829
N   N12       1.0  0.75980  0.61750  0.21383  1.0000 -0.2388583798
N   N13       1.0  0.24710  0.12190  0.68970  1.0000 -0.3362002004
N   N14       1.0  0.31200  0.88700  0.81500  1.0000 -0.3684776504
N   N15       1.0  0.83750  0.87950  0.08670  1.0000 -0.3193425018
N   N16       1.0  0.60940  0.11630  0.40080  1.0000 -0.2861036141
O   O1        1.0  0.21650  0.55350  0.80535  1.0000 -0.5224530775
O   O2        1.0  0.40840  0.58160  0.24228  1.0000 -0.7369738896
O   O3        1.0  0.24360  0.55280  0.18302  1.0000 -0.5119306523
O   O4        1.0  0.28140  0.46970  0.31542  1.0000 -0.5602325875
O   O5        1.0  0.12760  0.40430  0.33663  1.0000 -0.5505294084
O   O6        1.0  0.01530  0.58340  0.74031  1.0000 -0.7215387899
O   O7        1.0  0.24360  0.47460  0.69146  1.0000 -0.5366880972
O   O8        1.0  0.41340  0.46820  0.82648  1.0000 -0.5505294084
O   O9        1.0  0.45280  0.40720  0.68757  1.0000 -0.5602325875
O   O10       1.0  0.11560  0.47090  0.18065  1.0000 -0.5505294084
O   O11       1.0  0.97870  0.12920  0.88450  1.0000 -0.4810729254
O   O12       1.0  0.52350  0.10270  0.15430  1.0000 -0.4334381003
O   O13       1.0  0.92550  0.88620  0.33870  1.0000 -0.4810729254
O   O14       1.0  0.56460  0.89880  0.62300  1.0000 -0.4850374241
O   O15       1.0  0.78350  0.44650  0.19465  1.0000 -0.5224530775
O   O16       1.0  0.59160  0.41840  0.75772  1.0000 -0.7369738896
O   O17       1.0  0.75640  0.44720  0.81698  1.0000 -0.5119306523
O   O18       1.0  0.71860  0.53030  0.68458  1.0000 -0.5602325875
O   O19       1.0  0.87240  0.59570  0.66337  1.0000 -0.5505294084
O   O20       1.0  0.98470  0.41660  0.25969  1.0000 -0.7215387899
O   O21       1.0  0.75640  0.52540  0.30854  1.0000 -0.5366880972
O   O22       1.0  0.58660  0.53180  0.17352  1.0000 -0.5505294084
O   O23       1.0  0.54720  0.59280  0.31243  1.0000 -0.5602325875
O   O24       1.0  0.88440  0.52910  0.81935  1.0000 -0.5505294084
O   O25       1.0  0.02130  0.87080  0.11550  1.0000 -0.4810729254
O   O26       1.0  0.47650  0.89730  0.84570  1.0000 -0.4334381003
O   O27       1.0  0.07450  0.11380  0.66130  1.0000 -0.4810729254
O   O28       1.0  0.43540  0.10120  0.37700  1.0000 -0.4850374241
