# DDEC6 charges by PACMAN v1.1 (https://github.com/mtap-research/PACMAN-charge/)
data_2023[Ni][sql]2[FSR]3
_chemical_formula_sum              "Ni2 H76 C36 N12 O12"
_cell_length_a       13.0292
_cell_length_b       13.0292
_cell_length_c       11.9842
_cell_angle_alpha    89.2624
_cell_angle_beta     90.7376
_cell_angle_gamma    55.7782

_symmetry_space_group_name_H-M    "P 1"
_symmetry_Int_Tables_number       1

loop_
  _symmetry_equiv_pos_as_xyz
  'x, y, z'

loop_
  _atom_site_type_symbol
  _atom_site_label
  _atom_site_symmetry_multiplicity
  _atom_site_fract_x
  _atom_site_fract_y
  _atom_site_fract_z
  _atom_site_occupancy
  _atom_site_charge
Ni  Ni1       1.0  0.50000  0.00000  0.50000  1.0000 0.8027286862
Ni  Ni2       1.0  0.00000  0.50000  0.00000  1.0000 0.8027286862
H   H1        1.0  0.35593  0.08255  0.13366  1.0000 0.1194217054
H   H2        1.0  0.08255  0.35593  0.36634  1.0000 0.1194217054
H   H3        1.0  0.64407  0.91745  0.86634  1.0000 0.1194217054
H   H4        1.0  0.91745  0.64407  0.63366  1.0000 0.1194217054
H   H5        1.0  0.30051  0.00901  0.18404  1.0000 0.1120771168
H   H6        1.0  0.00901  0.30051  0.31596  1.0000 0.1120771168
H   H7        1.0  0.69949  0.99099  0.81596  1.0000 0.1120771168
H   H8        1.0  0.99099  0.69949  0.68404  1.0000 0.1120771168
H   H9        1.0  0.31711  0.26105  0.36506  1.0000 0.1194217054
H   H10       1.0  0.26105  0.31711  0.13494  1.0000 0.1194217054
H   H11       1.0  0.68289  0.73895  0.63494  1.0000 0.1194217054
H   H12       1.0  0.73895  0.68289  0.86506  1.0000 0.1194217054
H   H13       1.0  0.40912  0.19508  0.26302  1.0000 0.1194217054
H   H14       1.0  0.19508  0.40912  0.23698  1.0000 0.1194217054
H   H15       1.0  0.59088  0.80492  0.73698  1.0000 0.1194217054
H   H16       1.0  0.80492  0.59088  0.76302  1.0000 0.1194217054
H   H17       1.0  0.16904  0.10304  0.34959  1.0000 0.1120771168
H   H18       1.0  0.10304  0.16904  0.15041  1.0000 0.1120771168
H   H19       1.0  0.83096  0.89696  0.65041  1.0000 0.1120771168
H   H20       1.0  0.89696  0.83096  0.84959  1.0000 0.1120771168
H   H21       1.0  0.20807  0.16409  0.44189  1.0000 0.1194217054
H   H22       1.0  0.16409  0.20807  0.05811  1.0000 0.1194217054
H   H23       1.0  0.79193  0.83591  0.55811  1.0000 0.1194217054
H   H24       1.0  0.83591  0.79193  0.94189  1.0000 0.1194217054
H   H25       1.0  0.13737  0.36823  0.60406  1.0000 0.1120771168
H   H26       1.0  0.36823  0.13737  0.89594  1.0000 0.1120771168
H   H27       1.0  0.86262  0.63177  0.39594  1.0000 0.1120771168
H   H28       1.0  0.63178  0.86263  0.10406  1.0000 0.1194217054
H   H29       1.0  0.12419  0.25303  0.60258  1.0000 0.1194217054
H   H30       1.0  0.25303  0.12419  0.89742  1.0000 0.1194217054
H   H31       1.0  0.87581  0.74697  0.39742  1.0000 0.1194217054
H   H32       1.0  0.74697  0.87581  0.10258  1.0000 0.1194217054
H   H33       1.0  0.43696  0.21242  0.72594  1.0000 0.1120771168
H   H34       1.0  0.21242  0.43696  0.77406  1.0000 0.1120771168
H   H35       1.0  0.56304  0.78758  0.27406  1.0000 0.1120771168
H   H36       1.0  0.78758  0.56304  0.22594  1.0000 0.1120771168
H   H37       1.0  0.34749  0.32671  0.64162  1.0000 0.1194217054
H   H38       1.0  0.32671  0.34749  0.85838  1.0000 0.1194217054
H   H39       1.0  0.65251  0.67329  0.35838  1.0000 0.1194217054
H   H40       1.0  0.67329  0.65251  0.14162  1.0000 0.1194217054
H   H41       1.0  0.27566  0.06920  0.71945  1.0000 0.1194217054
H   H42       1.0  0.06920  0.27566  0.78055  1.0000 0.1194217054
H   H43       1.0  0.72434  0.93080  0.28055  1.0000 0.1194217054
H   H44       1.0  0.93080  0.72434  0.21945  1.0000 0.1194217054
H   H45       1.0  0.41431  0.03427  0.73745  1.0000 0.1194217054
H   H46       1.0  0.03427  0.41431  0.76255  1.0000 0.1194217054
H   H47       1.0  0.58569  0.96573  0.26255  1.0000 0.1194217054
H   H48       1.0  0.96573  0.58569  0.23745  1.0000 0.1194217054
H   H49       1.0  0.40881  0.85955  0.41893  1.0000 0.0825661902
H   H50       1.0  0.85955  0.40881  0.08107  1.0000 0.0825661902
H   H51       1.0  0.59119  0.14045  0.58107  1.0000 0.0825661902
H   H52       1.0  0.14045  0.59119  0.91893  1.0000 0.0825661902
H   H53       1.0  0.33371  0.66329  0.44119  1.0000 0.1258845959
H   H54       1.0  0.66329  0.33371  0.05881  1.0000 0.1258845959
H   H55       1.0  0.66629  0.33671  0.55881  1.0000 0.1258845959
H   H56       1.0  0.33671  0.66629  0.94119  1.0000 0.1258845959
H   H57       1.0  0.39452  0.71076  0.35796  1.0000 0.1120771168
H   H58       1.0  0.71076  0.39452  0.14204  1.0000 0.1120771168
H   H59       1.0  0.60548  0.28924  0.64204  1.0000 0.1120771168
H   H60       1.0  0.28924  0.60548  0.85796  1.0000 0.1120771168
H   H61       1.0  0.48131  0.58497  0.42986  1.0000 0.1194217054
H   H62       1.0  0.58497  0.48131  0.07014  1.0000 0.1194217054
H   H63       1.0  0.51869  0.41503  0.57014  1.0000 0.1194217054
H   H64       1.0  0.41503  0.51869  0.92986  1.0000 0.1194217054
H   H65       1.0  0.36993  0.67080  0.64832  1.0000 0.1194217054
H   H66       1.0  0.67081  0.36992  0.85168  1.0000 0.1194217054
H   H67       1.0  0.63008  0.32920  0.35168  1.0000 0.1194217054
H   H68       1.0  0.32919  0.63008  0.14832  1.0000 0.1194217054
H   H69       1.0  0.51467  0.61609  0.64306  1.0000 0.1194217054
H   H70       1.0  0.61609  0.51467  0.85694  1.0000 0.1194217054
H   H71       1.0  0.48533  0.38391  0.35694  1.0000 0.1194217054
H   H72       1.0  0.38391  0.48533  0.14306  1.0000 0.1194217054
H   H73       1.0  0.41889  0.75389  0.68564  1.0000 0.1370150183
H   H74       1.0  0.75389  0.41889  0.81436  1.0000 0.1370150183
H   H75       1.0  0.58111  0.24611  0.31436  1.0000 0.1370150183
H   H76       1.0  0.24611  0.58111  0.18564  1.0000 0.1370150183
C   C1        1.0  0.29199  0.08947  0.18291  1.0000 -0.1822036899
C   C2        1.0  0.08947  0.29199  0.31709  1.0000 -0.1822036899
C   C3        1.0  0.70801  0.91053  0.81709  1.0000 -0.1822036899
C   C4        1.0  0.91053  0.70801  0.68291  1.0000 -0.1822036899
C   C5        1.0  0.32546  0.22558  0.29051  1.0000 -0.1882949009
C   C6        1.0  0.22558  0.32546  0.20949  1.0000 -0.1882949009
C   C7        1.0  0.67454  0.77442  0.70949  1.0000 -0.1882949009
C   C8        1.0  0.77442  0.67454  0.79051  1.0000 -0.1882949009
C   C9        1.0  0.19330  0.16186  0.36099  1.0000 -0.1822036899
C   C10       1.0  0.16186  0.19330  0.13901  1.0000 -0.1822036899
C   C11       1.0  0.80670  0.83814  0.63901  1.0000 -0.1822036899
C   C12       1.0  0.83814  0.80670  0.86099  1.0000 -0.1822036899
C   C13       1.0  0.15877  0.29199  0.64523  1.0000 -0.1822036899
C   C14       1.0  0.29199  0.15877  0.85477  1.0000 -0.1822036899
C   C15       1.0  0.84123  0.70801  0.35477  1.0000 -0.1822036899
C   C16       1.0  0.70801  0.84123  0.14523  1.0000 -0.1822036899
C   C17       1.0  0.34956  0.27192  0.70091  1.0000 -0.1882949009
C   C18       1.0  0.27192  0.34956  0.79909  1.0000 -0.1882949009
C   C19       1.0  0.65044  0.72808  0.29909  1.0000 -0.1882949009
C   C20       1.0  0.72808  0.65044  0.20091  1.0000 -0.1882949009
C   C21       1.0  0.32523  0.10285  0.73879  1.0000 -0.1822036899
C   C22       1.0  0.10285  0.32523  0.76121  1.0000 -0.1822036899
C   C23       1.0  0.67477  0.89715  0.26121  1.0000 -0.1822036899
C   C24       1.0  0.89715  0.67477  0.23879  1.0000 -0.1822036899
C   C25       1.0  0.41917  0.83411  0.49521  1.0000 0.1998710629
C   C26       1.0  0.83411  0.41917  0.00479  1.0000 0.1998710629
C   C27       1.0  0.58083  0.16589  0.50479  1.0000 0.1998710629
C   C28       1.0  0.16589  0.58083  0.99521  1.0000 0.1998710629
C   C29       1.0  0.40490  0.66870  0.42980  1.0000 -0.3755363639
C   C30       1.0  0.66870  0.40490  0.07020  1.0000 -0.3755363639
C   C31       1.0  0.59510  0.33130  0.57020  1.0000 -0.3755363639
C   C32       1.0  0.33130  0.59510  0.92980  1.0000 -0.3755363639
C   C33       1.0  0.43047  0.69107  0.63340  1.0000 -0.3549717631
C   C34       1.0  0.69107  0.43047  0.86660  1.0000 -0.3549717631
C   C35       1.0  0.56953  0.30893  0.36660  1.0000 -0.3549717631
C   C36       1.0  0.30893  0.56953  0.13340  1.0000 -0.3549717631
N   N1        1.0  0.30916  0.12050  0.29851  1.0000 0.3053560738
N   N2        1.0  0.12050  0.30916  0.20149  1.0000 0.3053560738
N   N3        1.0  0.69084  0.87950  0.70149  1.0000 0.3053560738
N   N4        1.0  0.87950  0.69084  0.79851  1.0000 0.3053560738
N   N5        1.0  0.29772  0.20344  0.65653  1.0000 0.297658432
N   N6        1.0  0.20344  0.29772  0.84347  1.0000 0.297658432
N   N7        1.0  0.70228  0.79656  0.34347  1.0000 0.297658432
N   N8        1.0  0.79656  0.70228  0.15653  1.0000 0.297658432
N   N9        1.0  0.41240  0.73926  0.51987  1.0000 0.0246258543
N   N10       1.0  0.73926  0.41240  0.98013  1.0000 0.0254910362
N   N11       1.0  0.58760  0.26074  0.48013  1.0000 0.0246258543
N   N12       1.0  0.26074  0.58760  0.01987  1.0000 0.0246258543
O   O1        1.0  0.41249  0.01521  0.34847  1.0000 -0.5786627795
O   O2        1.0  0.01521  0.41249  0.15153  1.0000 -0.5786627795
O   O3        1.0  0.58751  0.98479  0.65153  1.0000 -0.5786627795
O   O4        1.0  0.98479  0.58751  0.84847  1.0000 -0.5786627795
O   O5        1.0  0.34365  0.16019  0.55110  1.0000 -0.5624469186
O   O6        1.0  0.16019  0.34365  0.94890  1.0000 -0.5624469186
O   O7        1.0  0.65635  0.83981  0.44890  1.0000 -0.5624469186
O   O8        1.0  0.83981  0.65635  0.05110  1.0000 -0.5624469186
O   O9        1.0  0.43790  0.89262  0.56327  1.0000 -0.47339597
O   O10       1.0  0.89262  0.43790  0.93673  1.0000 -0.47339597
O   O11       1.0  0.56210  0.10738  0.43673  1.0000 -0.47339597
O   O12       1.0  0.10738  0.56210  0.06327  1.0000 -0.47339597
