# DDEC6 charges by PACMAN v1.1 (https://github.com/mtap-research/PACMAN-charge/)
data_2023[Mn][sql]2[FSR]1
_chemical_formula_sum              "Mn12 H144 C216 S24 N16 O48"
_cell_length_a       16.4304
_cell_length_b       25.1354
_cell_length_c       23.6457
_cell_angle_alpha    90
_cell_angle_beta     129.125
_cell_angle_gamma    90

_symmetry_space_group_name_H-M    "P 1"
_symmetry_Int_Tables_number       1

loop_
  _symmetry_equiv_pos_as_xyz
  'x, y, z'

loop_
  _atom_site_type_symbol
  _atom_site_label
  _atom_site_symmetry_multiplicity
  _atom_site_fract_x
  _atom_site_fract_y
  _atom_site_fract_z
  _atom_site_occupancy
  _atom_site_charge
Mn  Mn1       1.0  0.16456  0.37116  0.03755  1.0000 0.8613689369
Mn  Mn2       1.0  0.16456  0.12884  0.53755  1.0000 0.8613689369
Mn  Mn3       1.0  0.24790  0.25019  0.00986  1.0000 1.0990133858
Mn  Mn4       1.0  0.24790  0.24981  0.50986  1.0000 1.0990133858
Mn  Mn5       1.0  0.32679  0.12758  0.98012  1.0000 0.8613689369
Mn  Mn6       1.0  0.32679  0.37242  0.48012  1.0000 0.8613689369
Mn  Mn7       1.0  0.83544  0.87116  0.46245  1.0000 0.8613689369
Mn  Mn8       1.0  0.83544  0.62884  0.96245  1.0000 0.8613689369
Mn  Mn9       1.0  0.75210  0.75019  0.49014  1.0000 1.0990133858
Mn  Mn10      1.0  0.75210  0.74981  0.99014  1.0000 1.0990133858
Mn  Mn11      1.0  0.67321  0.62758  0.51988  1.0000 0.8613689369
Mn  Mn12      1.0  0.67321  0.87242  0.01988  1.0000 0.8613689369
H   H1        1.0  0.51180  0.41899  0.23355  1.0000 0.1303859718
H   H2        1.0  0.51180  0.08101  0.73355  1.0000 0.1303859718
H   H3        1.0  0.69943  0.40790  0.33743  1.0000 0.1303859718
H   H4        1.0  0.69943  0.09210  0.83743  1.0000 0.1303859718
H   H5        1.0  0.88857  0.37501  0.41470  1.0000 0.1303859718
H   H6        1.0  0.88857  0.12499  0.91470  1.0000 0.1303859718
H   H7        1.0  0.04692  0.31885  0.48797  1.0000 0.1469827668
H   H8        1.0  0.04692  0.18115  0.98797  1.0000 0.1469827668
H   H9        1.0  0.14430  0.46415  0.85822  1.0000 0.1303859718
H   H10       1.0  0.14430  0.03585  0.35822  1.0000 0.1303859718
H   H11       1.0  0.16975  0.48401  0.76844  1.0000 0.1303859718
H   H12       1.0  0.16975  0.01599  0.26844  1.0000 0.1303859718
H   H13       1.0  0.30646  0.48670  0.74163  1.0000 0.1303859718
H   H14       1.0  0.30646  0.01330  0.24163  1.0000 0.1303859718
H   H15       1.0  0.33200  0.46662  0.65187  1.0000 0.1303859718
H   H16       1.0  0.33200  0.03338  0.15187  1.0000 0.1303859718
H   H17       1.0  0.98598  0.08667  0.77608  1.0000 0.1303859718
H   H18       1.0  0.98598  0.41333  0.27608  1.0000 0.1303859718
H   H19       1.0  0.79791  0.09763  0.67212  1.0000 0.1303859718
H   H20       1.0  0.79791  0.40237  0.17212  1.0000 0.1303859718
H   H21       1.0  0.60760  0.12842  0.59945  1.0000 0.1303859718
H   H22       1.0  0.60760  0.37158  0.09945  1.0000 0.1303859718
H   H23       1.0  0.44819  0.18376  0.52766  1.0000 0.1469827668
H   H24       1.0  0.44819  0.31624  0.02766  1.0000 0.1469827668
H   H25       1.0  0.14066  0.49079  0.98388  1.0000 0.1213524636
H   H26       1.0  0.14066  0.00921  0.48388  1.0000 0.1213524636
H   H27       1.0  0.14537  0.59070  0.11821  1.0000 0.1404521906
H   H28       1.0  0.14537  0.90930  0.61821  1.0000 0.1404521906
H   H29       1.0  0.14370  0.51730  0.17794  1.0000 0.1303859718
H   H30       1.0  0.14370  0.98270  0.67794  1.0000 0.1303859718
H   H31       1.0  0.12303  0.44749  0.21974  1.0000 0.1213524636
H   H32       1.0  0.12303  0.05251  0.71974  1.0000 0.1213524636
H   H33       1.0  0.11568  0.36797  0.26707  1.0000 0.1213524636
H   H34       1.0  0.11568  0.13203  0.76707  1.0000 0.1213524636
H   H35       1.0  0.13350  0.28814  0.12772  1.0000 0.1213524636
H   H36       1.0  0.13350  0.21186  0.62772  1.0000 0.1213524636
H   H37       1.0  0.08335  0.61831  0.98583  1.0000 0.1469827668
H   H38       1.0  0.08335  0.88169  0.48583  1.0000 0.1469827668
H   H39       1.0  0.20828  0.61428  0.03538  1.0000 0.1469827668
H   H40       1.0  0.20828  0.88572  0.53538  1.0000 0.1469827668
H   H41       1.0  0.13496  0.58124  0.96098  1.0000 0.1303859718
H   H42       1.0  0.13496  0.91876  0.46098  1.0000 0.1303859718
H   H43       1.0  0.11708  0.23754  0.20293  1.0000 0.1404521906
H   H44       1.0  0.11708  0.26246  0.70293  1.0000 0.1404521906
H   H45       1.0  0.17501  0.26358  0.28161  1.0000 0.1469827668
H   H46       1.0  0.17501  0.23642  0.78161  1.0000 0.1469827668
H   H47       1.0  0.04979  0.26541  0.22228  1.0000 0.1469827668
H   H48       1.0  0.04979  0.23459  0.72228  1.0000 0.1469827668
H   H49       1.0  0.36974  0.20776  0.89424  1.0000 0.1213524636
H   H50       1.0  0.36974  0.29224  0.39424  1.0000 0.1213524636
H   H51       1.0  0.39545  0.12481  0.76103  1.0000 0.1213524636
H   H52       1.0  0.39545  0.37519  0.26103  1.0000 0.1213524636
H   H53       1.0  0.38799  0.04655  0.81023  1.0000 0.1303859718
H   H54       1.0  0.38799  0.45345  0.31023  1.0000 0.1303859718
H   H55       1.0  0.38976  0.97739  0.86551  1.0000 0.1303859718
H   H56       1.0  0.38976  0.52261  0.36551  1.0000 0.1303859718
H   H57       1.0  0.37777  0.90618  0.92267  1.0000 0.1404521906
H   H58       1.0  0.37777  0.59382  0.42267  1.0000 0.1404521906
H   H59       1.0  0.33018  0.00948  0.02848  1.0000 0.1213524636
H   H60       1.0  0.33018  0.49052  0.52848  1.0000 0.1213524636
H   H61       1.0  0.45548  0.22769  0.79879  1.0000 0.1404521906
H   H62       1.0  0.45548  0.27231  0.29879  1.0000 0.1404521906
H   H63       1.0  0.33012  0.23101  0.74249  1.0000 0.1469827668
H   H64       1.0  0.33012  0.26899  0.24249  1.0000 0.1469827668
H   H65       1.0  0.39379  0.25699  0.82179  1.0000 0.1404521906
H   H66       1.0  0.39379  0.24301  0.32179  1.0000 0.1404521906
H   H67       1.0  0.35944  0.91886  0.06526  1.0000 0.1303859718
H   H68       1.0  0.35944  0.58114  0.56526  1.0000 0.1303859718
H   H69       1.0  0.26953  0.89211  0.98810  1.0000 0.1469827668
H   H70       1.0  0.26953  0.60789  0.48810  1.0000 0.1469827668
H   H71       1.0  0.38988  0.87678  0.03054  1.0000 0.1404521906
H   H72       1.0  0.38988  0.62322  0.53054  1.0000 0.1469827668
H   H73       1.0  0.48820  0.91899  0.26645  1.0000 0.1303859718
H   H74       1.0  0.48820  0.58101  0.76645  1.0000 0.1303859718
H   H75       1.0  0.30057  0.90790  0.16257  1.0000 0.1303859718
H   H76       1.0  0.30057  0.59210  0.66257  1.0000 0.1303859718
H   H77       1.0  0.11143  0.87501  0.08530  1.0000 0.1303859718
H   H78       1.0  0.11143  0.62499  0.58530  1.0000 0.1303859718
H   H79       1.0  0.95308  0.81885  0.01203  1.0000 0.1469827668
H   H80       1.0  0.95308  0.68115  0.51203  1.0000 0.1469827668
H   H81       1.0  0.85570  0.96415  0.64178  1.0000 0.1303859718
H   H82       1.0  0.85570  0.53585  0.14178  1.0000 0.1303859718
H   H83       1.0  0.83025  0.98401  0.73156  1.0000 0.1213524636
H   H84       1.0  0.83025  0.51599  0.23156  1.0000 0.1213524636
H   H85       1.0  0.69354  0.98670  0.75837  1.0000 0.1303859718
H   H86       1.0  0.69354  0.51330  0.25837  1.0000 0.1303859718
H   H87       1.0  0.66800  0.96662  0.84813  1.0000 0.1303859718
H   H88       1.0  0.66800  0.53338  0.34813  1.0000 0.1303859718
H   H89       1.0  0.01402  0.58667  0.72392  1.0000 0.1303859718
H   H90       1.0  0.01402  0.91333  0.22392  1.0000 0.1303859718
H   H91       1.0  0.20209  0.59763  0.82788  1.0000 0.1303859718
H   H92       1.0  0.20209  0.90237  0.32788  1.0000 0.1303859718
H   H93       1.0  0.39240  0.62842  0.90055  1.0000 0.1303859718
H   H94       1.0  0.39240  0.87158  0.40055  1.0000 0.1303859718
H   H95       1.0  0.55181  0.68376  0.97234  1.0000 0.1469827668
H   H96       1.0  0.55181  0.81624  0.47234  1.0000 0.1469827668
H   H97       1.0  0.85934  0.99079  0.51612  1.0000 0.1213524636
H   H98       1.0  0.85934  0.50921  0.01612  1.0000 0.1213524636
H   H99       1.0  0.85463  0.09070  0.38179  1.0000 0.1404521906
H   H100      1.0  0.85463  0.40930  0.88179  1.0000 0.1404521906
H   H101      1.0  0.85630  0.01730  0.32206  1.0000 0.1303859718
H   H102      1.0  0.85630  0.48270  0.82206  1.0000 0.1303859718
H   H103      1.0  0.87697  0.94749  0.28026  1.0000 0.1213524636
H   H104      1.0  0.87697  0.55251  0.78026  1.0000 0.1213524636
H   H105      1.0  0.88432  0.86797  0.23293  1.0000 0.1213524636
H   H106      1.0  0.88432  0.63203  0.73293  1.0000 0.1213524636
H   H107      1.0  0.86650  0.78814  0.37228  1.0000 0.1213524636
H   H108      1.0  0.86650  0.71186  0.87228  1.0000 0.1213524636
H   H109      1.0  0.91665  0.11831  0.51417  1.0000 0.1469827668
H   H110      1.0  0.91665  0.38169  0.01417  1.0000 0.1469827668
H   H111      1.0  0.79172  0.11428  0.46462  1.0000 0.1469827668
H   H112      1.0  0.79172  0.38572  0.96462  1.0000 0.1469827668
H   H113      1.0  0.86504  0.08124  0.53902  1.0000 0.1303859718
H   H114      1.0  0.86504  0.41876  0.03902  1.0000 0.1303859718
H   H115      1.0  0.88292  0.73754  0.29707  1.0000 0.1404521906
H   H116      1.0  0.88292  0.76246  0.79707  1.0000 0.1404521906
H   H117      1.0  0.82499  0.76358  0.21839  1.0000 0.1469827668
H   H118      1.0  0.82499  0.73642  0.71839  1.0000 0.1469827668
H   H119      1.0  0.95021  0.76541  0.27772  1.0000 0.1469827668
H   H120      1.0  0.95021  0.73459  0.77772  1.0000 0.1469827668
H   H121      1.0  0.63026  0.70776  0.60576  1.0000 0.1213524636
H   H122      1.0  0.63026  0.79224  0.10576  1.0000 0.1213524636
H   H123      1.0  0.60455  0.62481  0.73897  1.0000 0.1213524636
H   H124      1.0  0.60455  0.87519  0.23897  1.0000 0.1213524636
H   H125      1.0  0.61201  0.54655  0.68977  1.0000 0.1303859718
H   H126      1.0  0.61201  0.95345  0.18977  1.0000 0.1303859718
H   H127      1.0  0.61024  0.47739  0.63449  1.0000 0.1303859718
H   H128      1.0  0.61024  0.02261  0.13449  1.0000 0.1303859718
H   H129      1.0  0.62223  0.40618  0.57733  1.0000 0.1404521906
H   H130      1.0  0.62223  0.09382  0.07733  1.0000 0.1404521906
H   H131      1.0  0.66982  0.50948  0.47152  1.0000 0.1213524636
H   H132      1.0  0.66982  0.99052  0.97152  1.0000 0.1213524636
H   H133      1.0  0.54452  0.72769  0.70121  1.0000 0.1404521906
H   H134      1.0  0.54452  0.77231  0.20121  1.0000 0.1404521906
H   H135      1.0  0.66988  0.73101  0.75751  1.0000 0.1469827668
H   H136      1.0  0.66988  0.76899  0.25751  1.0000 0.1469827668
H   H137      1.0  0.60621  0.75699  0.67821  1.0000 0.1404521906
H   H138      1.0  0.60621  0.74301  0.17821  1.0000 0.1404521906
H   H139      1.0  0.64056  0.41886  0.43474  1.0000 0.1303859718
H   H140      1.0  0.64056  0.08114  0.93474  1.0000 0.1303859718
H   H141      1.0  0.73047  0.39211  0.51190  1.0000 0.1469827668
H   H142      1.0  0.73047  0.10789  0.01190  1.0000 0.1469827668
H   H143      1.0  0.61012  0.37678  0.46946  1.0000 0.1404521906
H   H144      1.0  0.61012  0.12322  0.96946  1.0000 0.1404521906
C   C1        1.0  0.39131  0.33049  0.14105  1.0000 0.593629328
C   C2        1.0  0.39131  0.16951  0.64105  1.0000 0.593629328
C   C3        1.0  0.50189  0.34028  0.20675  1.0000 -0.1114828918
C   C4        1.0  0.50189  0.15972  0.70675  1.0000 -0.1114828918
C   C5        1.0  0.54825  0.38624  0.24550  1.0000 -0.1182769753
C   C6        1.0  0.54825  0.11376  0.74550  1.0000 -0.1182769753
C   C7        1.0  0.65575  0.37993  0.30502  1.0000 -0.167943933
C   C8        1.0  0.65575  0.12007  0.80502  1.0000 -0.167943933
C   C9        1.0  0.69047  0.32881  0.31102  1.0000 -0.0046429058
C   C10       1.0  0.69047  0.17119  0.81102  1.0000 -0.0046429058
C   C11       1.0  0.79688  0.30844  0.36442  1.0000 -0.0103909901
C   C12       1.0  0.79688  0.19156  0.86442  1.0000 -0.0103909901
C   C13       1.0  0.88717  0.33733  0.41106  1.0000 -0.167943933
C   C14       1.0  0.88717  0.16267  0.91106  1.0000 -0.167943933
C   C15       1.0  0.97802  0.30509  0.45319  1.0000 -0.1023003145
C   C16       1.0  0.97802  0.19491  0.95319  1.0000 -0.1023003145
C   C17       1.0  0.95635  0.25232  0.43866  1.0000 -0.1271028524
C   C18       1.0  0.95635  0.24768  0.93866  1.0000 -0.1271028524
C   C19       1.0  0.02859  0.20688  0.46886  1.0000 0.5716774142
C   C20       1.0  0.02859  0.29312  0.96886  1.0000 0.5716774142
C   C21       1.0  0.20688  0.36527  0.93128  1.0000 0.5990355885
C   C22       1.0  0.20688  0.13473  0.43128  1.0000 0.5990355885
C   C23       1.0  0.20796  0.39034  0.87458  1.0000 -0.1023003145
C   C24       1.0  0.20796  0.10966  0.37458  1.0000 -0.1114828918
C   C25       1.0  0.17431  0.43977  0.84528  1.0000 -0.1182769753
C   C26       1.0  0.17431  0.06023  0.34528  1.0000 -0.1114828918
C   C27       1.0  0.18862  0.45111  0.79365  1.0000 -0.1609694069
C   C28       1.0  0.18862  0.04889  0.29365  1.0000 -0.1609694069
C   C29       1.0  0.23261  0.40968  0.78367  1.0000 -0.0103909901
C   C30       1.0  0.23261  0.09032  0.28367  1.0000 -0.0103909901
C   C31       1.0  0.26001  0.40968  0.73558  1.0000 -0.0103909901
C   C32       1.0  0.26001  0.09032  0.23558  1.0000 -0.0103909901
C   C33       1.0  0.29383  0.45269  0.71994  1.0000 -0.1609694069
C   C34       1.0  0.29383  0.04731  0.21994  1.0000 -0.1609694069
C   C35       1.0  0.30801  0.44122  0.66815  1.0000 -0.1182769753
C   C36       1.0  0.30801  0.05878  0.16815  1.0000 -0.1182769753
C   C37       1.0  0.28375  0.39003  0.64398  1.0000 -0.1023003145
C   C38       1.0  0.28375  0.10997  0.14398  1.0000 -0.1023003145
C   C39       1.0  0.28537  0.36461  0.58773  1.0000 0.5990355885
C   C40       1.0  0.28537  0.13539  0.08773  1.0000 0.5990355885
C   C41       1.0  0.10284  0.17222  0.87469  1.0000 0.593629328
C   C42       1.0  0.10284  0.32778  0.37469  1.0000 0.593629328
C   C43       1.0  0.99297  0.16363  0.80741  1.0000 -0.1114828918
C   C44       1.0  0.99297  0.33637  0.30741  1.0000 -0.1182769753
C   C45       1.0  0.94841  0.11876  0.76593  1.0000 -0.1182769753
C   C46       1.0  0.94841  0.38124  0.26593  1.0000 -0.1182769753
C   C47       1.0  0.84059  0.12498  0.70631  1.0000 -0.1609694069
C   C48       1.0  0.84059  0.37502  0.20631  1.0000 -0.1609694069
C   C49       1.0  0.80452  0.17494  0.70338  1.0000 -0.0103909901
C   C50       1.0  0.80452  0.32506  0.20338  1.0000 -0.0103909901
C   C51       1.0  0.69811  0.19516  0.65098  1.0000 -0.0103909901
C   C52       1.0  0.69811  0.30484  0.15098  1.0000 -0.0103909901
C   C53       1.0  0.60826  0.16601  0.60389  1.0000 -0.1609694069
C   C54       1.0  0.60826  0.33399  0.10389  1.0000 -0.1609694069
C   C55       1.0  0.51684  0.19774  0.56270  1.0000 -0.1023003145
C   C56       1.0  0.51684  0.30226  0.06270  1.0000 -0.1023003145
C   C57       1.0  0.53750  0.25033  0.57850  1.0000 -0.1271028524
C   C58       1.0  0.53750  0.24967  0.07850  1.0000 -0.1271028524
C   C59       1.0  0.46462  0.29536  0.54965  1.0000 0.5716774142
C   C60       1.0  0.46462  0.20464  0.04965  1.0000 0.5716774142
C   C61       1.0  0.14117  0.49657  0.02380  1.0000 0.0119694855
C   C62       1.0  0.14117  0.00343  0.52380  1.0000 0.0119694855
C   C63       1.0  0.14228  0.54853  0.04360  1.0000 0.1404521906
C   C64       1.0  0.14228  0.95147  0.54360  1.0000 0.1404521906
C   C65       1.0  0.14373  0.55574  0.10225  1.0000 -0.0928594344
C   C66       1.0  0.14373  0.94426  0.60225  1.0000 -0.0928594344
C   C67       1.0  0.14279  0.51236  0.13771  1.0000 -0.1837931448
C   C68       1.0  0.14279  0.98764  0.63771  1.0000 -0.1837931448
C   C69       1.0  0.14052  0.46158  0.11398  1.0000 0.1469827668
C   C70       1.0  0.14052  0.03842  0.61398  1.0000 0.1469827668
C   C71       1.0  0.13548  0.41283  0.14712  1.0000 0.1469827668
C   C72       1.0  0.13548  0.08717  0.64712  1.0000 0.1469827668
C   C73       1.0  0.12586  0.41436  0.20170  1.0000 -0.167943933
C   C74       1.0  0.12586  0.08564  0.70170  1.0000 -0.167943933
C   C75       1.0  0.12052  0.36734  0.22911  1.0000 -0.1114828918
C   C76       1.0  0.12052  0.13266  0.72911  1.0000 -0.1114828918
C   C77       1.0  0.12217  0.31912  0.20148  1.0000 0.1404521906
C   C78       1.0  0.12217  0.18088  0.70148  1.0000 0.1404521906
C   C79       1.0  0.13200  0.32083  0.14722  1.0000 0.0119694855
C   C80       1.0  0.13200  0.17917  0.64722  1.0000 0.0119694855
C   C81       1.0  0.14222  0.59461  0.00290  1.0000 -0.4498440125
C   C82       1.0  0.14222  0.90539  0.50290  1.0000 -0.4498440125
C   C83       1.0  0.11542  0.26684  0.22953  1.0000 -0.4660241181
C   C84       1.0  0.11542  0.23316  0.72953  1.0000 -0.4660241181
C   C85       1.0  0.37272  0.17469  0.87617  1.0000 0.0152401267
C   C86       1.0  0.37272  0.32531  0.37617  1.0000 0.0152401267
C   C87       1.0  0.38521  0.17557  0.82305  1.0000 0.1303859718
C   C88       1.0  0.38521  0.32443  0.32305  1.0000 0.1303859718
C   C89       1.0  0.38900  0.12650  0.79819  1.0000 -0.1114828918
C   C90       1.0  0.38900  0.37350  0.29819  1.0000 -0.1114828918
C   C91       1.0  0.38355  0.08007  0.82670  1.0000 -0.167943933
C   C92       1.0  0.38355  0.41993  0.32670  1.0000 -0.167943933
C   C93       1.0  0.37147  0.08278  0.87993  1.0000 0.1404521906
C   C94       1.0  0.37147  0.41722  0.37993  1.0000 0.1404521906
C   C95       1.0  0.36437  0.03504  0.91340  1.0000 0.1469827668
C   C96       1.0  0.36437  0.46496  0.41340  1.0000 0.1469827668
C   C97       1.0  0.37666  0.98356  0.89877  1.0000 -0.167943933
C   C98       1.0  0.37666  0.51644  0.39877  1.0000 -0.167943933
C   C99       1.0  0.36976  0.94151  0.93278  1.0000 -0.1023003145
C   C100      1.0  0.36976  0.55849  0.43278  1.0000 -0.1023003145
C   C101      1.0  0.35128  0.95018  0.98155  1.0000 0.1303859718
C   C102      1.0  0.35128  0.54982  0.48155  1.0000 0.1303859718
C   C103      1.0  0.34169  0.00258  0.99452  1.0000 0.0119694855
C   C104      1.0  0.34169  0.49742  0.49452  1.0000 0.0119694855
C   C105      1.0  0.39172  0.22734  0.79399  1.0000 -0.4660241181
C   C106      1.0  0.39172  0.27266  0.29399  1.0000 -0.4660241181
C   C107      1.0  0.34169  0.90557  0.01970  1.0000 -0.4498440125
C   C108      1.0  0.34169  0.59443  0.51970  1.0000 -0.4498440125
C   C109      1.0  0.60869  0.83049  0.35895  1.0000 0.593629328
C   C110      1.0  0.60869  0.66951  0.85895  1.0000 0.593629328
C   C111      1.0  0.49811  0.84028  0.29325  1.0000 -0.1114828918
C   C112      1.0  0.49811  0.65972  0.79325  1.0000 -0.1114828918
C   C113      1.0  0.45175  0.88624  0.25450  1.0000 -0.1182769753
C   C114      1.0  0.45175  0.61376  0.75450  1.0000 -0.1182769753
C   C115      1.0  0.34425  0.87993  0.19498  1.0000 -0.167943933
C   C116      1.0  0.34425  0.62007  0.69498  1.0000 -0.167943933
C   C117      1.0  0.30953  0.82881  0.18898  1.0000 -0.0103909901
C   C118      1.0  0.30953  0.67119  0.68898  1.0000 -0.0046429058
C   C119      1.0  0.20312  0.80844  0.13558  1.0000 -0.0103909901
C   C120      1.0  0.20312  0.69156  0.63558  1.0000 -0.0103909901
C   C121      1.0  0.11283  0.83733  0.08894  1.0000 -0.167943933
C   C122      1.0  0.11283  0.66267  0.58894  1.0000 -0.167943933
C   C123      1.0  0.02198  0.80509  0.04681  1.0000 -0.1023003145
C   C124      1.0  0.02198  0.69491  0.54681  1.0000 -0.1023003145
C   C125      1.0  0.04365  0.75232  0.06134  1.0000 -0.1271028524
C   C126      1.0  0.04365  0.74768  0.56134  1.0000 -0.1271028524
C   C127      1.0  0.97141  0.70688  0.03114  1.0000 0.5716774142
C   C128      1.0  0.97141  0.79312  0.53114  1.0000 0.5716774142
C   C129      1.0  0.79312  0.86527  0.56872  1.0000 0.5990355885
C   C130      1.0  0.79312  0.63473  0.06872  1.0000 0.5990355885
C   C131      1.0  0.79204  0.89034  0.62542  1.0000 -0.1023003145
C   C132      1.0  0.79204  0.60966  0.12542  1.0000 -0.1023003145
C   C133      1.0  0.82569  0.93977  0.65472  1.0000 -0.1182769753
C   C134      1.0  0.82569  0.56023  0.15472  1.0000 -0.1182769753
C   C135      1.0  0.81138  0.95111  0.70635  1.0000 -0.1609694069
C   C136      1.0  0.81138  0.54889  0.20635  1.0000 -0.1609694069
C   C137      1.0  0.76739  0.90968  0.71633  1.0000 -0.0103909901
C   C138      1.0  0.76739  0.59032  0.21633  1.0000 -0.0103909901
C   C139      1.0  0.73999  0.90968  0.76442  1.0000 -0.0103909901
C   C140      1.0  0.73999  0.59032  0.26442  1.0000 -0.0103909901
C   C141      1.0  0.70617  0.95269  0.78006  1.0000 -0.1609694069
C   C142      1.0  0.70617  0.54731  0.28006  1.0000 -0.1609694069
C   C143      1.0  0.69199  0.94122  0.83185  1.0000 -0.1182769753
C   C144      1.0  0.69199  0.55878  0.33185  1.0000 -0.1182769753
C   C145      1.0  0.71625  0.89003  0.85602  1.0000 -0.1023003145
C   C146      1.0  0.71625  0.60997  0.35602  1.0000 -0.1023003145
C   C147      1.0  0.71463  0.86461  0.91227  1.0000 0.5990355885
C   C148      1.0  0.71463  0.63539  0.41227  1.0000 0.5990355885
C   C149      1.0  0.89716  0.67222  0.62531  1.0000 0.593629328
C   C150      1.0  0.89716  0.82778  0.12531  1.0000 0.593629328
C   C151      1.0  0.00703  0.66363  0.69259  1.0000 -0.1114828918
C   C152      1.0  0.00703  0.83637  0.19259  1.0000 -0.1182769753
C   C153      1.0  0.05159  0.61876  0.73407  1.0000 -0.1182769753
C   C154      1.0  0.05159  0.88124  0.23407  1.0000 -0.1182769753
C   C155      1.0  0.15941  0.62498  0.79369  1.0000 -0.1609694069
C   C156      1.0  0.15941  0.87502  0.29369  1.0000 -0.1609694069
C   C157      1.0  0.19548  0.67494  0.79662  1.0000 -0.0103909901
C   C158      1.0  0.19548  0.82506  0.29662  1.0000 -0.0103909901
C   C159      1.0  0.30189  0.69516  0.84902  1.0000 -0.0103909901
C   C160      1.0  0.30189  0.80484  0.34902  1.0000 -0.0103909901
C   C161      1.0  0.39174  0.66601  0.89611  1.0000 -0.1609694069
C   C162      1.0  0.39174  0.83399  0.39611  1.0000 -0.1609694069
C   C163      1.0  0.48316  0.69774  0.93730  1.0000 -0.1023003145
C   C164      1.0  0.48316  0.80226  0.43730  1.0000 -0.1023003145
C   C165      1.0  0.46250  0.75033  0.92150  1.0000 -0.1271028524
C   C166      1.0  0.46250  0.74967  0.42150  1.0000 -0.1271028524
C   C167      1.0  0.53538  0.79536  0.95035  1.0000 0.5716774142
C   C168      1.0  0.53538  0.70464  0.45035  1.0000 0.5716774142
C   C169      1.0  0.85883  0.99657  0.47620  1.0000 0.0119694855
C   C170      1.0  0.85883  0.50343  0.97620  1.0000 0.0119694855
C   C171      1.0  0.85772  0.04853  0.45640  1.0000 0.1404521906
C   C172      1.0  0.85772  0.45147  0.95640  1.0000 0.1404521906
C   C173      1.0  0.85627  0.05574  0.39775  1.0000 -0.0928594344
C   C174      1.0  0.85627  0.44426  0.89775  1.0000 -0.0928594344
C   C175      1.0  0.85721  0.01236  0.36229  1.0000 -0.1837931448
C   C176      1.0  0.85721  0.48764  0.86229  1.0000 -0.1837931448
C   C177      1.0  0.85948  0.96158  0.38602  1.0000 0.1469827668
C   C178      1.0  0.85948  0.53842  0.88602  1.0000 0.1469827668
C   C179      1.0  0.86452  0.91283  0.35288  1.0000 0.1469827668
C   C180      1.0  0.86452  0.58717  0.85288  1.0000 0.1469827668
C   C181      1.0  0.87414  0.91436  0.29830  1.0000 -0.167943933
C   C182      1.0  0.87414  0.58564  0.79830  1.0000 -0.167943933
C   C183      1.0  0.87948  0.86734  0.27089  1.0000 -0.1114828918
C   C184      1.0  0.87948  0.63266  0.77089  1.0000 -0.1114828918
C   C185      1.0  0.87783  0.81912  0.29852  1.0000 0.1404521906
C   C186      1.0  0.87783  0.68088  0.79852  1.0000 0.1404521906
C   C187      1.0  0.86800  0.82083  0.35278  1.0000 0.0119694855
C   C188      1.0  0.86800  0.67917  0.85278  1.0000 0.0119694855
C   C189      1.0  0.85778  0.09461  0.49710  1.0000 -0.4498440125
C   C190      1.0  0.85778  0.40539  0.99710  1.0000 -0.4498440125
C   C191      1.0  0.88458  0.76684  0.27047  1.0000 -0.4660241181
C   C192      1.0  0.88458  0.73316  0.77047  1.0000 -0.4660241181
C   C193      1.0  0.62728  0.67469  0.62383  1.0000 0.0152401267
C   C194      1.0  0.62728  0.82531  0.12383  1.0000 0.0152401267
C   C195      1.0  0.61479  0.67557  0.67695  1.0000 0.1303859718
C   C196      1.0  0.61479  0.82443  0.17695  1.0000 0.1303859718
C   C197      1.0  0.61100  0.62650  0.70181  1.0000 -0.1114828918
C   C198      1.0  0.61100  0.87350  0.20181  1.0000 -0.1114828918
C   C199      1.0  0.61645  0.58007  0.67330  1.0000 -0.167943933
C   C200      1.0  0.61645  0.91993  0.17330  1.0000 -0.167943933
C   C201      1.0  0.62853  0.58278  0.62007  1.0000 0.1404521906
C   C202      1.0  0.62853  0.91722  0.12007  1.0000 0.1404521906
C   C203      1.0  0.63563  0.53504  0.58660  1.0000 0.1469827668
C   C204      1.0  0.63563  0.96496  0.08660  1.0000 0.1469827668
C   C205      1.0  0.62334  0.48356  0.60123  1.0000 -0.167943933
C   C206      1.0  0.62334  0.01644  0.10123  1.0000 -0.167943933
C   C207      1.0  0.63024  0.44151  0.56722  1.0000 -0.1023003145
C   C208      1.0  0.63024  0.05849  0.06722  1.0000 -0.1023003145
C   C209      1.0  0.64872  0.45018  0.51845  1.0000 0.1303859718
C   C210      1.0  0.64872  0.04982  0.01845  1.0000 0.1303859718
C   C211      1.0  0.65831  0.50258  0.50548  1.0000 0.0119694855
C   C212      1.0  0.65831  0.99742  0.00548  1.0000 0.0119694855
C   C213      1.0  0.60828  0.72734  0.70601  1.0000 -0.4660241181
C   C214      1.0  0.60828  0.77266  0.20601  1.0000 -0.4660241181
C   C215      1.0  0.65831  0.40557  0.48030  1.0000 -0.4498440125
C   C216      1.0  0.65831  0.09443  0.98030  1.0000 -0.4498440125
S   S1        1.0  0.59029  0.28882  0.24309  1.0000 0.1303859718
S   S2        1.0  0.59029  0.21118  0.74309  1.0000 0.1303859718
S   S3        1.0  0.82315  0.24109  0.37350  1.0000 0.1003938294
S   S4        1.0  0.82315  0.25891  0.87350  1.0000 0.1003938294
S   S5        1.0  0.25790  0.35658  0.83890  1.0000 0.1003938294
S   S6        1.0  0.25790  0.14342  0.33890  1.0000 0.1003938294
S   S7        1.0  0.24394  0.35475  0.68564  1.0000 0.0922736148
S   S8        1.0  0.24394  0.14525  0.18564  1.0000 0.0922736148
S   S9        1.0  0.90339  0.21429  0.77364  1.0000 0.1303859718
S   S10       1.0  0.90339  0.28571  0.27364  1.0000 0.1303859718
S   S11       1.0  0.67048  0.26205  0.64355  1.0000 0.1057632486
S   S12       1.0  0.67048  0.23795  0.14355  1.0000 0.1057632486
S   S13       1.0  0.40971  0.78882  0.25691  1.0000 0.1303859718
S   S14       1.0  0.40971  0.71118  0.75691  1.0000 0.1303859718
S   S15       1.0  0.17685  0.74109  0.12650  1.0000 0.1003938294
S   S16       1.0  0.17685  0.75891  0.62650  1.0000 0.1003938294
S   S17       1.0  0.74210  0.85658  0.66110  1.0000 0.1003938294
S   S18       1.0  0.74210  0.64342  0.16110  1.0000 0.1003938294
S   S19       1.0  0.75606  0.85475  0.81436  1.0000 0.0922736148
S   S20       1.0  0.75606  0.64525  0.31436  1.0000 0.0922736148
S   S21       1.0  0.09661  0.71429  0.72636  1.0000 0.1303859718
S   S22       1.0  0.09661  0.78571  0.22636  1.0000 0.1303859718
S   S23       1.0  0.32952  0.76205  0.85645  1.0000 0.1057632486
S   S24       1.0  0.32952  0.73795  0.35645  1.0000 0.1057632486
N   N1        1.0  0.14077  0.45396  0.05762  1.0000 -0.2609907543
N   N2        1.0  0.14077  0.04604  0.55762  1.0000 -0.2609907543
N   N3        1.0  0.13948  0.36632  0.12101  1.0000 -0.2609907543
N   N4        1.0  0.13948  0.13368  0.62101  1.0000 -0.2609907543
N   N5        1.0  0.36467  0.13006  0.90325  1.0000 -0.2609907543
N   N6        1.0  0.36467  0.36994  0.40325  1.0000 -0.2609907543
N   N7        1.0  0.34774  0.04415  0.96177  1.0000 -0.2609907543
N   N8        1.0  0.34774  0.45585  0.46177  1.0000 -0.2609907543
N   N9        1.0  0.85923  0.95396  0.44238  1.0000 -0.2609907543
N   N10       1.0  0.85923  0.54604  0.94238  1.0000 -0.2609907543
N   N11       1.0  0.86052  0.86632  0.37899  1.0000 -0.2609907543
N   N12       1.0  0.86052  0.63368  0.87899  1.0000 -0.2609907543
N   N13       1.0  0.63533  0.63006  0.59675  1.0000 -0.2609907543
N   N14       1.0  0.63533  0.86994  0.09675  1.0000 -0.2609907543
N   N15       1.0  0.65226  0.54415  0.53823  1.0000 -0.2609907543
N   N16       1.0  0.65226  0.95585  0.03823  1.0000 -0.2609907543
O   O1        1.0  0.32869  0.36903  0.11961  1.0000 -0.5488430317
O   O2        1.0  0.32869  0.13097  0.61961  1.0000 -0.5488430317
O   O3        1.0  0.36950  0.28509  0.11353  1.0000 -0.5488430317
O   O4        1.0  0.36950  0.21491  0.61353  1.0000 -0.5488430317
O   O5        1.0  0.99385  0.16055  0.45264  1.0000 -0.5321669602
O   O6        1.0  0.99385  0.33945  0.95264  1.0000 -0.5321669602
O   O7        1.0  0.12813  0.21591  0.51395  1.0000 -0.5735584223
O   O8        1.0  0.12813  0.28409  0.01395  1.0000 -0.5735584223
O   O9        1.0  0.17026  0.39401  0.95457  1.0000 -0.5488430317
O   O10       1.0  0.17026  0.10599  0.45457  1.0000 -0.5488430317
O   O11       1.0  0.24224  0.31924  0.95125  1.0000 -0.5594632947
O   O12       1.0  0.24224  0.18076  0.45125  1.0000 -0.5594632947
O   O13       1.0  0.25496  0.31747  0.57089  1.0000 -0.5594632947
O   O14       1.0  0.25496  0.18253  0.07089  1.0000 -0.5594632947
O   O15       1.0  0.31628  0.39394  0.56138  1.0000 -0.5406146206
O   O16       1.0  0.31628  0.10606  0.06138  1.0000 -0.5406146206
O   O17       1.0  0.12495  0.21681  0.90483  1.0000 -0.5488430317
O   O18       1.0  0.12495  0.28319  0.40483  1.0000 -0.5406146206
O   O19       1.0  0.16454  0.13354  0.89520  1.0000 -0.5488430317
O   O20       1.0  0.16454  0.36646  0.39520  1.0000 -0.5488430317
O   O21       1.0  0.36529  0.28577  0.50445  1.0000 -0.5735584223
O   O22       1.0  0.36529  0.21423  0.00445  1.0000 -0.5735584223
O   O23       1.0  0.49865  0.34186  0.56696  1.0000 -0.5406146206
O   O24       1.0  0.49865  0.15814  0.06696  1.0000 -0.5406146206
O   O25       1.0  0.67131  0.86903  0.38039  1.0000 -0.5488430317
O   O26       1.0  0.67131  0.63097  0.88039  1.0000 -0.5488430317
O   O27       1.0  0.63050  0.78509  0.38647  1.0000 -0.5488430317
O   O28       1.0  0.63050  0.71491  0.88647  1.0000 -0.5488430317
O   O29       1.0  0.00615  0.66055  0.04736  1.0000 -0.5321669602
O   O30       1.0  0.00615  0.83945  0.54736  1.0000 -0.5321669602
O   O31       1.0  0.87187  0.71591  0.98605  1.0000 -0.5735584223
O   O32       1.0  0.87187  0.78409  0.48605  1.0000 -0.5735584223
O   O33       1.0  0.82974  0.89401  0.54543  1.0000 -0.5488430317
O   O34       1.0  0.82974  0.60599  0.04543  1.0000 -0.5488430317
O   O35       1.0  0.75776  0.81924  0.54875  1.0000 -0.5594632947
O   O36       1.0  0.75776  0.68076  0.04875  1.0000 -0.5594632947
O   O37       1.0  0.74504  0.81747  0.92911  1.0000 -0.5594632947
O   O38       1.0  0.74504  0.68253  0.42911  1.0000 -0.5594632947
O   O39       1.0  0.68372  0.89394  0.93862  1.0000 -0.5406146206
O   O40       1.0  0.68372  0.60606  0.43862  1.0000 -0.5406146206
O   O41       1.0  0.87505  0.71681  0.59517  1.0000 -0.5488430317
O   O42       1.0  0.87505  0.78319  0.09517  1.0000 -0.5488430317
O   O43       1.0  0.83546  0.63354  0.60480  1.0000 -0.5488430317
O   O44       1.0  0.83546  0.86646  0.10480  1.0000 -0.5488430317
O   O45       1.0  0.63471  0.78577  0.99555  1.0000 -0.5753247165
O   O46       1.0  0.63471  0.71423  0.49555  1.0000 -0.5753247165
O   O47       1.0  0.50135  0.84186  0.93304  1.0000 -0.5406146206
O   O48       1.0  0.50135  0.65814  0.43304  1.0000 -0.5406146206
