# DDEC6 charges by PACMAN v1.1 (https://github.com/mtap-research/PACMAN-charge/)
data_2023[Eu][kgd]2[FSR]1
_chemical_formula_sum              "Eu4 H90 C118 N2 O32"
_cell_length_a       15.1047
_cell_length_b       15.1492
_cell_length_c       17.4105
_cell_angle_alpha    81.751
_cell_angle_beta     70.454
_cell_angle_gamma    73.702

_symmetry_space_group_name_H-M    "P 1"
_symmetry_Int_Tables_number       1

loop_
  _symmetry_equiv_pos_as_xyz
  'x, y, z'

loop_
  _atom_site_type_symbol
  _atom_site_label
  _atom_site_symmetry_multiplicity
  _atom_site_fract_x
  _atom_site_fract_y
  _atom_site_fract_z
  _atom_site_occupancy
  _atom_site_charge
Eu  Eu1       1.0  0.11992  0.45640  0.04891  1.0000 2.0310516292
Eu  Eu2       1.0  0.88008  0.54360  0.95109  1.0000 2.0310516292
Eu  Eu3       1.0  0.63753  0.45715  0.51961  1.0000 1.9994065696
Eu  Eu4       1.0  0.36247  0.54285  0.48039  1.0000 1.9994065696
H   H1        1.0  0.92191  0.47633  0.14198  1.0000 0.3833590233
H   H2        1.0  0.07809  0.52367  0.85802  1.0000 0.3833590233
H   H3        1.0  0.97210  0.42907  0.19478  1.0000 0.3631353611
H   H4        1.0  0.02790  0.57093  0.80522  1.0000 0.3631353611
H   H5        1.0  0.45265  0.49978  0.64092  1.0000 0.3686367059
H   H6        1.0  0.54735  0.50022  0.35908  1.0000 0.3686367059
H   H7        1.0  0.51162  0.53012  0.67112  1.0000 0.3508589798
H   H8        1.0  0.48838  0.46988  0.32888  1.0000 0.3508589798
H   H9        1.0  0.83208  0.44081  0.41324  1.0000 0.3631353611
H   H10       1.0  0.16792  0.55919  0.58676  1.0000 0.3631353611
H   H11       1.0  0.83863  0.44568  0.48947  1.0000 0.3686367059
H   H12       1.0  0.16137  0.55432  0.51053  1.0000 0.3686367059
H   H13       1.0  0.16910  0.20541  0.25197  1.0000 0.1294392483
H   H14       1.0  0.83090  0.79459  0.74803  1.0000 0.1294392483
H   H15       1.0  0.20631  0.12717  0.36673  1.0000 0.1114756901
H   H16       1.0  0.79369  0.87283  0.63327  1.0000 0.1114756901
H   H17       1.0  0.23943  0.35874  0.42988  1.0000 0.1294392483
H   H18       1.0  0.76057  0.64126  0.57012  1.0000 0.1294392483
H   H19       1.0  0.19674  0.43906  0.31792  1.0000 0.1203863645
H   H20       1.0  0.80326  0.56094  0.68208  1.0000 0.1203863645
H   H21       1.0  0.55531  0.77593  0.58491  1.0000 0.1203863645
H   H22       1.0  0.44469  0.22407  0.41509  1.0000 0.1203863645
H   H23       1.0  0.47269  0.93081  0.60049  1.0000 0.1114756901
H   H24       1.0  0.52731  0.06919  0.39951  1.0000 0.1114756901
H   H25       1.0  0.32119  0.90975  0.45440  1.0000 0.1203863645
H   H26       1.0  0.67881  0.09025  0.54560  1.0000 0.1203863645
H   H27       1.0  0.40130  0.75503  0.43966  1.0000 0.1294392483
H   H28       1.0  0.59870  0.24497  0.56034  1.0000 0.1294392483
H   H29       1.0  0.25654  0.42369  0.74117  1.0000 0.1203863645
H   H30       1.0  0.74346  0.57631  0.25883  1.0000 0.1203863645
H   H31       1.0  0.28453  0.34626  0.62638  1.0000 0.1203863645
H   H32       1.0  0.71547  0.65374  0.37362  1.0000 0.1203863645
H   H33       1.0  0.25063  0.11456  0.76986  1.0000 0.1114756901
H   H34       1.0  0.74937  0.88544  0.23014  1.0000 0.1114756901
H   H35       1.0  0.22822  0.19120  0.88331  1.0000 0.1114756901
H   H36       1.0  0.77178  0.80880  0.11669  1.0000 0.1114756901
H   H37       1.0  0.31391  0.05817  0.42651  1.0000 0.1114756901
H   H38       1.0  0.68609  0.94183  0.57349  1.0000 0.1114756901
H   H39       1.0  0.34577  0.04636  0.65011  1.0000 0.1114756901
H   H40       1.0  0.65423  0.95364  0.34989  1.0000 0.1114756901
H   H41       1.0  0.21555  0.28769  0.55321  1.0000 0.1203863645
H   H42       1.0  0.78445  0.71231  0.44679  1.0000 0.1203863645
H   H43       1.0  0.70468  0.20366  0.70891  1.0000 0.1294392483
H   H44       1.0  0.29532  0.79634  0.29109  1.0000 0.1294392483
H   H45       1.0  0.73149  0.12598  0.82621  1.0000 0.1114756901
H   H46       1.0  0.26851  0.87402  0.17379  1.0000 0.1114756901
H   H47       1.0  0.78970  0.35033  0.88153  1.0000 0.1294392483
H   H48       1.0  0.21030  0.64967  0.11847  1.0000 0.1294392483
H   H49       1.0  0.75928  0.42960  0.76503  1.0000 0.1294392483
H   H50       1.0  0.24072  0.57040  0.23497  1.0000 0.1294392483
H   H51       1.0  0.91999  0.75028  0.92723  1.0000 0.1294392483
H   H52       1.0  0.08001  0.24972  0.07277  1.0000 0.1294392483
H   H53       1.0  0.84248  0.90601  0.92816  1.0000 0.1203863645
H   H54       1.0  0.15752  0.09399  0.07184  1.0000 0.1203863645
H   H55       1.0  0.95616  0.93852  0.09896  1.0000 0.1114756901
H   H56       1.0  0.04384  0.06148  0.90104  1.0000 0.1114756901
H   H57       1.0  0.03218  0.78223  0.09932  1.0000 0.1203863645
H   H58       1.0  0.96782  0.21777  0.90068  1.0000 0.1203863645
H   H59       1.0  0.73650  0.43555  0.21181  1.0000 0.1203863645
H   H60       1.0  0.26350  0.56445  0.78819  1.0000 0.1203863645
H   H61       1.0  0.76800  0.35599  0.09729  1.0000 0.1203863645
H   H62       1.0  0.23200  0.64401  0.90271  1.0000 0.1294392483
H   H63       1.0  0.71589  0.13038  0.24162  1.0000 0.1114756901
H   H64       1.0  0.28411  0.86962  0.75838  1.0000 0.1114756901
H   H65       1.0  0.69607  0.20756  0.35600  1.0000 0.1114756901
H   H66       1.0  0.30393  0.79244  0.64400  1.0000 0.1114756901
H   H67       1.0  0.83718  0.05299  0.89683  1.0000 0.1114756901
H   H68       1.0  0.16282  0.94701  0.10317  1.0000 0.1114756901
H   H69       1.0  0.82553  0.05658  0.13159  1.0000 0.1114756901
H   H70       1.0  0.17447  0.94342  0.86841  1.0000 0.1114756901
H   H71       1.0  0.72517  0.29200  0.01183  1.0000 0.1114756901
H   H72       1.0  0.27483  0.70800  0.98817  1.0000 0.1114756901
H   H73       1.0  0.37528  0.44603  0.12827  1.0000 0.1426755522
H   H74       1.0  0.62472  0.55397  0.87173  1.0000 0.1426755522
H   H75       1.0  0.36141  0.34593  0.12224  1.0000 0.1426755522
H   H76       1.0  0.63859  0.65407  0.87776  1.0000 0.1426755522
H   H77       1.0  0.52109  0.29794  0.08806  1.0000 0.1114756901
H   H78       1.0  0.47891  0.70206  0.91194  1.0000 0.1114756901
H   H79       1.0  0.53387  0.40155  0.07106  1.0000 0.0975740226
H   H80       1.0  0.46613  0.59845  0.92894  1.0000 0.0975740226
H   H81       1.0  0.58253  0.37492  0.93911  1.0000 0.0975740226
H   H82       1.0  0.41747  0.62508  0.06089  1.0000 0.0975740226
H   H83       1.0  0.54055  0.28464  0.95728  1.0000 0.1114756901
H   H84       1.0  0.45945  0.71536  0.04272  1.0000 0.1114756901
H   H85       1.0  0.44746  0.36435  0.84435  1.0000 0.1426755522
H   H86       1.0  0.55254  0.63565  0.15565  1.0000 0.1426755522
H   H87       1.0  0.48494  0.45497  0.83725  1.0000 0.1294392483
H   H88       1.0  0.51506  0.54503  0.16275  1.0000 0.1294392483
H   H89       1.0  0.37107  0.46116  0.86842  1.0000 0.1455747122
H   H90       1.0  0.62893  0.53884  0.13158  1.0000 0.1455747122
C   C1        1.0  0.15910  0.37930  0.19760  1.0000 0.5600529844
C   C2        1.0  0.84090  0.62070  0.80240  1.0000 0.5600529844
C   C3        1.0  0.17970  0.32990  0.27290  1.0000 -0.0309287356
C   C4        1.0  0.82030  0.67010  0.72710  1.0000 -0.0309287356
C   C5        1.0  0.18280  0.23720  0.28810  1.0000 -0.0992829406
C   C6        1.0  0.81720  0.76280  0.71190  1.0000 -0.0992829406
C   C7        1.0  0.20600  0.19050  0.35630  1.0000 -0.151078191
C   C8        1.0  0.79400  0.80950  0.64370  1.0000 -0.151078191
C   C9        1.0  0.22880  0.23390  0.40950  1.0000 0.0711269583
C   C10       1.0  0.77120  0.76610  0.59050  1.0000 0.0711269583
C   C11       1.0  0.22490  0.32720  0.39400  1.0000 -0.1382414876
C   C12       1.0  0.77510  0.67280  0.60600  1.0000 -0.1382414876
C   C13       1.0  0.20000  0.37500  0.32700  1.0000 -0.083695304
C   C14       1.0  0.80000  0.62500  0.67300  1.0000 -0.083695304
C   C15       1.0  0.53510  0.65020  0.50650  1.0000 0.6019501621
C   C16       1.0  0.46490  0.34980  0.49350  1.0000 0.6019501621
C   C17       1.0  0.48600  0.74990  0.51150  1.0000 -0.0363810426
C   C18       1.0  0.51400  0.25010  0.48850  1.0000 -0.0363810426
C   C19       1.0  0.50730  0.80290  0.55870  1.0000 -0.0884729118
C   C20       1.0  0.49270  0.19710  0.44130  1.0000 -0.0884729118
C   C21       1.0  0.45840  0.89540  0.56740  1.0000 -0.1589253958
C   C22       1.0  0.54160  0.10460  0.43260  1.0000 -0.1589253958
C   C23       1.0  0.38920  0.93660  0.52870  1.0000 0.0711269583
C   C24       1.0  0.61080  0.06340  0.47130  1.0000 0.0711269583
C   C25       1.0  0.36870  0.88260  0.48110  1.0000 -0.151078191
C   C26       1.0  0.63130  0.11740  0.51890  1.0000 -0.151078191
C   C27       1.0  0.41610  0.79060  0.47230  1.0000 -0.083695304
C   C28       1.0  0.58390  0.20940  0.52770  1.0000 -0.083695304
C   C29       1.0  0.21460  0.36650  0.89940  1.0000 0.5600529844
C   C30       1.0  0.78540  0.63350  0.10060  1.0000 0.5600529844
C   C31       1.0  0.23830  0.31630  0.82410  1.0000 -0.0202986701
C   C32       1.0  0.76170  0.68370  0.17590  1.0000 -0.0202986701
C   C33       1.0  0.25550  0.36060  0.74700  1.0000 -0.0884729118
C   C34       1.0  0.74450  0.63940  0.25300  1.0000 -0.0884729118
C   C35       1.0  0.27130  0.31490  0.67870  1.0000 -0.1333472794
C   C36       1.0  0.72870  0.68510  0.32130  1.0000 -0.1333472794
C   C37       1.0  0.26780  0.22270  0.68600  1.0000 0.0711269583
C   C38       1.0  0.73220  0.77730  0.31400  1.0000 0.0711269583
C   C39       1.0  0.25190  0.17760  0.76370  1.0000 -0.151078191
C   C40       1.0  0.74810  0.82240  0.23630  1.0000 -0.151078191
C   C41       1.0  0.23800  0.22320  0.83130  1.0000 -0.0884729118
C   C42       1.0  0.76200  0.77680  0.16870  1.0000 -0.0884729118
C   C43       1.0  0.25800  0.18080  0.47980  1.0000 0.081702304
C   C44       1.0  0.74200  0.81920  0.52020  1.0000 0.081702304
C   C45       1.0  0.30440  0.08770  0.47420  1.0000 -0.201908459
C   C46       1.0  0.69560  0.91230  0.52580  1.0000 -0.201908459
C   C47       1.0  0.33760  0.03630  0.53710  1.0000 0.081702304
C   C48       1.0  0.66240  0.96370  0.46290  1.0000 0.081702304
C   C49       1.0  0.32440  0.08060  0.60660  1.0000 -0.201908459
C   C50       1.0  0.67560  0.91940  0.39340  1.0000 -0.201908459
C   C51       1.0  0.28020  0.17470  0.61290  1.0000 0.0898657301
C   C52       1.0  0.71980  0.82530  0.38710  1.0000 0.0898657301
C   C53       1.0  0.24660  0.22390  0.54900  1.0000 -0.1842071927
C   C54       1.0  0.75340  0.77610  0.45100  1.0000 -0.1842071927
C   C55       1.0  0.70870  0.37360  0.64900  1.0000 0.5600529844
C   C56       1.0  0.29130  0.62640  0.35100  1.0000 0.5600529844
C   C57       1.0  0.72770  0.32520  0.72490  1.0000 -0.0309287356
C   C58       1.0  0.27230  0.67480  0.27510  1.0000 -0.0309287356
C   C59       1.0  0.72100  0.23400  0.74450  1.0000 -0.0992829406
C   C60       1.0  0.27900  0.76600  0.25550  1.0000 -0.0992829406
C   C61       1.0  0.73740  0.18760  0.81380  1.0000 -0.151078191
C   C62       1.0  0.26260  0.81240  0.18620  1.0000 -0.151078191
C   C63       1.0  0.76280  0.23050  0.86650  1.0000 0.0632727379
C   C64       1.0  0.23720  0.76950  0.13350  1.0000 0.0632727379
C   C65       1.0  0.77140  0.32080  0.84670  1.0000 -0.1382414876
C   C66       1.0  0.22860  0.67920  0.15330  1.0000 -0.1382414876
C   C67       1.0  0.75370  0.36790  0.77730  1.0000 -0.0884729118
C   C68       1.0  0.24630  0.63210  0.22270  1.0000 -0.0884729118
C   C69       1.0  0.02890  0.64970  0.01820  1.0000 0.6094512278
C   C70       1.0  0.97110  0.35030  0.98180  1.0000 0.6094512278
C   C71       1.0  0.98270  0.75030  0.01430  1.0000 -0.0309287356
C   C72       1.0  0.01730  0.24970  0.98570  1.0000 -0.0309287356
C   C73       1.0  0.92680  0.78830  0.96280  1.0000 -0.083695304
C   C74       1.0  0.07320  0.21170  0.03720  1.0000 -0.083695304
C   C75       1.0  0.88120  0.88110  0.96310  1.0000 -0.151078191
C   C76       1.0  0.11880  0.11890  0.03690  1.0000 -0.151078191
C   C77       1.0  0.89070  0.93890  0.01380  1.0000 0.0711269583
C   C78       1.0  0.10930  0.06110  0.98620  1.0000 0.0711269583
C   C79       1.0  0.94810  0.90040  0.06430  1.0000 -0.151078191
C   C80       1.0  0.05190  0.09960  0.93570  1.0000 -0.151078191
C   C81       1.0  0.99340  0.80730  0.06450  1.0000 -0.0884729118
C   C82       1.0  0.00660  0.19270  0.93550  1.0000 -0.0884729118
C   C83       1.0  0.70030  0.37620  0.36860  1.0000 0.5600529844
C   C84       1.0  0.29970  0.62380  0.63140  1.0000 0.5600529844
C   C85       1.0  0.71460  0.32840  0.29490  1.0000 -0.0363810426
C   C86       1.0  0.28540  0.67160  0.70510  1.0000 -0.0363810426
C   C87       1.0  0.73490  0.37260  0.21780  1.0000 -0.0992829406
C   C88       1.0  0.26510  0.62740  0.78220  1.0000 -0.0992829406
C   C89       1.0  0.75280  0.32540  0.14990  1.0000 -0.1212593606
C   C90       1.0  0.24720  0.67460  0.85010  1.0000 -0.1212593606
C   C91       1.0  0.74900  0.23360  0.15710  1.0000 0.081702304
C   C92       1.0  0.25100  0.76640  0.84290  1.0000 0.081702304
C   C93       1.0  0.72360  0.19140  0.23490  1.0000 -0.1589253958
C   C94       1.0  0.27640  0.80860  0.76510  1.0000 -0.1589253958
C   C95       1.0  0.70940  0.23820  0.30340  1.0000 -0.0884729118
C   C96       1.0  0.29060  0.76180  0.69660  1.0000 -0.0884729118
C   C97       1.0  0.77970  0.18060  0.94230  1.0000 0.081702304
C   C98       1.0  0.22030  0.81940  0.05770  1.0000 0.081702304
C   C99       1.0  0.82170  0.08580  0.94410  1.0000 -0.201908459
C   C100      1.0  0.17830  0.91420  0.05590  1.0000 -0.201908459
C   C101      1.0  0.84140  0.03820  0.01420  1.0000 0.081702304
C   C102      1.0  0.15860  0.96180  0.98580  1.0000 0.081702304
C   C103      1.0  0.81450  0.08810  0.08310  1.0000 -0.201908459
C   C104      1.0  0.18550  0.91190  0.91690  1.0000 -0.201908459
C   C105      1.0  0.77250  0.18190  0.08370  1.0000 0.0898657301
C   C106      1.0  0.22750  0.81810  0.91630  1.0000 0.0898657301
C   C107      1.0  0.75470  0.22780  0.01230  1.0000 -0.1856190702
C   C108      1.0  0.24530  0.77220  0.98770  1.0000 -0.1856190702
C   C109      1.0  0.36270  0.42920  0.01670  1.0000 0.4941227072
C   C110      1.0  0.63730  0.57080  0.98330  1.0000 0.4941227072
C   C111      1.0  0.39290  0.39520  0.09180  1.0000 -0.3223862416
C   C112      1.0  0.60710  0.60480  0.90820  1.0000 -0.3223862416
C   C113      1.0  0.50090  0.35860  0.06070  1.0000 -0.1589253958
C   C114      1.0  0.49910  0.64140  0.93930  1.0000 -0.1589253958
C   C115      1.0  0.52610  0.34970  0.97010  1.0000 -0.1212593606
C   C116      1.0  0.47390  0.65030  0.02990  1.0000 -0.1212593606
C   C117      1.0  0.43510  0.42270  0.86880  1.0000 -0.3286697632
C   C118      1.0  0.56490  0.57730  0.13120  1.0000 -0.3286697632
N   N1        1.0  0.43760  0.40470  0.95180  1.0000 -0.0484558484
N   N2        1.0  0.56240  0.59530  0.04820  1.0000 -0.0484558484
O   O1        1.0  0.14710  0.46470  0.18550  1.0000 -0.6000180409
O   O2        1.0  0.85290  0.53530  0.81450  1.0000 -0.6000180409
O   O3        1.0  0.15510  0.33120  0.14470  1.0000 -0.6676107711
O   O4        1.0  0.84490  0.66880  0.85530  1.0000 -0.6676107711
O   O5        1.0  0.49880  0.59420  0.48610  1.0000 -0.7316250568
O   O6        1.0  0.50120  0.40580  0.51390  1.0000 -0.7316250568
O   O7        1.0  0.61390  0.62090  0.52350  1.0000 -0.6311381723
O   O8        1.0  0.38610  0.37910  0.47650  1.0000 -0.6311381723
O   O9        1.0  0.22350  0.32310  0.96380  1.0000 -0.5915086633
O   O10       1.0  0.77650  0.67690  0.03620  1.0000 -0.5915086633
O   O11       1.0  0.18230  0.45420  0.89660  1.0000 -0.6519974536
O   O12       1.0  0.81770  0.54580  0.10340  1.0000 -0.6519974536
O   O13       1.0  0.70600  0.45810  0.63370  1.0000 -0.6311381723
O   O14       1.0  0.29400  0.54190  0.36630  1.0000 -0.6311381723
O   O15       1.0  0.69330  0.32830  0.60170  1.0000 -0.6311381723
O   O16       1.0  0.30670  0.67170  0.39830  1.0000 -0.6311381723
O   O17       1.0  0.99740  0.59310  0.99230  1.0000 -0.750725852
O   O18       1.0  0.00260  0.40690  0.00770  1.0000 -0.750725852
O   O19       1.0  0.09580  0.61960  0.04920  1.0000 -0.6000180409
O   O20       1.0  0.90420  0.38040  0.95080  1.0000 -0.6000180409
O   O21       1.0  0.71750  0.32940  0.42960  1.0000 -0.6000180409
O   O22       1.0  0.28250  0.67060  0.57040  1.0000 -0.6000180409
O   O23       1.0  0.66900  0.46360  0.36990  1.0000 -0.6440833873
O   O24       1.0  0.33100  0.53640  0.63010  1.0000 -0.6440833873
O   O25       1.0  0.96910  0.47680  0.16020  1.0000 -0.750725852
O   O26       1.0  0.03090  0.52320  0.83980  1.0000 -0.750725852
O   O27       1.0  0.28020  0.47290  0.01520  1.0000 -0.6245667404
O   O28       1.0  0.71980  0.52710  0.98480  1.0000 -0.6245667404
O   O29       1.0  0.50870  0.48300  0.64960  1.0000 -0.7595450645
O   O30       1.0  0.49130  0.51700  0.35040  1.0000 -0.7595450645
O   O31       1.0  0.80460  0.47230  0.45690  1.0000 -0.750725852
O   O32       1.0  0.19540  0.52770  0.54310  1.0000 -0.750725852
