# DDEC6 charges by PACMAN v1.1 (https://github.com/mtap-research/PACMAN-charge/)
data_2023[Zn][sql]2[FSR]20
_chemical_formula_sum              "Zn2 H36 C60 N8 O8"
_cell_length_a       6.7585
_cell_length_b       12.6638
_cell_length_c       16.9182
_cell_angle_alpha    106.144
_cell_angle_beta     97.046
_cell_angle_gamma    90.081

_symmetry_space_group_name_H-M    "P 1"
_symmetry_Int_Tables_number       1

loop_
  _symmetry_equiv_pos_as_xyz
  'x, y, z'

loop_
  _atom_site_type_symbol
  _atom_site_label
  _atom_site_symmetry_multiplicity
  _atom_site_fract_x
  _atom_site_fract_y
  _atom_site_fract_z
  _atom_site_occupancy
  _atom_site_charge
Zn  Zn1       1.0  0.79737  0.97087  0.80083  1.0000 0.7484092479
Zn  Zn2       1.0  0.20263  0.02913  0.19917  1.0000 0.7484092479
H   H1        1.0  0.76810  0.78278  0.87292  1.0000 0.119859792
H   H2        1.0  0.23190  0.21722  0.12708  1.0000 0.119859792
H   H3        1.0  0.57852  0.62485  0.85608  1.0000 0.1387829746
H   H4        1.0  0.42148  0.37515  0.14392  1.0000 0.1387829746
H   H5        1.0  0.42275  0.16939  0.97636  1.0000 0.1134294411
H   H6        1.0  0.57725  0.83061  0.02364  1.0000 0.1134294411
H   H7        1.0  0.16416  0.16102  0.76205  1.0000 0.1387829746
H   H8        1.0  0.83584  0.83898  0.23795  1.0000 0.1387829746
H   H9        1.0  0.00564  0.57860  0.68290  1.0000 0.1309162443
H   H10       1.0  0.99436  0.42140  0.31710  1.0000 0.1309162443
H   H11       1.0  0.36024  0.02519  0.79212  1.0000 0.1029489459
H   H12       1.0  0.63976  0.97481  0.20788  1.0000 0.1029489459
H   H13       1.0  0.03394  0.25943  0.68424  1.0000 0.119859792
H   H14       1.0  0.96606  0.74057  0.31576  1.0000 0.119859792
H   H15       1.0  0.42237  0.85572  0.69204  1.0000 0.119859792
H   H16       1.0  0.57763  0.14428  0.30796  1.0000 0.119859792
H   H17       1.0  0.21313  0.70601  0.67572  1.0000 0.1387829746
H   H18       1.0  0.78687  0.29399  0.32428  1.0000 0.1387829746
H   H19       1.0  0.65632  0.96908  0.48886  1.0000 0.119859792
H   H20       1.0  0.34368  0.03092  0.51114  1.0000 0.119859792
H   H21       1.0  0.79597  0.99780  0.37747  1.0000 0.119859792
H   H22       1.0  0.20403  0.00220  0.62253  1.0000 0.119859792
H   H23       1.0  0.84829  0.21094  0.82439  1.0000 0.119859792
H   H24       1.0  0.15171  0.78906  0.17561  1.0000 0.119859792
H   H25       1.0  0.73838  0.14554  0.04056  1.0000 0.119859792
H   H26       1.0  0.26162  0.85446  0.95944  1.0000 0.119859792
H   H27       1.0  0.67682  0.54099  0.66012  1.0000 0.1134294411
H   H28       1.0  0.32318  0.45901  0.33988  1.0000 0.1134294411
H   H29       1.0  0.66490  0.35090  0.79304  1.0000 0.1309162443
H   H30       1.0  0.33510  0.64910  0.20696  1.0000 0.1309162443
H   H31       1.0  0.83983  0.22927  0.56247  1.0000 0.119859792
H   H32       1.0  0.16017  0.77073  0.43753  1.0000 0.119859792
H   H33       1.0  0.37108  0.50126  0.57660  1.0000 0.119859792
H   H34       1.0  0.62892  0.49874  0.42340  1.0000 0.119859792
H   H35       1.0  0.53529  0.18943  0.47762  1.0000 0.1309162443
H   H36       1.0  0.46471  0.81057  0.52238  1.0000 0.1309162443
C   C1        1.0  0.91580  0.98430  0.56750  1.0000 -0.0210296754
C   C2        1.0  0.08420  0.01570  0.43250  1.0000 -0.0210296754
C   C3        1.0  0.37620  0.64480  0.76200  1.0000 0.0894422028
C   C4        1.0  0.62380  0.35520  0.23800  1.0000 0.0894422028
C   C5        1.0  0.65590  0.76570  0.83130  1.0000 0.0894422028
C   C6        1.0  0.34410  0.23430  0.16870  1.0000 0.0894422028
C   C7        1.0  0.11170  0.02900  0.91600  1.0000 0.5437145596
C   C8        1.0  0.88830  0.97100  0.08400  1.0000 0.5437145596
C   C9        1.0  0.54280  0.67160  0.82180  1.0000 -0.1809275011
C   C10       1.0  0.45720  0.32840  0.17820  1.0000 -0.1809275011
C   C11       1.0  0.31150  0.01390  0.96220  1.0000 -0.0210296754
C   C12       1.0  0.68850  0.98610  0.03780  1.0000 -0.0210296754
C   C13       1.0  0.45440  0.10070  0.98610  1.0000 -0.1214393462
C   C14       1.0  0.54560  0.89930  0.01390  1.0000 -0.1214393462
C   C15       1.0  0.30490  0.17270  0.77360  1.0000 -0.1692873398
C   C16       1.0  0.69510  0.82730  0.22640  1.0000 -0.1692873398
C   C17       1.0  0.26160  0.53880  0.74450  1.0000 0.1993153458
C   C18       1.0  0.73840  0.46120  0.25550  1.0000 0.1993153458
C   C19       1.0  0.07310  0.52000  0.69800  1.0000 -0.2283310404
C   C20       1.0  0.92690  0.48000  0.30200  1.0000 -0.2283310404
C   C21       1.0  0.78860  0.38880  0.62030  1.0000 0.0814021518
C   C22       1.0  0.21140  0.61120  0.37970  1.0000 0.0814021518
C   C23       1.0  0.42300  0.09210  0.79160  1.0000 0.0894422028
C   C24       1.0  0.57700  0.90790  0.20840  1.0000 0.0894422028
C   C25       1.0  0.82060  0.96950  0.64020  1.0000 0.5547747378
C   C26       1.0  0.17940  0.03050  0.35980  1.0000 0.5547747378
C   C27       1.0  0.98450  0.41450  0.67400  1.0000 0.119859792
C   C28       1.0  0.01550  0.58550  0.32600  1.0000 0.119859792
C   C29       1.0  0.08890  0.33240  0.69950  1.0000 -0.2283310404
C   C30       1.0  0.91110  0.66760  0.30050  1.0000 -0.2283310404
C   C31       1.0  0.27440  0.35810  0.74750  1.0000 0.2107074325
C   C32       1.0  0.72560  0.64190  0.25250  1.0000 0.2107074325
C   C33       1.0  0.39270  0.27110  0.77230  1.0000 0.1029489459
C   C34       1.0  0.60730  0.72890  0.22770  1.0000 0.1029489459
C   C35       1.0  0.45280  0.80880  0.72660  1.0000 0.0814021518
C   C36       1.0  0.54720  0.19120  0.27340  1.0000 0.0814021518
C   C37       1.0  0.32960  0.71840  0.71520  1.0000 -0.1809275011
C   C38       1.0  0.67040  0.28160  0.28480  1.0000 -0.1809275011
C   C39       1.0  0.79630  0.98200  0.49350  1.0000 -0.1123639355
C   C40       1.0  0.20370  0.01800  0.50650  1.0000 -0.1123639355
C   C41       1.0  0.87920  0.99840  0.42710  1.0000 -0.1123639355
C   C42       1.0  0.12080  0.00160  0.57290  1.0000 -0.1123639355
C   C43       1.0  0.42490  0.34200  0.52040  1.0000 0.0459381406
C   C44       1.0  0.57510  0.65800  0.47960  1.0000 0.0459381406
C   C45       1.0  0.70790  0.20010  0.81020  1.0000 0.0894422028
C   C46       1.0  0.29210  0.79990  0.18980  1.0000 0.0894422028
C   C47       1.0  0.64170  0.08640  0.02400  1.0000 -0.1123639355
C   C48       1.0  0.35830  0.91360  0.97600  1.0000 -0.1123639355
C   C49       1.0  0.64790  0.46930  0.62350  1.0000 -0.1437070752
C   C50       1.0  0.35210  0.53070  0.37650  1.0000 -0.1437070752
C   C51       1.0  0.59920  0.28410  0.79210  1.0000 -0.1692873398
C   C52       1.0  0.40080  0.71590  0.20790  1.0000 -0.1692873398
C   C53       1.0  0.74420  0.28470  0.56540  1.0000 -0.12972127
C   C54       1.0  0.25580  0.71530  0.43460  1.0000 -0.12972127
C   C55       1.0  0.46690  0.44600  0.57400  1.0000 -0.12972127
C   C56       1.0  0.53310  0.55400  0.42600  1.0000 -0.12972127
C   C57       1.0  0.56390  0.26050  0.51520  1.0000 -0.1123639355
C   C58       1.0  0.43610  0.73950  0.48480  1.0000 -0.1123639355
C   C59       1.0  0.23370  0.32050  0.46780  1.0000 0.2659415667
C   C60       1.0  0.76630  0.67950  0.53220  1.0000 0.2659415667
N   N1        1.0  0.62260  0.10310  0.80857  1.0000 -0.2283310404
N   N2        1.0  0.37740  0.89690  0.19143  1.0000 -0.2283310404
N   N3        1.0  0.61450  0.83480  0.78407  1.0000 -0.236148947
N   N4        1.0  0.38550  0.16520  0.21593  1.0000 -0.236148947
N   N5        1.0  0.36030  0.45910  0.76980  1.0000 -0.3378378088
N   N6        1.0  0.63970  0.54090  0.23020  1.0000 -0.3378378088
N   N7        1.0  0.08740  0.30660  0.42630  1.0000 -0.3536641235
N   N8        1.0  0.91260  0.69340  0.57370  1.0000 -0.3536641235
O   O1        1.0  0.00080  0.94230  0.88373  1.0000 -0.5435410972
O   O2        1.0  0.99920  0.05770  0.11627  1.0000 -0.5435410972
O   O3        1.0  0.63770  0.95200  0.63263  1.0000 -0.5590929623
O   O4        1.0  0.36230  0.04800  0.36737  1.0000 -0.5590929623
O   O5        1.0  0.93940  0.97660  0.70731  1.0000 -0.5490073497
O   O6        1.0  0.06060  0.02340  0.29269  1.0000 -0.5490073497
O   O7        1.0  0.06790  0.12060  0.90860  1.0000 -0.5490073497
O   O8        1.0  0.93210  0.87940  0.09140  1.0000 -0.5490073497
