# DDEC6 charges by PACMAN v1.1 (https://github.com/mtap-research/PACMAN-charge/)
data_2023[Gd][nan]3[FSR]2
_chemical_formula_sum              "Gd4 H86 C102 N2 O32"
_cell_length_a       9.7244
_cell_length_b       13.8269
_cell_length_c       22.6816
_cell_angle_alpha    83.161
_cell_angle_beta     79.17
_cell_angle_gamma    84.514

_symmetry_space_group_name_H-M    "P 1"
_symmetry_Int_Tables_number       1

loop_
  _symmetry_equiv_pos_as_xyz
  'x, y, z'

loop_
  _atom_site_type_symbol
  _atom_site_label
  _atom_site_symmetry_multiplicity
  _atom_site_fract_x
  _atom_site_fract_y
  _atom_site_fract_z
  _atom_site_occupancy
  _atom_site_charge
Gd  Gd1       1.0  0.74444  0.01760  0.50398  1.0000 2.0572239413
Gd  Gd2       1.0  0.25556  0.98240  0.49602  1.0000 2.0572239413
Gd  Gd3       1.0  0.51144  0.56978  0.09784  1.0000 1.9884710564
Gd  Gd4       1.0  0.48856  0.43022  0.90216  1.0000 1.9884710564
H   H1        1.0  0.50426  0.15958  0.48394  1.0000 0.4012373839
H   H2        1.0  0.49574  0.84042  0.51606  1.0000 0.4012373839
H   H3        1.0  0.62869  0.20779  0.45058  1.0000 0.4012373839
H   H4        1.0  0.37131  0.79221  0.54942  1.0000 0.4012373839
H   H5        1.0  0.88388  0.13118  0.57460  1.0000 0.4138452365
H   H6        1.0  0.11612  0.86882  0.42540  1.0000 0.4138452365
H   H7        1.0  0.77015  0.19767  0.55684  1.0000 0.4012373839
H   H8        1.0  0.22985  0.80233  0.44316  1.0000 0.4012373839
H   H9        1.0  0.45938  0.95910  0.29097  1.0000 0.1191686624
H   H10       1.0  0.54062  0.04090  0.70903  1.0000 0.1191686624
H   H11       1.0  0.68053  0.53217  0.18759  1.0000 0.3783059968
H   H12       1.0  0.31947  0.46783  0.81241  1.0000 0.3783059968
H   H13       1.0  0.73740  0.61111  0.14987  1.0000 0.358761008
H   H14       1.0  0.26260  0.38889  0.85013  1.0000 0.358761008
H   H15       1.0  0.58765  0.93810  0.19554  1.0000 0.1191686624
H   H16       1.0  0.41235  0.06190  0.80446  1.0000 0.1191686624
H   H17       1.0  0.72402  0.92870  0.66337  1.0000 0.1191686624
H   H18       1.0  0.27598  0.07130  0.33663  1.0000 0.1191686624
H   H19       1.0  0.74550  0.21528  0.96788  1.0000 0.1191686624
H   H20       1.0  0.25450  0.78472  0.03212  1.0000 0.1191686624
H   H21       1.0  0.48322  0.91339  0.94653  1.0000 0.1116891548
H   H22       1.0  0.51678  0.08661  0.05347  1.0000 0.1116891548
H   H23       1.0  0.84591  0.06333  0.99886  1.0000 0.1116891548
H   H24       1.0  0.15409  0.93667  0.00114  1.0000 0.1116891548
H   H25       1.0  0.11409  0.81666  0.68254  1.0000 0.1191686624
H   H26       1.0  0.88591  0.18334  0.31746  1.0000 0.1191686624
H   H27       1.0  0.66378  0.77970  0.92560  1.0000 0.1301252125
H   H28       1.0  0.33622  0.22030  0.07440  1.0000 0.1301252125
H   H29       1.0  0.02625  0.75074  0.78021  1.0000 0.1191686624
H   H30       1.0  0.97375  0.24926  0.21979  1.0000 0.1191686624
H   H31       1.0  0.78644  0.69735  0.85479  1.0000 0.1191686624
H   H32       1.0  0.21356  0.30265  0.14521  1.0000 0.1191686624
H   H33       1.0  0.62338  0.66762  0.52710  1.0000 0.1116891548
H   H34       1.0  0.37662  0.33238  0.47290  1.0000 0.1116891548
H   H35       1.0  0.78536  0.51770  0.95396  1.0000 0.1116891548
H   H36       1.0  0.21464  0.48230  0.04604  1.0000 0.1116891548
H   H37       1.0  0.63735  0.86898  0.76179  1.0000 0.1191686624
H   H38       1.0  0.36265  0.13102  0.23821  1.0000 0.1191686624
H   H39       1.0  0.77544  0.13509  0.82667  1.0000 0.1191686624
H   H40       1.0  0.22456  0.86491  0.17333  1.0000 0.1191686624
H   H41       1.0  0.98393  0.71825  0.41207  1.0000 0.1116891548
H   H42       1.0  0.01607  0.28175  0.58793  1.0000 0.1116891548
H   H43       1.0  0.94575  0.94004  0.26000  1.0000 0.1191686624
H   H44       1.0  0.05425  0.05996  0.74000  1.0000 0.1191686624
H   H45       1.0  0.03958  0.50647  0.22394  1.0000 0.1191686624
H   H46       1.0  0.96042  0.49353  0.77606  1.0000 0.1191686624
H   H47       1.0  0.84122  0.96897  0.82999  1.0000 0.1116891548
H   H48       1.0  0.15878  0.03103  0.17001  1.0000 0.1116891548
H   H49       1.0  0.81066  0.36536  0.48531  1.0000 0.1116891548
H   H50       1.0  0.18934  0.63464  0.51469  1.0000 0.1116891548
H   H51       1.0  0.22366  0.31272  0.37732  1.0000 0.1191686624
H   H52       1.0  0.77634  0.68728  0.62268  1.0000 0.1191686624
H   H53       1.0  0.02343  0.55219  0.40087  1.0000 0.1116891548
H   H54       1.0  0.97657  0.44781  0.59913  1.0000 0.1116891548
H   H55       1.0  0.65909  0.50415  0.51324  1.0000 0.1191686624
H   H56       1.0  0.34091  0.49585  0.48676  1.0000 0.1116891548
H   H57       1.0  0.81901  0.96426  0.35483  1.0000 0.1191686624
H   H58       1.0  0.18099  0.03574  0.64517  1.0000 0.1191686624
H   H59       1.0  0.74392  0.12009  0.17280  1.0000 0.1116891548
H   H60       1.0  0.25608  0.87991  0.82720  1.0000 0.1116891548
H   H61       1.0  0.95668  0.28030  0.42318  1.0000 0.1191686624
H   H62       1.0  0.04332  0.71970  0.57682  1.0000 0.1191686624
H   H63       1.0  0.41770  0.07871  0.94440  1.0000 0.1191686624
H   H64       1.0  0.58230  0.92129  0.05560  1.0000 0.1191686624
H   H65       1.0  0.63269  0.26943  0.14289  1.0000 0.1191686624
H   H66       1.0  0.36731  0.73057  0.85711  1.0000 0.1191686624
H   H67       1.0  0.89451  0.45905  0.31590  1.0000 0.1116891548
H   H68       1.0  0.10549  0.54095  0.68410  1.0000 0.1116891548
H   H69       1.0  0.03260  0.64345  0.88011  1.0000 0.1301252125
H   H70       1.0  0.96740  0.35655  0.11989  1.0000 0.1301252125
H   H71       1.0  0.99169  0.53265  0.89465  1.0000 0.13718542
H   H72       1.0  0.00831  0.46735  0.10535  1.0000 0.13718542
H   H73       1.0  0.10801  0.56983  0.92625  1.0000 0.1301252125
H   H74       1.0  0.89199  0.43017  0.07375  1.0000 0.1301252125
H   H75       1.0  0.92839  0.86679  0.15659  1.0000 0.1191686624
H   H76       1.0  0.07161  0.13321  0.84341  1.0000 0.1191686624
H   H77       1.0  0.37054  0.37139  0.28998  1.0000 0.1191686624
H   H78       1.0  0.62946  0.62861  0.71002  1.0000 0.1191686624
H   H79       1.0  0.93071  0.94967  0.07091  1.0000 0.1191686624
H   H80       1.0  0.06929  0.05033  0.92909  1.0000 0.1191686624
H   H81       1.0  0.95637  0.75324  0.96288  1.0000 0.1301252125
H   H82       1.0  0.04363  0.24676  0.03712  1.0000 0.1301252125
H   H83       1.0  0.00726  0.67838  0.01532  1.0000 0.1301252125
H   H84       1.0  0.99274  0.32162  0.98468  1.0000 0.1301252125
H   H85       1.0  0.84435  0.71346  0.01955  1.0000 0.1470874651
H   H86       1.0  0.15565  0.28654  0.98045  1.0000 0.1470874651
C   C1        1.0  0.92830  0.87740  0.66280  1.0000 -0.049445697
C   C2        1.0  0.07170  0.12260  0.33720  1.0000 -0.049445697
C   C3        1.0  0.98330  0.91690  0.59940  1.0000 0.6401446118
C   C4        1.0  0.01670  0.08310  0.40060  1.0000 0.6401446118
C   C5        1.0  0.60950  0.35720  0.03410  1.0000 0.6345609679
C   C6        1.0  0.39050  0.64280  0.96590  1.0000 0.6345609679
C   C7        1.0  0.66740  0.92330  0.88730  1.0000 0.1191686624
C   C8        1.0  0.33260  0.07670  0.11270  1.0000 0.1191686624
C   C9        1.0  0.55900  0.95560  0.28470  1.0000 -0.0999139196
C   C10       1.0  0.44100  0.04440  0.71530  1.0000 -0.0999139196
C   C11       1.0  0.80340  0.71000  0.47240  1.0000 -0.0404129102
C   C12       1.0  0.19660  0.29000  0.52760  1.0000 -0.0404129102
C   C13       1.0  0.63580  0.94340  0.22770  1.0000 -0.1507874366
C   C14       1.0  0.36420  0.05660  0.77230  1.0000 -0.1507874366
C   C15       1.0  0.78580  0.89310  0.68740  1.0000 -0.0999139196
C   C16       1.0  0.21420  0.10690  0.31260  1.0000 -0.0999139196
C   C17       1.0  0.78440  0.81420  0.48480  1.0000 0.5771899475
C   C18       1.0  0.21560  0.18580  0.51520  1.0000 0.5771899475
C   C19       1.0  0.62610  0.96260  0.33280  1.0000 -0.0404129102
C   C20       1.0  0.37390  0.03740  0.66720  1.0000 -0.0404129102
C   C21       1.0  0.74320  0.19600  0.00970  1.0000 -0.0999139196
C   C22       1.0  0.25680  0.80400  0.99030  1.0000 -0.0999139196
C   C23       1.0  0.54270  0.95840  0.92160  1.0000 -0.1507874366
C   C24       1.0  0.45730  0.04160  0.07840  1.0000 -0.1507874366
C   C25       1.0  0.54390  0.97690  0.39410  1.0000 0.647261317
C   C26       1.0  0.45610  0.02310  0.60590  1.0000 0.647261317
C   C27       1.0  0.82360  0.80490  0.78130  1.0000 0.1191686624
C   C28       1.0  0.17640  0.19510  0.21870  1.0000 0.1191686624
C   C29       1.0  0.80360  0.10560  0.02840  1.0000 -0.1694697188
C   C30       1.0  0.19640  0.89440  0.97160  1.0000 -0.1694697188
C   C31       1.0  0.01670  0.82620  0.69830  1.0000 -0.0909183444
C   C32       1.0  0.98330  0.17380  0.30170  1.0000 -0.0909183444
C   C33       1.0  0.67840  0.25910  0.05260  1.0000 -0.049445697
C   C34       1.0  0.32160  0.74090  0.94740  1.0000 -0.049445697
C   C35       1.0  0.69840  0.81680  0.88870  1.0000 -0.1342245684
C   C36       1.0  0.30160  0.18320  0.11130  1.0000 -0.1342245684
C   C37       1.0  0.96490  0.78830  0.75680  1.0000 -0.1575363678
C   C38       1.0  0.03510  0.21170  0.24320  1.0000 -0.1575363678
C   C39       1.0  0.76920  0.76550  0.84470  1.0000 -0.1507874366
C   C40       1.0  0.23080  0.23450  0.15530  1.0000 -0.1429274256
C   C41       1.0  0.21930  0.44610  0.24880  1.0000 -0.0199977843
C   C42       1.0  0.78070  0.55390  0.75120  1.0000 -0.0199977843
C   C43       1.0  0.54460  0.23190  0.88330  1.0000 0.5492127194
C   C44       1.0  0.45540  0.76810  0.11670  1.0000 0.5492127194
C   C45       1.0  0.70560  0.64470  0.50130  1.0000 -0.0999139196
C   C46       1.0  0.29440  0.35530  0.49870  1.0000 -0.0999139196
C   C47       1.0  0.79630  0.56860  0.97700  1.0000 0.3253904833
C   C48       1.0  0.20370  0.43140  0.02300  1.0000 0.3253904833
C   C49       1.0  0.73430  0.85760  0.74570  1.0000 -0.1429274256
C   C50       1.0  0.26570  0.14240  0.25430  1.0000 -0.1429274256
C   C51       1.0  0.78060  0.93880  0.21660  1.0000 0.1191686624
C   C52       1.0  0.21940  0.06120  0.78340  1.0000 0.1191686624
C   C53       1.0  0.71500  0.09000  0.85090  1.0000 -0.1079084081
C   C54       1.0  0.28500  0.91000  0.14910  1.0000 -0.1079084081
C   C55       1.0  0.91830  0.67440  0.43390  1.0000 -0.0909183444
C   C56       1.0  0.08170  0.32560  0.56610  1.0000 -0.0909183444
C   C57       1.0  0.84340  0.50980  0.45520  1.0000 0.1191686624
C   C58       1.0  0.15660  0.49020  0.54480  1.0000 0.1191686624
C   C59       1.0  0.84610  0.94510  0.26590  1.0000 -0.1507874366
C   C60       1.0  0.15390  0.05490  0.73410  1.0000 -0.1507874366
C   C61       1.0  0.58730  0.12480  0.88440  1.0000 -0.0277337552
C   C62       1.0  0.41270  0.87520  0.11560  1.0000 -0.0277337552
C   C63       1.0  0.07890  0.47000  0.25580  1.0000 -0.1079084081
C   C64       1.0  0.92110  0.53000  0.74420  1.0000 -0.1079084081
C   C65       1.0  0.80460  0.07440  0.08900  1.0000 0.1191686624
C   C66       1.0  0.19540  0.92560  0.91100  1.0000 0.1191686624
C   C67       1.0  0.31860  0.48130  0.19250  1.0000 0.574662949
C   C68       1.0  0.68140  0.51870  0.80750  1.0000 0.574662949
C   C69       1.0  0.75390  0.99100  0.85270  1.0000 -0.1507874366
C   C70       1.0  0.24610  0.00900  0.14730  1.0000 -0.1507874366
C   C71       1.0  0.04640  0.38500  0.35660  1.0000 0.1116891548
C   C72       1.0  0.95360  0.61500  0.64340  1.0000 0.1116891548
C   C73       1.0  0.86640  0.40270  0.45340  1.0000 -0.1575363678
C   C74       1.0  0.13360  0.59730  0.54660  1.0000 -0.1575363678
C   C75       1.0  0.18590  0.35570  0.34750  1.0000 -0.1429274256
C   C76       1.0  0.81410  0.64430  0.65250  1.0000 -0.1429274256
C   C77       1.0  0.94060  0.57530  0.42620  1.0000 -0.1507874366
C   C78       1.0  0.05940  0.42470  0.57380  1.0000 -0.1507874366
C   C79       1.0  0.72700  0.54730  0.49270  1.0000 -0.1575363678
C   C80       1.0  0.27300  0.45270  0.50730  1.0000 -0.1575363678
C   C81       1.0  0.77120  0.95820  0.32270  1.0000 -0.0909183444
C   C82       1.0  0.22880  0.04180  0.67730  1.0000 -0.0909183444
C   C83       1.0  0.74230  0.13830  0.13120  1.0000 -0.1507874366
C   C84       1.0  0.25770  0.86170  0.86880  1.0000 -0.1507874366
C   C85       1.0  0.95400  0.34920  0.41360  1.0000 -0.1342245684
C   C86       1.0  0.04600  0.65080  0.58640  1.0000 -0.1342245684
C   C87       1.0  0.50340  0.05690  0.92040  1.0000 -0.0999139196
C   C88       1.0  0.49660  0.94310  0.07960  1.0000 -0.0999139196
C   C89       1.0  0.67790  0.22830  0.11320  1.0000 -0.0999139196
C   C90       1.0  0.32210  0.77170  0.88680  1.0000 -0.0999139196
C   C91       1.0  0.99230  0.44050  0.31050  1.0000 -0.1575363678
C   C92       1.0  0.00770  0.55950  0.68950  1.0000 -0.1575363678
C   C93       1.0  0.01970  0.58830  0.91150  1.0000 -0.3501119064
C   C94       1.0  0.98030  0.41170  0.08850  1.0000 -0.3501119064
C   C95       1.0  0.86670  0.92440  0.15720  1.0000 -0.1429274256
C   C96       1.0  0.13330  0.07560  0.84280  1.0000 -0.1429274256
C   C97       1.0  0.27240  0.38860  0.29470  1.0000 -0.0909183444
C   C98       1.0  0.72760  0.61140  0.70530  1.0000 -0.0909183444
C   C99       1.0  0.87310  0.97820  0.10400  1.0000 -0.1507874366
C   C100      1.0  0.12690  0.02180  0.89600  1.0000 -0.1507874366
C   C101      1.0  0.93170  0.69670  0.99210  1.0000 -0.3325909422
C   C102      1.0  0.06830  0.30330  0.00790  1.0000 -0.3325909422
N   N1        1.0  0.91250  0.61580  0.96050  1.0000 0.0207552268
N   N2        1.0  0.08750  0.38420  0.03950  1.0000 0.0207552268
O   O1        1.0  0.89950  0.95250  0.56570  1.0000 -0.673727964
O   O2        1.0  0.10050  0.04750  0.43430  1.0000 -0.673727964
O   O3        1.0  0.11420  0.91200  0.58269  1.0000 -0.6596509051
O   O4        1.0  0.88580  0.08800  0.41731  1.0000 -0.6596509051
O   O5        1.0  0.41240  0.97170  0.40238  1.0000 -0.6596509051
O   O6        1.0  0.58760  0.02830  0.59762  1.0000 -0.6596509051
O   O7        1.0  0.60600  0.99570  0.43434  1.0000 -0.6786923156
O   O8        1.0  0.39400  0.00430  0.56566  1.0000 -0.6786923156
O   O9        1.0  0.59750  0.17020  0.48812  1.0000 -0.8081039534
O   O10       1.0  0.40250  0.82980  0.51188  1.0000 -0.8081039534
O   O11       1.0  0.87380  0.87300  0.45650  1.0000 -0.6313921657
O   O12       1.0  0.12620  0.12700  0.54350  1.0000 -0.6313921657
O   O13       1.0  0.67950  0.84530  0.52260  1.0000 -0.6596509051
O   O14       1.0  0.32050  0.15470  0.47740  1.0000 -0.6499878314
O   O15       1.0  0.61310  0.37970  0.97760  1.0000 -0.6905553089
O   O16       1.0  0.38690  0.62030  0.02240  1.0000 -0.6905553089
O   O17       1.0  0.62600  0.29340  0.85240  1.0000 -0.6313921657
O   O18       1.0  0.37400  0.70660  0.14760  1.0000 -0.6313921657
O   O19       1.0  0.55500  0.40960  0.07420  1.0000 -0.6499878314
O   O20       1.0  0.44500  0.59040  0.92580  1.0000 -0.6499878314
O   O21       1.0  0.84060  0.15170  0.54090  1.0000 -0.7766142831
O   O22       1.0  0.15940  0.84830  0.45910  1.0000 -0.7766142831
O   O23       1.0  0.27510  0.51120  0.14430  1.0000 -0.6168643282
O   O24       1.0  0.72490  0.48880  0.85570  1.0000 -0.6168643282
O   O25       1.0  0.70310  0.58510  0.01900  1.0000 -0.5294272648
O   O26       1.0  0.29690  0.41490  0.98100  1.0000 -0.5294272648
O   O27       1.0  0.44810  0.48230  0.19560  1.0000 -0.6596509051
O   O28       1.0  0.55190  0.51770  0.80440  1.0000 -0.6596509051
O   O29       1.0  0.70690  0.55300  0.14890  1.0000 -0.7681908355
O   O30       1.0  0.29310  0.44700  0.85110  1.0000 -0.7681908355
O   O31       1.0  0.43050  0.25950  0.91460  1.0000 -0.6313921657
O   O32       1.0  0.56950  0.74050  0.08540  1.0000 -0.6313921657
