# DDEC6 charges by PACMAN v1.1 (https://github.com/mtap-research/PACMAN-charge/)
data_2023[Co][hcb]2[FSR]3
_chemical_formula_sum              "Co3 H50 C38 S2 N8 O20"
_cell_length_a       8.4924
_cell_length_b       9.2793
_cell_length_c       17.384
_cell_angle_alpha    93.71
_cell_angle_beta     98.073
_cell_angle_gamma    114.733

_symmetry_space_group_name_H-M    "P 1"
_symmetry_Int_Tables_number       1

loop_
  _symmetry_equiv_pos_as_xyz
  'x, y, z'

loop_
  _atom_site_type_symbol
  _atom_site_label
  _atom_site_symmetry_multiplicity
  _atom_site_fract_x
  _atom_site_fract_y
  _atom_site_fract_z
  _atom_site_occupancy
  _atom_site_charge
Co  Co1       1.0  0.52437  0.32857  0.74261  1.0000 0.9389218018
Co  Co2       1.0  0.47563  0.67143  0.25739  1.0000 0.9389218018
Co  Co3       1.0  0.00000  0.50000  0.00000  1.0000 1.1469367073
H   H1        1.0  0.90224  0.46721  0.71215  1.0000 0.284180753
H   H2        1.0  0.09776  0.53279  0.28785  1.0000 0.284180753
H   H3        1.0  0.86869  0.71601  0.31773  1.0000 0.292093359
H   H4        1.0  0.13131  0.28399  0.68227  1.0000 0.292093359
H   H5        1.0  0.00028  0.91170  0.58491  1.0000 0.1066591368
H   H6        1.0  0.99972  0.08830  0.41509  1.0000 0.1066591368
H   H7        1.0  0.80954  0.90225  0.58850  1.0000 0.1066591368
H   H8        1.0  0.19046  0.09775  0.41150  1.0000 0.1066591368
H   H9        1.0  0.44025  0.55408  0.55454  1.0000 0.1497502138
H   H10       1.0  0.55975  0.44592  0.44546  1.0000 0.1497502138
H   H11       1.0  0.51676  0.72063  0.61110  1.0000 0.1497502138
H   H12       1.0  0.48324  0.27937  0.38890  1.0000 0.1497502138
H   H13       1.0  0.41723  0.55566  0.64434  1.0000 0.1434871034
H   H14       1.0  0.58277  0.44434  0.35566  1.0000 0.1434871034
H   H15       1.0  0.19350  0.68059  0.70458  1.0000 0.1631311999
H   H16       1.0  0.80650  0.31941  0.29542  1.0000 0.1631311999
H   H17       1.0  0.19816  0.82338  0.65660  1.0000 0.1497502138
H   H18       1.0  0.80184  0.17662  0.34340  1.0000 0.1497502138
H   H19       1.0  0.16833  0.65601  0.61094  1.0000 0.1497502138
H   H20       1.0  0.83167  0.34399  0.38906  1.0000 0.1497502138
H   H21       1.0  0.50191  0.89855  0.41091  1.0000 0.1497502138
H   H22       1.0  0.49809  0.10145  0.58909  1.0000 0.1497502138
H   H23       1.0  0.57566  0.91067  0.50217  1.0000 0.1434871034
H   H24       1.0  0.42434  0.08933  0.49783  1.0000 0.1434871034
H   H25       1.0  0.43373  0.74242  0.45416  1.0000 0.1497502138
H   H26       1.0  0.56627  0.25758  0.54584  1.0000 0.1497502138
H   H27       1.0  0.05990  0.63929  0.46886  1.0000 0.1497502138
H   H28       1.0  0.94010  0.36071  0.53114  1.0000 0.1497502138
H   H29       1.0  0.16785  0.82891  0.49330  1.0000 0.1497502138
H   H30       1.0  0.83215  0.17109  0.50670  1.0000 0.1497502138
H   H31       1.0  0.13911  0.75142  0.40455  1.0000 0.1497502138
H   H32       1.0  0.86089  0.24858  0.59545  1.0000 0.1497502138
H   H33       1.0  0.52233  0.88785  0.77150  1.0000 0.1278278084
H   H34       1.0  0.47767  0.11215  0.22850  1.0000 0.1278278084
H   H35       1.0  0.04946  0.08297  0.77763  1.0000 0.1066591368
H   H36       1.0  0.95054  0.91703  0.22237  1.0000 0.1066591368
H   H37       1.0  0.06214  0.85946  0.82314  1.0000 0.1278278084
H   H38       1.0  0.93786  0.14054  0.17686  1.0000 0.1278278084
H   H39       1.0  0.67258  0.26040  0.94503  1.0000 0.4106755878
H   H40       1.0  0.32742  0.73960  0.05497  1.0000 0.4106755878
H   H41       1.0  0.65598  0.37656  0.01599  1.0000 0.4173941042
H   H42       1.0  0.34402  0.62344  0.98401  1.0000 0.4173941042
H   H43       1.0  0.95897  0.73575  0.07743  1.0000 0.4173941042
H   H44       1.0  0.04103  0.26425  0.92257  1.0000 0.4173941042
H   H45       1.0  0.99833  0.62685  0.14176  1.0000 0.4106755878
H   H46       1.0  0.00167  0.37315  0.85824  1.0000 0.4106755878
H   H47       1.0  0.40342  0.09007  0.82866  1.0000 0.4173941042
H   H48       1.0  0.59658  0.90993  0.17134  1.0000 0.4173941042
H   H49       1.0  0.31221  0.21150  0.84555  1.0000 0.4106755878
H   H50       1.0  0.68779  0.78850  0.15445  1.0000 0.4106755878
C   C1        1.0  0.66810  0.59820  0.63050  1.0000 0.2156358586
C   C2        1.0  0.33190  0.40180  0.36950  1.0000 0.2156358586
C   C3        1.0  0.83190  0.69990  0.61370  1.0000 -0.1146725229
C   C4        1.0  0.16810  0.30010  0.38630  1.0000 -0.1146725229
C   C5        1.0  0.94910  0.64730  0.65010  1.0000 0.193565853
C   C6        1.0  0.05090  0.35270  0.34990  1.0000 0.193565853
C   C7        1.0  0.68280  0.80580  0.43080  1.0000 0.2055641637
C   C8        1.0  0.31720  0.19420  0.56920  1.0000 0.2055641637
C   C9        1.0  0.82400  0.80490  0.48190  1.0000 -0.1146725229
C   C10       1.0  0.17600  0.19510  0.51810  1.0000 -0.1146725229
C   C11       1.0  0.91810  0.76240  0.43270  1.0000 0.193565853
C   C12       1.0  0.08190  0.23760  0.56730  1.0000 0.193565853
C   C13       1.0  0.87230  0.84120  0.57040  1.0000 -0.2176640405
C   C14       1.0  0.12770  0.15880  0.42960  1.0000 -0.2176640405
C   C15       1.0  0.49560  0.60800  0.60820  1.0000 -0.4834986924
C   C16       1.0  0.50440  0.39200  0.39180  1.0000 -0.4834986924
C   C17       1.0  0.14410  0.70700  0.65610  1.0000 -0.4879105538
C   C18       1.0  0.85590  0.29300  0.34390  1.0000 -0.4879105538
C   C19       1.0  0.53570  0.84260  0.45130  1.0000 -0.4879105538
C   C20       1.0  0.46430  0.15740  0.54870  1.0000 -0.4879105538
C   C21       1.0  0.08570  0.74390  0.45150  1.0000 -0.4834986924
C   C22       1.0  0.91430  0.25610  0.54850  1.0000 -0.4834986924
C   C23       1.0  0.82430  0.60680  0.86670  1.0000 0.5986121223
C   C24       1.0  0.17570  0.39320  0.13330  1.0000 0.5986121223
C   C25       1.0  0.80330  0.74170  0.83080  1.0000 -0.038830202
C   C26       1.0  0.19670  0.25830  0.16920  1.0000 -0.038830202
C   C27       1.0  0.64080  0.75080  0.81470  1.0000 -0.1016545853
C   C28       1.0  0.35920  0.24920  0.18530  1.0000 -0.1016545853
C   C29       1.0  0.63280  0.88370  0.78360  1.0000 -0.1207818593
C   C30       1.0  0.36720  0.11630  0.21640  1.0000 -0.1207818593
C   C31       1.0  0.78480  0.00990  0.77030  1.0000 -0.026148254
C   C32       1.0  0.21520  0.99010  0.22970  1.0000 -0.026148254
C   C33       1.0  0.94460  0.99820  0.78640  1.0000 -0.1207818593
C   C34       1.0  0.05540  0.00180  0.21360  1.0000 -0.1207818593
C   C35       1.0  0.95250  0.86610  0.81460  1.0000 -0.1016545853
C   C36       1.0  0.04750  0.13390  0.18540  1.0000 -0.1016545853
C   C37       1.0  0.77690  0.16060  0.74630  1.0000 0.5655868576
C   C38       1.0  0.22310  0.83940  0.25370  1.0000 0.5655868576
S   S1        1.0  0.44450  0.60220  0.83711  1.0000 1.1757934616
S   S2        1.0  0.55550  0.39780  0.16289  1.0000 1.1757934616
N   N1        1.0  0.68220  0.49120  0.67450  1.0000 -0.2971282079
N   N2        1.0  0.31780  0.50880  0.32550  1.0000 -0.2971282079
N   N3        1.0  0.85650  0.52220  0.68540  1.0000 -0.1456778719
N   N4        1.0  0.14350  0.47780  0.31460  1.0000 -0.1456778719
N   N5        1.0  0.68600  0.76850  0.35610  1.0000 -0.2927757575
N   N6        1.0  0.31400  0.23150  0.64390  1.0000 -0.2927757575
N   N7        1.0  0.83340  0.74270  0.35940  1.0000 -0.14295388
N   N8        1.0  0.16660  0.25730  0.64060  1.0000 -0.14295388
O   O1        1.0  0.72580  0.46130  0.84030  1.0000 -0.5675410702
O   O2        1.0  0.27420  0.53870  0.15970  1.0000 -0.5675410702
O   O3        1.0  0.94870  0.64940  0.92500  1.0000 -0.559500195
O   O4        1.0  0.05130  0.35060  0.07500  1.0000 -0.559500195
O   O5        1.0  0.62570  0.15810  0.72950  1.0000 -0.5796121432
O   O6        1.0  0.37430  0.84190  0.27050  1.0000 -0.5796121432
O   O7        1.0  0.92120  0.27940  0.74590  1.0000 -0.559500195
O   O8        1.0  0.07880  0.72060  0.25410  1.0000 -0.559500195
O   O9        1.0  0.38540  0.46380  0.77730  1.0000 -0.6281049921
O   O10       1.0  0.61460  0.53620  0.22270  1.0000 -0.6281049921
O   O11       1.0  0.48970  0.56890  0.91580  1.0000 -0.5796121432
O   O12       1.0  0.51030  0.43110  0.08420  1.0000 -0.5796121432
O   O13       1.0  0.31720  0.66970  0.83190  1.0000 -0.5796121432
O   O14       1.0  0.68280  0.33030  0.16810  1.0000 -0.5796121432
O   O15       1.0  0.72580  0.35170  0.98410  1.0000 -0.7701132371
O   O16       1.0  0.27420  0.64830  0.01590  1.0000 -0.7701132371
O   O17       1.0  0.98270  0.64730  0.08910  1.0000 -0.7556824162
O   O18       1.0  0.01730  0.35270  0.91090  1.0000 -0.7556824162
O   O19       1.0  0.38890  0.18400  0.81950  1.0000 -0.7371946944
O   O20       1.0  0.61110  0.81600  0.18050  1.0000 -0.7371946944
