# DDEC6 charges by PACMAN v1.1 (https://github.com/mtap-research/PACMAN-charge/)
data_2023[Co][hcb]2[FSR]5
_chemical_formula_sum              "Co8 H64 C160 O48"
_cell_length_a       11.435
_cell_length_b       18.9411
_cell_length_c       23.3417
_cell_angle_alpha    90
_cell_angle_beta     90
_cell_angle_gamma    90

_symmetry_space_group_name_H-M    "P 1"
_symmetry_Int_Tables_number       1

loop_
  _symmetry_equiv_pos_as_xyz
  'x, y, z'

loop_
  _atom_site_type_symbol
  _atom_site_label
  _atom_site_symmetry_multiplicity
  _atom_site_fract_x
  _atom_site_fract_y
  _atom_site_fract_z
  _atom_site_occupancy
  _atom_site_charge
Co  Co1       1.0  0.25291  0.86240  0.87502  1.0000 0.9274992622
Co  Co2       1.0  0.24709  0.36240  0.12498  1.0000 0.9274992622
Co  Co3       1.0  0.25291  0.36240  0.62498  1.0000 0.9274992622
Co  Co4       1.0  0.24709  0.86240  0.37502  1.0000 0.9274992622
Co  Co5       1.0  0.74709  0.63760  0.37502  1.0000 0.9274992622
Co  Co6       1.0  0.75291  0.13760  0.62498  1.0000 0.9274992622
Co  Co7       1.0  0.74709  0.13760  0.12498  1.0000 0.9274992622
Co  Co8       1.0  0.75291  0.63760  0.87502  1.0000 0.9274992622
H   H1        1.0  0.45091  0.01456  0.12586  1.0000 0.1381291612
H   H2        1.0  0.04909  0.51456  0.87414  1.0000 0.1381291612
H   H3        1.0  0.45091  0.51456  0.37414  1.0000 0.1381291612
H   H4        1.0  0.04909  0.01456  0.62586  1.0000 0.1381291612
H   H5        1.0  0.04588  0.01376  0.12453  1.0000 0.1381291612
H   H6        1.0  0.45412  0.51376  0.87547  1.0000 0.1381291612
H   H7        1.0  0.04588  0.51376  0.37547  1.0000 0.1381291612
H   H8        1.0  0.45412  0.01376  0.62453  1.0000 0.1381291612
H   H9        1.0  0.45637  0.95157  0.22149  1.0000 0.1542087901
H   H10       1.0  0.04363  0.45157  0.77851  1.0000 0.1542087901
H   H11       1.0  0.45637  0.45157  0.27851  1.0000 0.1542087901
H   H12       1.0  0.04363  0.95157  0.72149  1.0000 0.1542087901
H   H13       1.0  0.03942  0.94910  0.21976  1.0000 0.1542087901
H   H14       1.0  0.46058  0.44910  0.78024  1.0000 0.1542087901
H   H15       1.0  0.03942  0.44910  0.28024  1.0000 0.1542087901
H   H16       1.0  0.46058  0.94910  0.71976  1.0000 0.1542087901
H   H17       1.0  0.45925  0.95128  0.02993  1.0000 0.1542087901
H   H18       1.0  0.04075  0.45128  0.97007  1.0000 0.1542087901
H   H19       1.0  0.45925  0.45128  0.47007  1.0000 0.1542087901
H   H20       1.0  0.04075  0.95128  0.52993  1.0000 0.1542087901
H   H21       1.0  0.04136  0.94878  0.02896  1.0000 0.1542087901
H   H22       1.0  0.45864  0.44878  0.97104  1.0000 0.1542087901
H   H23       1.0  0.04136  0.44878  0.47104  1.0000 0.1542087901
H   H24       1.0  0.45864  0.94878  0.52896  1.0000 0.1542087901
H   H25       1.0  0.45998  0.14702  0.12755  1.0000 0.1774591595
H   H26       1.0  0.04002  0.64702  0.87245  1.0000 0.1774591595
H   H27       1.0  0.45998  0.64702  0.37245  1.0000 0.1774591595
H   H28       1.0  0.04002  0.14702  0.62755  1.0000 0.1774591595
H   H29       1.0  0.03551  0.14632  0.12187  1.0000 0.1774591595
H   H30       1.0  0.46449  0.64632  0.87813  1.0000 0.1774591595
H   H31       1.0  0.03551  0.64632  0.37813  1.0000 0.1774591595
H   H32       1.0  0.46449  0.14632  0.62187  1.0000 0.1774591595
H   H33       1.0  0.54909  0.48544  0.62586  1.0000 0.1381291612
H   H34       1.0  0.95091  0.98544  0.37414  1.0000 0.1381291612
H   H35       1.0  0.54909  0.98544  0.87414  1.0000 0.1381291612
H   H36       1.0  0.95091  0.48544  0.12586  1.0000 0.1381291612
H   H37       1.0  0.95412  0.48624  0.62453  1.0000 0.1381291612
H   H38       1.0  0.54588  0.98624  0.37547  1.0000 0.1381291612
H   H39       1.0  0.95412  0.98624  0.87547  1.0000 0.1381291612
H   H40       1.0  0.54588  0.48624  0.12453  1.0000 0.1381291612
H   H41       1.0  0.54363  0.54843  0.72149  1.0000 0.1542087901
H   H42       1.0  0.95637  0.04843  0.27851  1.0000 0.1542087901
H   H43       1.0  0.54363  0.04843  0.77851  1.0000 0.1542087901
H   H44       1.0  0.95637  0.54843  0.22149  1.0000 0.1542087901
H   H45       1.0  0.96058  0.55090  0.71976  1.0000 0.1542087901
H   H46       1.0  0.53942  0.05090  0.28024  1.0000 0.1542087901
H   H47       1.0  0.96058  0.05090  0.78024  1.0000 0.1542087901
H   H48       1.0  0.53942  0.55090  0.21976  1.0000 0.1542087901
H   H49       1.0  0.54075  0.54872  0.52993  1.0000 0.1542087901
H   H50       1.0  0.95925  0.04872  0.47007  1.0000 0.1542087901
H   H51       1.0  0.54075  0.04872  0.97007  1.0000 0.1542087901
H   H52       1.0  0.95925  0.54872  0.02993  1.0000 0.1542087901
H   H53       1.0  0.95864  0.55122  0.52896  1.0000 0.1542087901
H   H54       1.0  0.54136  0.05122  0.47104  1.0000 0.1542087901
H   H55       1.0  0.95864  0.05122  0.97104  1.0000 0.1542087901
H   H56       1.0  0.54136  0.55122  0.02896  1.0000 0.1542087901
H   H57       1.0  0.54002  0.35298  0.62755  1.0000 0.1774591595
H   H58       1.0  0.95998  0.85298  0.37245  1.0000 0.1774591595
H   H59       1.0  0.54002  0.85298  0.87245  1.0000 0.1774591595
H   H60       1.0  0.95998  0.35298  0.12755  1.0000 0.1774591595
H   H61       1.0  0.96449  0.35368  0.62187  1.0000 0.1774591595
H   H62       1.0  0.53551  0.85368  0.37813  1.0000 0.1774591595
H   H63       1.0  0.96449  0.85368  0.87813  1.0000 0.1774591595
H   H64       1.0  0.53551  0.35368  0.12187  1.0000 0.1774591595
C   C1        1.0  0.36350  0.01483  0.12560  1.0000 -0.1181687042
C   C2        1.0  0.13650  0.51483  0.87440  1.0000 -0.1181687042
C   C3        1.0  0.36350  0.51483  0.37440  1.0000 -0.1181687042
C   C4        1.0  0.13650  0.01483  0.62560  1.0000 -0.1181687042
C   C5        1.0  0.13330  0.01434  0.12482  1.0000 -0.1181687042
C   C6        1.0  0.36670  0.51434  0.87518  1.0000 -0.1181687042
C   C7        1.0  0.13330  0.51434  0.37518  1.0000 -0.1181687042
C   C8        1.0  0.36670  0.01434  0.62482  1.0000 -0.1181687042
C   C9        1.0  0.31120  0.97940  0.17750  1.0000 0.0679068693
C   C10       1.0  0.18880  0.47940  0.82250  1.0000 0.0679068693
C   C11       1.0  0.31120  0.47940  0.32250  1.0000 0.0679068693
C   C12       1.0  0.18880  0.97940  0.67750  1.0000 0.0679068693
C   C13       1.0  0.18470  0.97893  0.17700  1.0000 0.0679068693
C   C14       1.0  0.31530  0.47893  0.82300  1.0000 0.0679068693
C   C15       1.0  0.18470  0.47893  0.32300  1.0000 0.0679068693
C   C16       1.0  0.31530  0.97893  0.67700  1.0000 0.0679068693
C   C17       1.0  0.37330  0.95173  0.22226  1.0000 -0.2774837152
C   C18       1.0  0.12670  0.45173  0.77774  1.0000 -0.2774837152
C   C19       1.0  0.37330  0.45173  0.27774  1.0000 -0.2774837152
C   C20       1.0  0.12670  0.95173  0.72226  1.0000 -0.2774837152
C   C21       1.0  0.12240  0.95012  0.22109  1.0000 -0.2747483574
C   C22       1.0  0.37760  0.45012  0.77891  1.0000 -0.2747483574
C   C23       1.0  0.12240  0.45012  0.27891  1.0000 -0.2747483574
C   C24       1.0  0.37760  0.95012  0.72109  1.0000 -0.2747483574
C   C25       1.0  0.31260  0.92344  0.26958  1.0000 0.2899140693
C   C26       1.0  0.18740  0.42344  0.73042  1.0000 0.2899140693
C   C27       1.0  0.31260  0.42344  0.23042  1.0000 0.2899140693
C   C28       1.0  0.18740  0.92344  0.76958  1.0000 0.2899140693
C   C29       1.0  0.18290  0.92174  0.26889  1.0000 0.2960868753
C   C30       1.0  0.31710  0.42174  0.73111  1.0000 0.2899140693
C   C31       1.0  0.18290  0.42174  0.23111  1.0000 0.2899140693
C   C32       1.0  0.31710  0.92174  0.76889  1.0000 0.2960868753
C   C33       1.0  0.31200  0.97929  0.07275  1.0000 0.0679068693
C   C34       1.0  0.18800  0.47929  0.92725  1.0000 0.0679068693
C   C35       1.0  0.31200  0.47929  0.42725  1.0000 0.0679068693
C   C36       1.0  0.18800  0.97929  0.57275  1.0000 0.0679068693
C   C37       1.0  0.18660  0.97885  0.07245  1.0000 0.0679068693
C   C38       1.0  0.31340  0.47885  0.92755  1.0000 0.0679068693
C   C39       1.0  0.18660  0.47885  0.42755  1.0000 0.0679068693
C   C40       1.0  0.31340  0.97885  0.57245  1.0000 0.0679068693
C   C41       1.0  0.37620  0.95157  0.02860  1.0000 -0.2747483574
C   C42       1.0  0.12380  0.45157  0.97140  1.0000 -0.2747483574
C   C43       1.0  0.37620  0.45157  0.47140  1.0000 -0.2747483574
C   C44       1.0  0.12380  0.95157  0.52860  1.0000 -0.2747483574
C   C45       1.0  0.12440  0.95001  0.02802  1.0000 -0.2747483574
C   C46       1.0  0.37560  0.45001  0.97198  1.0000 -0.2747483574
C   C47       1.0  0.12440  0.45001  0.47198  1.0000 -0.2747483574
C   C48       1.0  0.37560  0.95001  0.52802  1.0000 -0.2747483574
C   C49       1.0  0.31520  0.92319  0.98065  1.0000 0.2899140693
C   C50       1.0  0.18480  0.42319  0.01935  1.0000 0.2899140693
C   C51       1.0  0.31520  0.42319  0.51935  1.0000 0.2899140693
C   C52       1.0  0.18480  0.92319  0.48065  1.0000 0.2899140693
C   C53       1.0  0.18670  0.92204  0.98061  1.0000 0.2899140693
C   C54       1.0  0.31330  0.42204  0.01939  1.0000 0.2899140693
C   C55       1.0  0.18670  0.42204  0.51939  1.0000 0.2899140693
C   C56       1.0  0.31330  0.92204  0.48061  1.0000 0.2899140693
C   C57       1.0  0.31240  0.08891  0.12582  1.0000 0.0679068693
C   C58       1.0  0.18760  0.58891  0.87418  1.0000 0.0679068693
C   C59       1.0  0.31240  0.58891  0.37418  1.0000 0.0679068693
C   C60       1.0  0.18760  0.08891  0.62582  1.0000 0.0679068693
C   C61       1.0  0.18380  0.08863  0.12467  1.0000 0.0679068693
C   C62       1.0  0.31620  0.58863  0.87533  1.0000 0.0679068693
C   C63       1.0  0.18380  0.58863  0.37533  1.0000 0.0679068693
C   C64       1.0  0.31620  0.08863  0.62467  1.0000 0.0679068693
C   C65       1.0  0.37690  0.14846  0.12678  1.0000 -0.2393682492
C   C66       1.0  0.12310  0.64846  0.87322  1.0000 -0.2393682492
C   C67       1.0  0.37690  0.64846  0.37322  1.0000 -0.2393682492
C   C68       1.0  0.12310  0.14846  0.62678  1.0000 -0.2393682492
C   C69       1.0  0.11850  0.14805  0.12319  1.0000 -0.2393682492
C   C70       1.0  0.38150  0.64805  0.87681  1.0000 -0.2393682492
C   C71       1.0  0.11850  0.64805  0.37681  1.0000 -0.2393682492
C   C72       1.0  0.38150  0.14805  0.62319  1.0000 -0.2393682492
C   C73       1.0  0.31400  0.21446  0.12656  1.0000 0.3290131032
C   C74       1.0  0.18600  0.71446  0.87344  1.0000 0.3290131032
C   C75       1.0  0.31400  0.71446  0.37344  1.0000 0.3290131032
C   C76       1.0  0.18600  0.21446  0.62656  1.0000 0.3290131032
C   C77       1.0  0.18100  0.21432  0.12370  1.0000 0.3290131032
C   C78       1.0  0.31900  0.71432  0.87630  1.0000 0.3290131032
C   C79       1.0  0.18100  0.71432  0.37630  1.0000 0.3290131032
C   C80       1.0  0.31900  0.21432  0.62370  1.0000 0.3290131032
C   C81       1.0  0.63650  0.48517  0.62560  1.0000 -0.1181687042
C   C82       1.0  0.86350  0.98517  0.37440  1.0000 -0.1181687042
C   C83       1.0  0.63650  0.98517  0.87440  1.0000 -0.1181687042
C   C84       1.0  0.86350  0.48517  0.12560  1.0000 -0.1181687042
C   C85       1.0  0.86670  0.48566  0.62482  1.0000 -0.1181687042
C   C86       1.0  0.63330  0.98566  0.37518  1.0000 -0.1181687042
C   C87       1.0  0.86670  0.98566  0.87518  1.0000 -0.1181687042
C   C88       1.0  0.63330  0.48566  0.12482  1.0000 -0.1181687042
C   C89       1.0  0.68880  0.52060  0.67750  1.0000 0.0679068693
C   C90       1.0  0.81120  0.02060  0.32250  1.0000 0.0679068693
C   C91       1.0  0.68880  0.02060  0.82250  1.0000 0.0679068693
C   C92       1.0  0.81120  0.52060  0.17750  1.0000 0.0679068693
C   C93       1.0  0.81530  0.52107  0.67700  1.0000 0.0679068693
C   C94       1.0  0.68470  0.02107  0.32300  1.0000 0.0679068693
C   C95       1.0  0.81530  0.02107  0.82300  1.0000 0.0679068693
C   C96       1.0  0.68470  0.52107  0.17700  1.0000 0.0679068693
C   C97       1.0  0.62670  0.54827  0.72226  1.0000 -0.2774837152
C   C98       1.0  0.87330  0.04827  0.27774  1.0000 -0.2774837152
C   C99       1.0  0.62670  0.04827  0.77774  1.0000 -0.2774837152
C   C100      1.0  0.87330  0.54827  0.22226  1.0000 -0.2774837152
C   C101      1.0  0.87760  0.54988  0.72109  1.0000 -0.2747483574
C   C102      1.0  0.62240  0.04988  0.27891  1.0000 -0.2747483574
C   C103      1.0  0.87760  0.04988  0.77891  1.0000 -0.2747483574
C   C104      1.0  0.62240  0.54988  0.22109  1.0000 -0.2747483574
C   C105      1.0  0.68740  0.57656  0.76958  1.0000 0.2899140693
C   C106      1.0  0.81260  0.07656  0.23042  1.0000 0.2899140693
C   C107      1.0  0.68740  0.07656  0.73042  1.0000 0.2899140693
C   C108      1.0  0.81260  0.57656  0.26958  1.0000 0.2899140693
C   C109      1.0  0.81710  0.57826  0.76889  1.0000 0.2899140693
C   C110      1.0  0.68290  0.07826  0.23111  1.0000 0.2960868753
C   C111      1.0  0.81710  0.07826  0.73111  1.0000 0.2899140693
C   C112      1.0  0.68290  0.57826  0.26889  1.0000 0.2899140693
C   C113      1.0  0.68800  0.52071  0.57275  1.0000 0.0679068693
C   C114      1.0  0.81200  0.02071  0.42725  1.0000 0.0679068693
C   C115      1.0  0.68800  0.02071  0.92725  1.0000 0.0679068693
C   C116      1.0  0.81200  0.52071  0.07275  1.0000 0.0679068693
C   C117      1.0  0.81340  0.52115  0.57245  1.0000 0.0679068693
C   C118      1.0  0.68660  0.02115  0.42755  1.0000 0.0679068693
C   C119      1.0  0.81340  0.02115  0.92755  1.0000 0.0679068693
C   C120      1.0  0.68660  0.52115  0.07245  1.0000 0.0679068693
C   C121      1.0  0.62380  0.54843  0.52860  1.0000 -0.2747483574
C   C122      1.0  0.87620  0.04843  0.47140  1.0000 -0.2747483574
C   C123      1.0  0.62380  0.04843  0.97140  1.0000 -0.2747483574
C   C124      1.0  0.87620  0.54843  0.02860  1.0000 -0.2747483574
C   C125      1.0  0.87560  0.54999  0.52802  1.0000 -0.2747483574
C   C126      1.0  0.62440  0.04999  0.47198  1.0000 -0.2747483574
C   C127      1.0  0.87560  0.04999  0.97198  1.0000 -0.2747483574
C   C128      1.0  0.62440  0.54999  0.02802  1.0000 -0.2747483574
C   C129      1.0  0.68480  0.57681  0.48065  1.0000 0.2899140693
C   C130      1.0  0.81520  0.07681  0.51935  1.0000 0.2899140693
C   C131      1.0  0.68480  0.07681  0.01935  1.0000 0.2899140693
C   C132      1.0  0.81520  0.57681  0.98065  1.0000 0.2899140693
C   C133      1.0  0.81330  0.57796  0.48061  1.0000 0.2899140693
C   C134      1.0  0.68670  0.07796  0.51939  1.0000 0.2899140693
C   C135      1.0  0.81330  0.07796  0.01939  1.0000 0.2899140693
C   C136      1.0  0.68670  0.57796  0.98061  1.0000 0.2899140693
C   C137      1.0  0.68760  0.41109  0.62582  1.0000 0.0679068693
C   C138      1.0  0.81240  0.91109  0.37418  1.0000 0.0679068693
C   C139      1.0  0.68760  0.91109  0.87418  1.0000 0.0679068693
C   C140      1.0  0.81240  0.41109  0.12582  1.0000 0.0679068693
C   C141      1.0  0.81620  0.41137  0.62467  1.0000 0.0679068693
C   C142      1.0  0.68380  0.91137  0.37533  1.0000 0.0679068693
C   C143      1.0  0.81620  0.91137  0.87533  1.0000 0.0679068693
C   C144      1.0  0.68380  0.41137  0.12467  1.0000 0.0679068693
C   C145      1.0  0.62310  0.35154  0.62678  1.0000 -0.2393682492
C   C146      1.0  0.87690  0.85154  0.37322  1.0000 -0.2393682492
C   C147      1.0  0.62310  0.85154  0.87322  1.0000 -0.2393682492
C   C148      1.0  0.87690  0.35154  0.12678  1.0000 -0.2393682492
C   C149      1.0  0.88150  0.35195  0.62319  1.0000 -0.2393682492
C   C150      1.0  0.61850  0.85195  0.37681  1.0000 -0.2393682492
C   C151      1.0  0.88150  0.85195  0.87681  1.0000 -0.2393682492
C   C152      1.0  0.61850  0.35195  0.12319  1.0000 -0.2393682492
C   C153      1.0  0.68600  0.28554  0.62656  1.0000 0.3290131032
C   C154      1.0  0.81400  0.78554  0.37344  1.0000 0.3290131032
C   C155      1.0  0.68600  0.78554  0.87344  1.0000 0.3290131032
C   C156      1.0  0.81400  0.28554  0.12656  1.0000 0.3290131032
C   C157      1.0  0.81900  0.28568  0.62370  1.0000 0.3290131032
C   C158      1.0  0.68100  0.78568  0.37630  1.0000 0.3290131032
C   C159      1.0  0.81900  0.78568  0.87630  1.0000 0.3290131032
C   C160      1.0  0.68100  0.28568  0.12370  1.0000 0.3290131032
O   O1        1.0  0.36179  0.89872  0.31416  1.0000 -0.4510380351
O   O2        1.0  0.13821  0.39872  0.68584  1.0000 -0.4510380351
O   O3        1.0  0.36179  0.39872  0.18584  1.0000 -0.4510380351
O   O4        1.0  0.13821  0.89872  0.81416  1.0000 -0.4510380351
O   O5        1.0  0.13319  0.89520  0.31259  1.0000 -0.4510380351
O   O6        1.0  0.36681  0.39520  0.68741  1.0000 -0.4510380351
O   O7        1.0  0.13319  0.39520  0.18741  1.0000 -0.4510380351
O   O8        1.0  0.36681  0.89520  0.81259  1.0000 -0.4510380351
O   O9        1.0  0.36606  0.89824  0.93643  1.0000 -0.4510380351
O   O10       1.0  0.13394  0.39824  0.06357  1.0000 -0.4510380351
O   O11       1.0  0.36606  0.39824  0.56357  1.0000 -0.4510380351
O   O12       1.0  0.13394  0.89824  0.43643  1.0000 -0.4510380351
O   O13       1.0  0.13751  0.89581  0.93635  1.0000 -0.4510380351
O   O14       1.0  0.36249  0.39581  0.06365  1.0000 -0.4510380351
O   O15       1.0  0.13751  0.39581  0.56365  1.0000 -0.4510380351
O   O16       1.0  0.36249  0.89581  0.43635  1.0000 -0.4510380351
O   O17       1.0  0.36027  0.27330  0.12726  1.0000 -0.3909973655
O   O18       1.0  0.13973  0.77330  0.87274  1.0000 -0.3909973655
O   O19       1.0  0.36027  0.77330  0.37274  1.0000 -0.3909973655
O   O20       1.0  0.13973  0.27330  0.62726  1.0000 -0.3909973655
O   O21       1.0  0.13423  0.27284  0.12269  1.0000 -0.3909973655
O   O22       1.0  0.36577  0.77284  0.87731  1.0000 -0.3909973655
O   O23       1.0  0.13423  0.77284  0.37731  1.0000 -0.3909973655
O   O24       1.0  0.36577  0.27284  0.62269  1.0000 -0.3909973655
O   O25       1.0  0.63821  0.60128  0.81416  1.0000 -0.4510380351
O   O26       1.0  0.86179  0.10128  0.18584  1.0000 -0.4510380351
O   O27       1.0  0.63821  0.10128  0.68584  1.0000 -0.4510380351
O   O28       1.0  0.86179  0.60128  0.31416  1.0000 -0.4510380351
O   O29       1.0  0.86681  0.60480  0.81259  1.0000 -0.4510380351
O   O30       1.0  0.63319  0.10480  0.18741  1.0000 -0.4510380351
O   O31       1.0  0.86681  0.10480  0.68741  1.0000 -0.4510380351
O   O32       1.0  0.63319  0.60480  0.31259  1.0000 -0.4510380351
O   O33       1.0  0.63394  0.60176  0.43643  1.0000 -0.4510380351
O   O34       1.0  0.86606  0.10176  0.56357  1.0000 -0.4510380351
O   O35       1.0  0.63394  0.10176  0.06357  1.0000 -0.4510380351
O   O36       1.0  0.86606  0.60176  0.93643  1.0000 -0.4510380351
O   O37       1.0  0.86249  0.60419  0.43635  1.0000 -0.4510380351
O   O38       1.0  0.63751  0.10419  0.56365  1.0000 -0.4510380351
O   O39       1.0  0.86249  0.10419  0.06365  1.0000 -0.4510380351
O   O40       1.0  0.63751  0.60419  0.93635  1.0000 -0.4510380351
O   O41       1.0  0.63973  0.22670  0.62726  1.0000 -0.3909973655
O   O42       1.0  0.86027  0.72670  0.37274  1.0000 -0.3909973655
O   O43       1.0  0.63973  0.72670  0.87274  1.0000 -0.3909973655
O   O44       1.0  0.86027  0.22670  0.12726  1.0000 -0.3909973655
O   O45       1.0  0.86577  0.22716  0.62269  1.0000 -0.3909973655
O   O46       1.0  0.63423  0.72716  0.37731  1.0000 -0.3909973655
O   O47       1.0  0.86577  0.72716  0.87731  1.0000 -0.3909973655
O   O48       1.0  0.63423  0.22716  0.12269  1.0000 -0.3909973655
