# DDEC6 charges by PACMAN v1.1 (https://github.com/mtap-research/PACMAN-charge/)
data_2023[Fe][nan]3[FSR]3
_chemical_formula_sum              "Fe12 H148 C224 O56"
_cell_length_a       15.8141
_cell_length_b       29.9525
_cell_length_c       16.4196
_cell_angle_alpha    90
_cell_angle_beta     103.636
_cell_angle_gamma    90

_symmetry_space_group_name_H-M    "P 1"
_symmetry_Int_Tables_number       1

loop_
  _symmetry_equiv_pos_as_xyz
  'x, y, z'

loop_
  _atom_site_type_symbol
  _atom_site_label
  _atom_site_symmetry_multiplicity
  _atom_site_fract_x
  _atom_site_fract_y
  _atom_site_fract_z
  _atom_site_occupancy
  _atom_site_charge
Fe  Fe1       1.0  0.75798  0.32569  0.12977  1.0000 1.0500328757
Fe  Fe2       1.0  0.74202  0.82569  0.87023  1.0000 1.0500328757
Fe  Fe3       1.0  0.24202  0.67431  0.87023  1.0000 1.0500328757
Fe  Fe4       1.0  0.25798  0.17431  0.12977  1.0000 1.0500328757
Fe  Fe5       1.0  0.93523  0.29278  0.27056  1.0000 0.9757394411
Fe  Fe6       1.0  0.56477  0.79278  0.72944  1.0000 0.9757394411
Fe  Fe7       1.0  0.06477  0.70722  0.72944  1.0000 0.9757394411
Fe  Fe8       1.0  0.43523  0.20722  0.27056  1.0000 0.9757394411
Fe  Fe9       1.0  0.06474  0.21786  0.25272  1.0000 1.2179912843
Fe  Fe10      1.0  0.43526  0.71786  0.74728  1.0000 1.2179912843
Fe  Fe11      1.0  0.93526  0.78214  0.74728  1.0000 1.2179912843
Fe  Fe12      1.0  0.56474  0.28214  0.25272  1.0000 1.2179912843
H   H1        1.0  0.76340  0.37211  0.99409  1.0000 0.3509313383
H   H2        1.0  0.73660  0.87211  0.00591  1.0000 0.3509313383
H   H3        1.0  0.23660  0.62789  0.00591  1.0000 0.3509313383
H   H4        1.0  0.26340  0.12789  0.99409  1.0000 0.3509313383
H   H5        1.0  0.62421  0.39043  0.98788  1.0000 0.1188728089
H   H6        1.0  0.87579  0.89043  0.01212  1.0000 0.1188728089
H   H7        1.0  0.37579  0.60957  0.01212  1.0000 0.1188728089
H   H8        1.0  0.12421  0.10957  0.98788  1.0000 0.1188728089
H   H9        1.0  0.60274  0.33870  0.96929  1.0000 0.1188728089
H   H10       1.0  0.89726  0.83870  0.03071  1.0000 0.1188728089
H   H11       1.0  0.39726  0.66130  0.03071  1.0000 0.1188728089
H   H12       1.0  0.10274  0.16130  0.96929  1.0000 0.1188728089
H   H13       1.0  0.63699  0.36846  0.90275  1.0000 0.1188728089
H   H14       1.0  0.86301  0.86846  0.09725  1.0000 0.1188728089
H   H15       1.0  0.36301  0.63154  0.09725  1.0000 0.1188728089
H   H16       1.0  0.13699  0.13154  0.90275  1.0000 0.1188728089
H   H17       1.0  0.62298  0.26078  0.92567  1.0000 0.1188728089
H   H18       1.0  0.87702  0.76078  0.07433  1.0000 0.1188728089
H   H19       1.0  0.37702  0.73922  0.07433  1.0000 0.1188728089
H   H20       1.0  0.12298  0.23922  0.92567  1.0000 0.1188728089
H   H21       1.0  0.50496  0.18572  0.07217  1.0000 0.12999503
H   H22       1.0  0.99504  0.68572  0.92783  1.0000 0.12999503
H   H23       1.0  0.49504  0.81428  0.92783  1.0000 0.12999503
H   H24       1.0  0.00496  0.31428  0.07217  1.0000 0.12999503
H   H25       1.0  0.83322  0.26241  0.96701  1.0000 0.1188728089
H   H26       1.0  0.66678  0.76241  0.03299  1.0000 0.1188728089
H   H27       1.0  0.16678  0.73759  0.03299  1.0000 0.1188728089
H   H28       1.0  0.33322  0.23759  0.96701  1.0000 0.1188728089
H   H29       1.0  0.93467  0.15912  0.11767  1.0000 0.1188728089
H   H30       1.0  0.56533  0.65912  0.88233  1.0000 0.1188728089
H   H31       1.0  0.06533  0.84088  0.88233  1.0000 0.1188728089
H   H32       1.0  0.43467  0.34088  0.11767  1.0000 0.1188728089
H   H33       1.0  0.55396  0.21870  0.80978  1.0000 0.1188728089
H   H34       1.0  0.94604  0.71870  0.19022  1.0000 0.1188728089
H   H35       1.0  0.44604  0.78130  0.19022  1.0000 0.1188728089
H   H36       1.0  0.05396  0.28130  0.80978  1.0000 0.1188728089
H   H37       1.0  0.44576  0.14018  0.95808  1.0000 0.1124732541
H   H38       1.0  0.05424  0.64018  0.04192  1.0000 0.1124732541
H   H39       1.0  0.55424  0.85982  0.04192  1.0000 0.1124732541
H   H40       1.0  0.94576  0.35982  0.95808  1.0000 0.1124732541
H   H41       1.0  0.83895  0.21984  0.85077  1.0000 0.1124732541
H   H42       1.0  0.66105  0.71984  0.14923  1.0000 0.1124732541
H   H43       1.0  0.16105  0.78016  0.14923  1.0000 0.1124732541
H   H44       1.0  0.33895  0.28016  0.85077  1.0000 0.1124732541
H   H45       1.0  0.94438  0.11744  0.00101  1.0000 0.1124732541
H   H46       1.0  0.55562  0.61744  0.99899  1.0000 0.1124732541
H   H47       1.0  0.05562  0.88256  0.99899  1.0000 0.1124732541
H   H48       1.0  0.44438  0.38256  0.00101  1.0000 0.1124732541
H   H49       1.0  0.41098  0.18941  0.71226  1.0000 0.1188728089
H   H50       1.0  0.08902  0.68941  0.28774  1.0000 0.1188728089
H   H51       1.0  0.58902  0.81059  0.28774  1.0000 0.1188728089
H   H52       1.0  0.91098  0.31059  0.71226  1.0000 0.1188728089
H   H53       1.0  0.51191  0.08785  0.86690  1.0000 0.1188728089
H   H54       1.0  0.98809  0.58785  0.13310  1.0000 0.1188728089
H   H55       1.0  0.48809  0.91215  0.13310  1.0000 0.1188728089
H   H56       1.0  0.01191  0.41215  0.86690  1.0000 0.1188728089
H   H57       1.0  0.89257  0.07724  0.88993  1.0000 0.1124732541
H   H58       1.0  0.60743  0.57724  0.11007  1.0000 0.1124732541
H   H59       1.0  0.10743  0.92276  0.11007  1.0000 0.1124732541
H   H60       1.0  0.39257  0.42276  0.88993  1.0000 0.1124732541
H   H61       1.0  0.92362  0.19021  0.76513  1.0000 0.1124732541
H   H62       1.0  0.57638  0.69021  0.23487  1.0000 0.1124732541
H   H63       1.0  0.07638  0.80979  0.23487  1.0000 0.1124732541
H   H64       1.0  0.42362  0.30979  0.76513  1.0000 0.1124732541
H   H65       1.0  0.41880  0.06455  0.61900  1.0000 0.1188728089
H   H66       1.0  0.08120  0.56455  0.38100  1.0000 0.1188728089
H   H67       1.0  0.58120  0.93545  0.38100  1.0000 0.1188728089
H   H68       1.0  0.91880  0.43545  0.61900  1.0000 0.1188728089
H   H69       1.0  0.93884  0.06937  0.65821  1.0000 0.1188728089
H   H70       1.0  0.56116  0.56937  0.34179  1.0000 0.1188728089
H   H71       1.0  0.06116  0.93063  0.34179  1.0000 0.1188728089
H   H72       1.0  0.43884  0.43063  0.65821  1.0000 0.1188728089
H   H73       1.0  0.45132  0.11307  0.50956  1.0000 0.1188728089
H   H74       1.0  0.04868  0.61307  0.49044  1.0000 0.1188728089
H   H75       1.0  0.54868  0.88693  0.49044  1.0000 0.1188728089
H   H76       1.0  0.95132  0.38693  0.50956  1.0000 0.1188728089
H   H77       1.0  0.27067  0.18207  0.59578  1.0000 0.1188728089
H   H78       1.0  0.22933  0.68207  0.40422  1.0000 0.1188728089
H   H79       1.0  0.72933  0.81793  0.40422  1.0000 0.1188728089
H   H80       1.0  0.77067  0.31793  0.59578  1.0000 0.1188728089
H   H81       1.0  0.39860  0.99367  0.67184  1.0000 0.1188728089
H   H82       1.0  0.10140  0.49367  0.32816  1.0000 0.1188728089
H   H83       1.0  0.60140  0.00633  0.32816  1.0000 0.1188728089
H   H84       1.0  0.89860  0.50633  0.67184  1.0000 0.1188728089
H   H85       1.0  0.61040  0.03435  0.84600  1.0000 0.1188728089
H   H86       1.0  0.88960  0.53435  0.15400  1.0000 0.1188728089
H   H87       1.0  0.38960  0.96565  0.15400  1.0000 0.1188728089
H   H88       1.0  0.11040  0.46565  0.84600  1.0000 0.1188728089
H   H89       1.0  0.00572  0.00096  0.71954  1.0000 0.1188728089
H   H90       1.0  0.49428  0.50096  0.28046  1.0000 0.1188728089
H   H91       1.0  0.99428  0.99904  0.28046  1.0000 0.1188728089
H   H92       1.0  0.50572  0.49904  0.71954  1.0000 0.1188728089
H   H93       1.0  0.81324  0.01424  0.84117  1.0000 0.1124732541
H   H94       1.0  0.68676  0.51424  0.15883  1.0000 0.1124732541
H   H95       1.0  0.18676  0.98576  0.15883  1.0000 0.1124732541
H   H96       1.0  0.31324  0.48576  0.84117  1.0000 0.1124732541
H   H97       1.0  0.02987  0.11015  0.59369  1.0000 0.1188728089
H   H98       1.0  0.47013  0.61015  0.40631  1.0000 0.1188728089
H   H99       1.0  0.97013  0.88985  0.40631  1.0000 0.1188728089
H   H100      1.0  0.52987  0.38985  0.59369  1.0000 0.1188728089
H   H101      1.0  0.86533  0.20914  0.62610  1.0000 0.1124732541
H   H102      1.0  0.63467  0.70914  0.37390  1.0000 0.1124732541
H   H103      1.0  0.13467  0.79086  0.37390  1.0000 0.1124732541
H   H104      1.0  0.36533  0.29086  0.62610  1.0000 0.1124732541
H   H105      1.0  0.39278  0.13940  0.37516  1.0000 0.1188728089
H   H106      1.0  0.10722  0.63940  0.62484  1.0000 0.1188728089
H   H107      1.0  0.60722  0.86060  0.62484  1.0000 0.1188728089
H   H108      1.0  0.89278  0.36060  0.37516  1.0000 0.1188728089
H   H109      1.0  0.20781  0.20617  0.45910  1.0000 0.12999503
H   H110      1.0  0.29219  0.70617  0.54090  1.0000 0.12999503
H   H111      1.0  0.79219  0.79383  0.54090  1.0000 0.12999503
H   H112      1.0  0.70781  0.29383  0.45910  1.0000 0.12999503
H   H113      1.0  0.44766  0.92022  0.69046  1.0000 0.12999503
H   H114      1.0  0.05234  0.42022  0.30954  1.0000 0.12999503
H   H115      1.0  0.55234  0.07978  0.30954  1.0000 0.12999503
H   H116      1.0  0.94766  0.57978  0.69046  1.0000 0.12999503
H   H117      1.0  0.65891  0.96093  0.86508  1.0000 0.1188728089
H   H118      1.0  0.84109  0.46093  0.13492  1.0000 0.1188728089
H   H119      1.0  0.34109  0.03907  0.13492  1.0000 0.1188728089
H   H120      1.0  0.15891  0.53907  0.86508  1.0000 0.1188728089
H   H121      1.0  0.99944  0.92393  0.73125  1.0000 0.12999503
H   H122      1.0  0.50056  0.42393  0.26875  1.0000 0.12999503
H   H123      1.0  0.00056  0.07607  0.26875  1.0000 0.12999503
H   H124      1.0  0.49944  0.57607  0.73125  1.0000 0.12999503
H   H125      1.0  0.80672  0.93743  0.85381  1.0000 0.1188728089
H   H126      1.0  0.69328  0.43743  0.14619  1.0000 0.1188728089
H   H127      1.0  0.19328  0.06257  0.14619  1.0000 0.1188728089
H   H128      1.0  0.30672  0.56257  0.85381  1.0000 0.1188728089
H   H129      1.0  0.04598  0.14439  0.47037  1.0000 0.12999503
H   H130      1.0  0.45402  0.64439  0.52963  1.0000 0.12999503
H   H131      1.0  0.95402  0.85561  0.52963  1.0000 0.12999503
H   H132      1.0  0.54598  0.35561  0.47037  1.0000 0.12999503
H   H133      1.0  0.88373  0.24339  0.50412  1.0000 0.1124732541
H   H134      1.0  0.61627  0.74339  0.49588  1.0000 0.1124732541
H   H135      1.0  0.11627  0.75661  0.49588  1.0000 0.1124732541
H   H136      1.0  0.38373  0.25661  0.50412  1.0000 0.1124732541
H   H137      1.0  0.68000  0.20768  0.37107  1.0000 0.12999503
H   H138      1.0  0.82000  0.70768  0.62893  1.0000 0.12999503
H   H139      1.0  0.32000  0.79232  0.62893  1.0000 0.12999503
H   H140      1.0  0.18000  0.29232  0.37107  1.0000 0.12999503
H   H141      1.0  0.60695  0.17100  0.37313  1.0000 0.1188728089
H   H142      1.0  0.89305  0.67100  0.62687  1.0000 0.1188728089
H   H143      1.0  0.39305  0.82900  0.62687  1.0000 0.1188728089
H   H144      1.0  0.10695  0.32900  0.37313  1.0000 0.1188728089
H   H145      1.0  0.60141  0.21920  0.41362  1.0000 0.1124732541
H   H146      1.0  0.89859  0.71920  0.58638  1.0000 0.1124732541
H   H147      1.0  0.39859  0.78080  0.58638  1.0000 0.1124732541
H   H148      1.0  0.10141  0.28080  0.41362  1.0000 0.1124732541
C   C1        1.0  0.61477  0.25475  0.08438  1.0000 0.59053376
C   C2        1.0  0.88523  0.75475  0.91562  1.0000 0.59053376
C   C3        1.0  0.38523  0.74525  0.91562  1.0000 0.59053376
C   C4        1.0  0.11477  0.24525  0.08438  1.0000 0.59053376
C   C5        1.0  0.64140  0.36330  0.96250  1.0000 -0.2090727523
C   C6        1.0  0.85860  0.86330  0.03750  1.0000 -0.2090727523
C   C7        1.0  0.35860  0.63670  0.03750  1.0000 -0.2090727523
C   C8        1.0  0.14140  0.13670  0.96250  1.0000 -0.2090727523
C   C9        1.0  0.89527  0.24355  0.12997  1.0000 0.59053376
C   C10       1.0  0.60473  0.74355  0.87003  1.0000 0.59053376
C   C11       1.0  0.10473  0.75645  0.87003  1.0000 0.59053376
C   C12       1.0  0.39527  0.25645  0.12997  1.0000 0.59053376
C   C13       1.0  0.57177  0.22698  0.01103  1.0000 -0.033110571
C   C14       1.0  0.92823  0.72698  0.98897  1.0000 -0.033110571
C   C15       1.0  0.42823  0.77302  0.98897  1.0000 -0.033110571
C   C16       1.0  0.07177  0.27302  0.01103  1.0000 -0.033110571
C   C17       1.0  0.88632  0.21534  0.05450  1.0000 -0.033110571
C   C18       1.0  0.61368  0.71534  0.94550  1.0000 -0.033110571
C   C19       1.0  0.11368  0.78466  0.94550  1.0000 -0.033110571
C   C20       1.0  0.38632  0.28466  0.05450  1.0000 -0.033110571
C   C21       1.0  0.58610  0.23667  0.93227  1.0000 -0.09917933
C   C22       1.0  0.91390  0.73667  0.06773  1.0000 -0.09917933
C   C23       1.0  0.41390  0.76333  0.06773  1.0000 -0.09917933
C   C24       1.0  0.08610  0.26333  0.93227  1.0000 -0.09917933
C   C25       1.0  0.51730  0.19161  0.01932  1.0000 -0.0913742
C   C26       1.0  0.98270  0.69161  0.98068  1.0000 -0.0913742
C   C27       1.0  0.48270  0.80839  0.98068  1.0000 -0.0913742
C   C28       1.0  0.01730  0.30839  0.01932  1.0000 -0.0913742
C   C29       1.0  0.85640  0.23303  0.97408  1.0000 -0.0913742
C   C30       1.0  0.64360  0.73303  0.02592  1.0000 -0.0913742
C   C31       1.0  0.14360  0.76697  0.02592  1.0000 -0.0913742
C   C32       1.0  0.35640  0.26697  0.97408  1.0000 -0.0913742
C   C33       1.0  0.91710  0.17194  0.06338  1.0000 -0.0913742
C   C34       1.0  0.58290  0.67194  0.93662  1.0000 -0.0913742
C   C35       1.0  0.08290  0.82806  0.93662  1.0000 -0.0913742
C   C36       1.0  0.41710  0.32806  0.06338  1.0000 -0.0913742
C   C37       1.0  0.54650  0.21099  0.86376  1.0000 -0.1487153901
C   C38       1.0  0.95350  0.71099  0.13624  1.0000 -0.1487153901
C   C39       1.0  0.45350  0.78901  0.13624  1.0000 -0.1487153901
C   C40       1.0  0.04650  0.28901  0.86376  1.0000 -0.1487153901
C   C41       1.0  0.48100  0.16492  0.95115  1.0000 -0.1487153901
C   C42       1.0  0.01900  0.66492  0.04885  1.0000 -0.1487153901
C   C43       1.0  0.51900  0.83508  0.04885  1.0000 -0.1487153901
C   C44       1.0  0.98100  0.33508  0.95115  1.0000 -0.1487153901
C   C45       1.0  0.86070  0.20775  0.90516  1.0000 -0.1487153901
C   C46       1.0  0.63930  0.70775  0.09484  1.0000 -0.1487153901
C   C47       1.0  0.13930  0.79225  0.09484  1.0000 -0.1487153901
C   C48       1.0  0.36070  0.29225  0.90516  1.0000 -0.1487153901
C   C49       1.0  0.92250  0.14707  0.99375  1.0000 -0.1487153901
C   C50       1.0  0.57750  0.64707  0.00625  1.0000 -0.1487153901
C   C51       1.0  0.07750  0.85293  0.00625  1.0000 -0.1487153901
C   C52       1.0  0.42250  0.35293  0.99375  1.0000 -0.1487153901
C   C53       1.0  0.49580  0.17411  0.87247  1.0000 0.0731570066
C   C54       1.0  0.00420  0.67411  0.12753  1.0000 0.0731570066
C   C55       1.0  0.50420  0.82589  0.12753  1.0000 0.0731570066
C   C56       1.0  0.99580  0.32589  0.87247  1.0000 0.0731570066
C   C57       1.0  0.89630  0.16477  0.91294  1.0000 0.0731570066
C   C58       1.0  0.60370  0.66477  0.08706  1.0000 0.0731570066
C   C59       1.0  0.10370  0.83523  0.08706  1.0000 0.0731570066
C   C60       1.0  0.39630  0.33523  0.91294  1.0000 0.0731570066
C   C61       1.0  0.46570  0.14356  0.80005  1.0000 0.0810101199
C   C62       1.0  0.03430  0.64356  0.19995  1.0000 0.0810101199
C   C63       1.0  0.53430  0.85644  0.19995  1.0000 0.0810101199
C   C64       1.0  0.96570  0.35644  0.80005  1.0000 0.0810101199
C   C65       1.0  0.90650  0.13833  0.84007  1.0000 0.0810101199
C   C66       1.0  0.59350  0.63833  0.15993  1.0000 0.0810101199
C   C67       1.0  0.09350  0.86167  0.15993  1.0000 0.0810101199
C   C68       1.0  0.40650  0.36167  0.84007  1.0000 0.0810101199
C   C69       1.0  0.42600  0.15875  0.72053  1.0000 -0.1990113638
C   C70       1.0  0.07400  0.65875  0.27947  1.0000 -0.2090727523
C   C71       1.0  0.57400  0.84125  0.27947  1.0000 -0.2090727523
C   C72       1.0  0.92600  0.34125  0.72053  1.0000 -0.1990113638
C   C73       1.0  0.48630  0.09847  0.81211  1.0000 -0.1990113638
C   C74       1.0  0.01370  0.59847  0.18789  1.0000 -0.1990113638
C   C75       1.0  0.51370  0.90153  0.18789  1.0000 -0.1990113638
C   C76       1.0  0.98630  0.40153  0.81211  1.0000 -0.1990113638
C   C77       1.0  0.90340  0.09163  0.84181  1.0000 -0.2090727523
C   C78       1.0  0.59660  0.59163  0.15819  1.0000 -0.2090727523
C   C79       1.0  0.09660  0.90837  0.15819  1.0000 -0.2090727523
C   C80       1.0  0.40340  0.40837  0.84181  1.0000 -0.2090727523
C   C81       1.0  0.92130  0.15857  0.76790  1.0000 -0.2090727523
C   C82       1.0  0.57870  0.65857  0.23210  1.0000 -0.2090727523
C   C83       1.0  0.07870  0.84143  0.23210  1.0000 -0.2090727523
C   C84       1.0  0.42130  0.34143  0.76790  1.0000 -0.2090727523
C   C85       1.0  0.40770  0.12945  0.65228  1.0000 0.0810101199
C   C86       1.0  0.09230  0.62945  0.34772  1.0000 0.0810101199
C   C87       1.0  0.59230  0.87055  0.34772  1.0000 0.0810101199
C   C88       1.0  0.90770  0.37055  0.65228  1.0000 0.0810101199
C   C89       1.0  0.47000  0.06851  0.74461  1.0000 0.0810101199
C   C90       1.0  0.03000  0.56851  0.25539  1.0000 0.0810101199
C   C91       1.0  0.53000  0.93149  0.25539  1.0000 0.0810101199
C   C92       1.0  0.97000  0.43149  0.74461  1.0000 0.0810101199
C   C93       1.0  0.91560  0.06542  0.77470  1.0000 0.0810101199
C   C94       1.0  0.58440  0.56542  0.22530  1.0000 0.0810101199
C   C95       1.0  0.08440  0.93458  0.22530  1.0000 0.0810101199
C   C96       1.0  0.41560  0.43458  0.77470  1.0000 0.0810101199
C   C97       1.0  0.93260  0.13325  0.69978  1.0000 0.0810101199
C   C98       1.0  0.56740  0.63325  0.30022  1.0000 0.0852640935
C   C99       1.0  0.06740  0.86675  0.30022  1.0000 0.0852640935
C   C100      1.0  0.43260  0.36675  0.69978  1.0000 0.0810101199
C   C101      1.0  0.36750  0.14548  0.56665  1.0000 0.0810101199
C   C102      1.0  0.13250  0.64548  0.43335  1.0000 0.0810101199
C   C103      1.0  0.63250  0.85452  0.43335  1.0000 0.0810101199
C   C104      1.0  0.86750  0.35452  0.56665  1.0000 0.0731570066
C   C105      1.0  0.43050  0.08454  0.66523  1.0000 -0.1990113638
C   C106      1.0  0.06950  0.58454  0.33477  1.0000 -0.1990113638
C   C107      1.0  0.56950  0.91546  0.33477  1.0000 -0.1990113638
C   C108      1.0  0.93050  0.41546  0.66523  1.0000 -0.1990113638
C   C109      1.0  0.49900  0.02163  0.75732  1.0000 0.0810101199
C   C110      1.0  0.00100  0.52163  0.24268  1.0000 0.0810101199
C   C111      1.0  0.50100  0.97837  0.24268  1.0000 0.0810101199
C   C112      1.0  0.99900  0.47837  0.75732  1.0000 0.0810101199
C   C113      1.0  0.91080  0.01599  0.77932  1.0000 0.0731570066
C   C114      1.0  0.58920  0.51599  0.22068  1.0000 0.0731570066
C   C115      1.0  0.08920  0.98401  0.22068  1.0000 0.0731570066
C   C116      1.0  0.41080  0.48401  0.77932  1.0000 0.0731570066
C   C117      1.0  0.93030  0.08668  0.70407  1.0000 -0.1990113638
C   C118      1.0  0.56970  0.58668  0.29593  1.0000 -0.1990113638
C   C119      1.0  0.06970  0.91332  0.29593  1.0000 -0.1990113638
C   C120      1.0  0.43030  0.41332  0.70407  1.0000 -0.1990113638
C   C121      1.0  0.94500  0.15587  0.62225  1.0000 0.0810101199
C   C122      1.0  0.55500  0.65587  0.37775  1.0000 0.0810101199
C   C123      1.0  0.05500  0.84413  0.37775  1.0000 0.0810101199
C   C124      1.0  0.44500  0.34413  0.62225  1.0000 0.0810101199
C   C125      1.0  0.40280  0.13269  0.49985  1.0000 -0.1401148334
C   C126      1.0  0.09720  0.63269  0.50015  1.0000 -0.1401148334
C   C127      1.0  0.59720  0.86731  0.50015  1.0000 -0.1401148334
C   C128      1.0  0.90280  0.36731  0.49985  1.0000 -0.1401148334
C   C129      1.0  0.29540  0.17316  0.55092  1.0000 -0.1487153901
C   C130      1.0  0.20460  0.67316  0.44908  1.0000 -0.1487153901
C   C131      1.0  0.70460  0.82684  0.44908  1.0000 -0.1487153901
C   C132      1.0  0.79540  0.32684  0.55092  1.0000 -0.1487153901
C   C133      1.0  0.45150  0.98717  0.71140  1.0000 -0.1487153901
C   C134      1.0  0.04850  0.48717  0.28860  1.0000 -0.1487153901
C   C135      1.0  0.54850  0.01283  0.28860  1.0000 -0.1487153901
C   C136      1.0  0.95150  0.51283  0.71140  1.0000 -0.1487153901
C   C137      1.0  0.57680  0.01115  0.81453  1.0000 -0.1487153901
C   C138      1.0  0.92320  0.51115  0.18547  1.0000 -0.1598015794
C   C139      1.0  0.42320  0.98885  0.18547  1.0000 -0.1598015794
C   C140      1.0  0.07680  0.48885  0.81453  1.0000 -0.1598015794
C   C141      1.0  0.96500  0.98813  0.74700  1.0000 -0.1487153901
C   C142      1.0  0.53500  0.48813  0.25300  1.0000 -0.1487153901
C   C143      1.0  0.03500  0.01187  0.25300  1.0000 -0.1487153901
C   C144      1.0  0.46500  0.51187  0.74700  1.0000 -0.1487153901
C   C145      1.0  0.85150  0.99599  0.81890  1.0000 -0.1401148334
C   C146      1.0  0.64850  0.49599  0.18110  1.0000 -0.1401148334
C   C147      1.0  0.14850  0.00401  0.18110  1.0000 -0.1401148334
C   C148      1.0  0.35150  0.50401  0.81890  1.0000 -0.1401148334
C   C149      1.0  0.99950  0.13706  0.57540  1.0000 -0.1598015794
C   C150      1.0  0.50050  0.63706  0.42460  1.0000 -0.1598015794
C   C151      1.0  0.00050  0.86294  0.42460  1.0000 -0.1598015794
C   C152      1.0  0.49950  0.36294  0.57540  1.0000 -0.1598015794
C   C153      1.0  0.90210  0.19583  0.59480  1.0000 -0.1598015794
C   C154      1.0  0.59790  0.69583  0.40520  1.0000 -0.1598015794
C   C155      1.0  0.09790  0.80417  0.40520  1.0000 -0.1598015794
C   C156      1.0  0.40210  0.30417  0.59480  1.0000 -0.1598015794
C   C157      1.0  0.36790  0.14821  0.41994  1.0000 -0.1075755244
C   C158      1.0  0.13210  0.64821  0.58006  1.0000 -0.1075755244
C   C159      1.0  0.63210  0.85179  0.58006  1.0000 -0.1075755244
C   C160      1.0  0.86790  0.35179  0.41994  1.0000 -0.1075755244
C   C161      1.0  0.25870  0.18813  0.46976  1.0000 -0.09917933
C   C162      1.0  0.24130  0.68813  0.53024  1.0000 -0.09917933
C   C163      1.0  0.74130  0.81187  0.53024  1.0000 -0.09917933
C   C164      1.0  0.75870  0.31187  0.46976  1.0000 -0.09917933
C   C165      1.0  0.48050  0.94341  0.72270  1.0000 -0.09917933
C   C166      1.0  0.01950  0.44341  0.27730  1.0000 -0.09917933
C   C167      1.0  0.51950  0.05659  0.27730  1.0000 -0.09917933
C   C168      1.0  0.98050  0.55659  0.72270  1.0000 -0.09917933
C   C169      1.0  0.60570  0.96745  0.82608  1.0000 -0.0913742
C   C170      1.0  0.89430  0.46745  0.17392  1.0000 -0.0913742
C   C171      1.0  0.39430  0.03255  0.17392  1.0000 -0.0913742
C   C172      1.0  0.10570  0.53255  0.82608  1.0000 -0.0913742
C   C173      1.0  0.96140  0.94215  0.75380  1.0000 -0.09917933
C   C174      1.0  0.53860  0.44215  0.24620  1.0000 -0.09917933
C   C175      1.0  0.03860  0.05785  0.24620  1.0000 -0.09917933
C   C176      1.0  0.46140  0.55785  0.75380  1.0000 -0.09917933
C   C177      1.0  0.84740  0.95022  0.82620  1.0000 -0.1075755244
C   C178      1.0  0.65260  0.45022  0.17380  1.0000 -0.1075755244
C   C179      1.0  0.15260  0.04978  0.17380  1.0000 -0.1075755244
C   C180      1.0  0.34740  0.54978  0.82620  1.0000 -0.1075755244
C   C181      1.0  0.00950  0.15758  0.50210  1.0000 -0.09917933
C   C182      1.0  0.49050  0.65758  0.49790  1.0000 -0.09917933
C   C183      1.0  0.99050  0.84242  0.49790  1.0000 -0.09917933
C   C184      1.0  0.50950  0.34242  0.50210  1.0000 -0.09917933
C   C185      1.0  0.91300  0.21616  0.52210  1.0000 -0.09917933
C   C186      1.0  0.58700  0.71616  0.47790  1.0000 -0.09917933
C   C187      1.0  0.08700  0.78384  0.47790  1.0000 -0.09917933
C   C188      1.0  0.41300  0.28384  0.52210  1.0000 -0.09917933
C   C189      1.0  0.29683  0.17653  0.40456  1.0000 -0.033110571
C   C190      1.0  0.20317  0.67653  0.59544  1.0000 -0.033110571
C   C191      1.0  0.70317  0.82347  0.59544  1.0000 -0.033110571
C   C192      1.0  0.79683  0.32347  0.40456  1.0000 -0.033110571
C   C193      1.0  0.55740  0.93324  0.78110  1.0000 -0.040961893
C   C194      1.0  0.94260  0.43324  0.21890  1.0000 -0.040961893
C   C195      1.0  0.44260  0.06676  0.21890  1.0000 -0.040961893
C   C196      1.0  0.05740  0.56676  0.78110  1.0000 -0.040961893
C   C197      1.0  0.90219  0.92247  0.79365  1.0000 -0.033110571
C   C198      1.0  0.59781  0.42247  0.20635  1.0000 -0.033110571
C   C199      1.0  0.09781  0.07753  0.20635  1.0000 -0.033110571
C   C200      1.0  0.40219  0.57753  0.79365  1.0000 -0.033110571
C   C201      1.0  0.96640  0.19713  0.47518  1.0000 -0.033110571
C   C202      1.0  0.53360  0.69713  0.52482  1.0000 -0.033110571
C   C203      1.0  0.03360  0.80287  0.52482  1.0000 -0.033110571
C   C204      1.0  0.46640  0.30287  0.47518  1.0000 -0.033110571
C   C205      1.0  0.26006  0.19492  0.31915  1.0000 0.6054252603
C   C206      1.0  0.23994  0.69492  0.68085  1.0000 0.6054252603
C   C207      1.0  0.73994  0.80508  0.68085  1.0000 0.6049735167
C   C208      1.0  0.76006  0.30508  0.31915  1.0000 0.6054252603
C   C209      1.0  0.58882  0.88627  0.79312  1.0000 0.59053376
C   C210      1.0  0.91118  0.38627  0.20688  1.0000 0.59053376
C   C211      1.0  0.41118  0.11373  0.20688  1.0000 0.59053376
C   C212      1.0  0.08882  0.61373  0.79312  1.0000 0.59053376
C   C213      1.0  0.89531  0.87314  0.80298  1.0000 0.5825256028
C   C214      1.0  0.60469  0.37314  0.19702  1.0000 0.5825256028
C   C215      1.0  0.10469  0.12686  0.19702  1.0000 0.5825256028
C   C216      1.0  0.39531  0.62686  0.80298  1.0000 0.5825256028
C   C217      1.0  0.97640  0.21929  0.39602  1.0000 0.5825256028
C   C218      1.0  0.52360  0.71929  0.60398  1.0000 0.5825256028
C   C219      1.0  0.02360  0.78071  0.60398  1.0000 0.5825256028
C   C220      1.0  0.47640  0.28071  0.39602  1.0000 0.5825256028
C   C221      1.0  0.61800  0.20295  0.36800  1.0000 -0.2208572335
C   C222      1.0  0.88200  0.70295  0.63200  1.0000 -0.2208572335
C   C223      1.0  0.38200  0.79705  0.63200  1.0000 -0.2208572335
C   C224      1.0  0.11800  0.29705  0.36800  1.0000 -0.2208572335
O   O1        1.0  0.68730  0.27126  0.08386  1.0000 -0.5485866487
O   O2        1.0  0.81270  0.77126  0.91614  1.0000 -0.5485866487
O   O3        1.0  0.31270  0.72874  0.91614  1.0000 -0.5485866487
O   O4        1.0  0.18730  0.22874  0.08386  1.0000 -0.5485866487
O   O5        1.0  0.72983  0.35199  0.00327  1.0000 -0.3953603587
O   O6        1.0  0.77017  0.85199  0.99673  1.0000 -0.3953603587
O   O7        1.0  0.27017  0.64801  0.99673  1.0000 -0.3953603587
O   O8        1.0  0.22983  0.14801  0.00327  1.0000 -0.3953603587
O   O9        1.0  0.87324  0.28356  0.12629  1.0000 -0.5670208267
O   O10       1.0  0.62676  0.78356  0.87371  1.0000 -0.5670208267
O   O11       1.0  0.12676  0.71644  0.87371  1.0000 -0.5670208267
O   O12       1.0  0.37324  0.21644  0.12629  1.0000 -0.5670208267
O   O13       1.0  0.83988  0.37940  0.15525  1.0000 -0.5801434748
O   O14       1.0  0.66012  0.87940  0.84475  1.0000 -0.5801434748
O   O15       1.0  0.16012  0.62060  0.84475  1.0000 -0.5801434748
O   O16       1.0  0.33988  0.12060  0.15525  1.0000 -0.5801434748
O   O17       1.0  0.65322  0.35898  0.15326  1.0000 -0.5608175478
O   O18       1.0  0.84678  0.85898  0.84674  1.0000 -0.5608175478
O   O19       1.0  0.34678  0.64102  0.84674  1.0000 -0.5608175478
O   O20       1.0  0.15322  0.14102  0.15326  1.0000 -0.5608175478
O   O21       1.0  0.80170  0.30881  0.26197  1.0000 -0.593701177
O   O22       1.0  0.69830  0.80881  0.73803  1.0000 -0.593701177
O   O23       1.0  0.19830  0.69119  0.73803  1.0000 -0.593701177
O   O24       1.0  0.30170  0.19119  0.26197  1.0000 -0.593701177
O   O25       1.0  0.57405  0.25955  0.14143  1.0000 -0.5485866487
O   O26       1.0  0.92595  0.75955  0.85857  1.0000 -0.5485866487
O   O27       1.0  0.42595  0.74045  0.85857  1.0000 -0.5485866487
O   O28       1.0  0.07405  0.24045  0.14143  1.0000 -0.5485866487
O   O29       1.0  0.93139  0.22687  0.20260  1.0000 -0.5670208267
O   O30       1.0  0.56861  0.72687  0.79740  1.0000 -0.5670208267
O   O31       1.0  0.06861  0.77313  0.79740  1.0000 -0.5670208267
O   O32       1.0  0.43139  0.27313  0.20260  1.0000 -0.5670208267
O   O33       1.0  0.55935  0.34850  0.23366  1.0000 -0.5485866487
O   O34       1.0  0.94065  0.84850  0.76634  1.0000 -0.5485866487
O   O35       1.0  0.44065  0.65150  0.76634  1.0000 -0.5485866487
O   O36       1.0  0.05935  0.15150  0.23366  1.0000 -0.5485866487
O   O37       1.0  0.68832  0.28571  0.30738  1.0000 -0.5164722584
O   O38       1.0  0.81168  0.78571  0.69262  1.0000 -0.5164722584
O   O39       1.0  0.31168  0.71429  0.69262  1.0000 -0.5164722584
O   O40       1.0  0.18832  0.21429  0.30738  1.0000 -0.5164722584
O   O41       1.0  0.56784  0.21896  0.28924  1.0000 -0.4897433526
O   O42       1.0  0.93216  0.71896  0.71076  1.0000 -0.4897433526
O   O43       1.0  0.43216  0.78104  0.71076  1.0000 -0.4897433526
O   O44       1.0  0.06784  0.28104  0.28924  1.0000 -0.4897433526
O   O45       1.0  0.52930  0.29909  0.35939  1.0000 -0.540028394
O   O46       1.0  0.97070  0.79909  0.64061  1.0000 -0.540028394
O   O47       1.0  0.47070  0.70091  0.64061  1.0000 -0.540028394
O   O48       1.0  0.02930  0.20091  0.35939  1.0000 -0.540028394
O   O49       1.0  0.54225  0.85697  0.74782  1.0000 -0.540028394
O   O50       1.0  0.95775  0.35697  0.25218  1.0000 -0.540028394
O   O51       1.0  0.45775  0.14303  0.25218  1.0000 -0.540028394
O   O52       1.0  0.04225  0.64303  0.74782  1.0000 -0.540028394
O   O53       1.0  0.93321  0.25409  0.37269  1.0000 -0.5485866487
O   O54       1.0  0.56679  0.75409  0.62731  1.0000 -0.5485866487
O   O55       1.0  0.06679  0.74591  0.62731  1.0000 -0.5485866487
O   O56       1.0  0.43321  0.24591  0.37269  1.0000 -0.5485866487
