# DDEC6 charges by PACMAN v1.1 (https://github.com/mtap-research/PACMAN-charge/)
data_2023[Zn][fsc]3[FSR]2
_chemical_formula_sum              "Zn4 H184 C238 N4 O32"
_cell_length_a       17.335
_cell_length_b       19.597
_cell_length_c       26.871
_cell_angle_alpha    94.731
_cell_angle_beta     101.84
_cell_angle_gamma    89.939

_symmetry_space_group_name_H-M    "P 1"
_symmetry_Int_Tables_number       1

loop_
  _symmetry_equiv_pos_as_xyz
  'x, y, z'

loop_
  _atom_site_type_symbol
  _atom_site_label
  _atom_site_symmetry_multiplicity
  _atom_site_fract_x
  _atom_site_fract_y
  _atom_site_fract_z
  _atom_site_occupancy
  _atom_site_charge
Zn  Zn1       1.0  0.03196  0.34910  0.94596  1.0000 0.8322206287
Zn  Zn2       1.0  0.00302  0.33796  0.83422  1.0000 0.8322206287
Zn  Zn3       1.0  0.96804  0.65090  0.05404  1.0000 0.8322206287
Zn  Zn4       1.0  0.99698  0.66204  0.16578  1.0000 0.8322206287
H   H1        1.0  0.97721  0.44065  0.02819  1.0000 0.1204658449
H   H2        1.0  0.97632  0.44309  0.11342  1.0000 0.1353327034
H   H3        1.0  0.86269  0.50543  0.96250  1.0000 0.1204658449
H   H4        1.0  0.22884  0.50402  0.97423  1.0000 0.1204658449
H   H5        1.0  0.60720  0.62687  0.82516  1.0000 0.1204658449
H   H6        1.0  0.68796  0.80959  0.94551  1.0000 0.1114940624
H   H7        1.0  0.66430  0.05324  0.94532  1.0000 0.1114940624
H   H8        1.0  0.53185  0.72298  0.82594  1.0000 0.1204658449
H   H9        1.0  0.78220  0.59871  0.96268  1.0000 0.1204658449
H   H10       1.0  0.42647  0.64328  0.95336  1.0000 0.1204658449
H   H11       1.0  0.76270  0.71132  0.94619  1.0000 0.1204658449
H   H12       1.0  0.31859  0.59127  0.97236  1.0000 0.1204658449
H   H13       1.0  0.22638  0.20000  0.97240  1.0000 0.1114940624
H   H14       1.0  0.58372  0.96068  0.94934  1.0000 0.1114940624
H   H15       1.0  0.50481  0.73817  0.95252  1.0000 0.1204658449
H   H16       1.0  0.44871  0.94062  0.82326  1.0000 0.1204658449
H   H17       1.0  0.87531  0.18694  0.95523  1.0000 0.1291379984
H   H18       1.0  0.80780  0.48347  0.80842  1.0000 0.1204658449
H   H19       1.0  0.36978  0.03639  0.82475  1.0000 0.1204658449
H   H20       1.0  0.31203  0.11014  0.97095  1.0000 0.1114940624
H   H21       1.0  0.40503  0.89826  0.95905  1.0000 0.1204658449
H   H22       1.0  0.15958  0.17294  0.81932  1.0000 0.1204658449
H   H23       1.0  0.24696  0.08424  0.81727  1.0000 0.1114940624
H   H24       1.0  0.83079  0.16277  0.80194  1.0000 0.1204658449
H   H25       1.0  0.32977  0.99459  0.96186  1.0000 0.1114940624
H   H26       1.0  0.07716  0.25594  0.11537  1.0000 0.1204658449
H   H27       1.0  0.72165  0.57308  0.80833  1.0000 0.1114940624
H   H28       1.0  0.72358  0.96120  0.81858  1.0000 0.1114940624
H   H29       1.0  0.07951  0.26193  0.03019  1.0000 0.1114940624
H   H30       1.0  0.64687  0.86886  0.82428  1.0000 0.1204658449
H   H31       1.0  0.79015  0.09729  0.95645  1.0000 0.1204658449
H   H32       1.0  0.34492  0.80435  0.83750  1.0000 0.1114940624
H   H33       1.0  0.15013  0.50752  0.82315  1.0000 0.1204658449
H   H34       1.0  0.26386  0.71039  0.83967  1.0000 0.0971561445
H   H35       1.0  0.23267  0.59829  0.82141  1.0000 0.1114940624
H   H36       1.0  0.74456  0.07475  0.80317  1.0000 0.1114940624
H   H37       1.0  0.97989  0.25132  0.17647  1.0000 0.1114940624
H   H38       1.0  0.02771  0.24404  0.74614  1.0000 0.1204658449
H   H39       1.0  0.98103  0.25117  0.26303  1.0000 0.1204658449
H   H40       1.0  0.06384  0.44763  0.20005  1.0000 0.1204658449
H   H41       1.0  0.08524  0.27389  0.59746  1.0000 0.1114940624
H   H42       1.0  0.03371  0.24589  0.66177  1.0000 0.1204658449
H   H43       1.0  0.90668  0.32058  0.32630  1.0000 0.1114940624
H   H44       1.0  0.06675  0.44688  0.28660  1.0000 0.1114940624
H   H45       1.0  0.97684  0.44359  0.67074  1.0000 0.1291379984
H   H46       1.0  0.08969  0.27858  0.51197  1.0000 0.1114940624
H   H47       1.0  0.17591  0.09887  0.22662  1.0000 0.1204658449
H   H48       1.0  0.33425  0.08987  0.33352  1.0000 0.1204658449
H   H49       1.0  0.32176  0.11075  0.27618  1.0000 0.1204658449
H   H50       1.0  0.98216  0.43768  0.75623  1.0000 0.1114940624
H   H51       1.0  0.27787  0.16102  0.39610  1.0000 0.1353327034
H   H52       1.0  0.19666  0.31802  0.27689  1.0000 0.1204658449
H   H53       1.0  0.20790  0.39128  0.39940  1.0000 0.1204658449
H   H54       1.0  0.17126  0.40231  0.34097  1.0000 0.1114940624
H   H55       1.0  0.87142  0.09151  0.19761  1.0000 0.1114940624
H   H56       1.0  0.80447  0.04425  0.16088  1.0000 0.1204658449
H   H57       1.0  0.78291  0.11814  0.18377  1.0000 0.1204658449
H   H58       1.0  0.15930  0.91231  0.31753  1.0000 0.1204658449
H   H59       1.0  0.25254  0.29571  0.21222  1.0000 0.1114940624
H   H60       1.0  0.24019  0.23364  0.16861  1.0000 0.1204658449
H   H61       1.0  0.16905  0.25664  0.19558  1.0000 0.1114940624
H   H62       1.0  0.12749  0.37541  0.45514  1.0000 0.1204658449
H   H63       1.0  0.74412  0.15055  0.29016  1.0000 0.1204658449
H   H64       1.0  0.89675  0.19021  0.45405  1.0000 0.1204658449
H   H65       1.0  0.92731  0.42608  0.50111  1.0000 0.1204658449
H   H66       1.0  0.92564  0.42383  0.58701  1.0000 0.1204658449
H   H67       1.0  0.89440  0.94530  0.36811  1.0000 0.1204658449
H   H68       1.0  0.91654  0.98834  0.20410  1.0000 0.1204658449
H   H69       1.0  0.02201  0.90406  0.20511  1.0000 0.1291379984
H   H70       1.0  0.05359  0.86529  0.25535  1.0000 0.1204658449
H   H71       1.0  0.86521  0.31582  0.45007  1.0000 0.1114940624
H   H72       1.0  0.82309  0.34228  0.39662  1.0000 0.1204658449
H   H73       1.0  0.03338  0.92737  0.41123  1.0000 0.1114940624
H   H74       1.0  0.96664  0.86851  0.39912  1.0000 0.1114940624
H   H75       1.0  0.05771  0.84858  0.40807  1.0000 0.1204658449
H   H76       1.0  0.76642  0.00232  0.35593  1.0000 0.1114940624
H   H77       1.0  0.73092  0.03300  0.30268  1.0000 0.1114940624
H   H78       1.0  0.07567  0.11841  0.18529  1.0000 0.1114940624
H   H79       1.0  0.09880  0.07011  0.13979  1.0000 0.1291379984
H   H80       1.0  0.00821  0.08630  0.13949  1.0000 0.1204658449
H   H81       1.0  0.88512  0.09230  0.50193  1.0000 0.1204658449
H   H82       1.0  0.94331  0.03265  0.48973  1.0000 0.1204658449
H   H83       1.0  0.95770  0.10903  0.47625  1.0000 0.1204658449
H   H84       1.0  0.30469  0.95604  0.42698  1.0000 0.1204658449
H   H85       1.0  0.21855  0.93704  0.39388  1.0000 0.1114940624
H   H86       1.0  0.29396  0.89913  0.37972  1.0000 0.1204658449
H   H87       1.0  0.23032  0.23309  0.50183  1.0000 0.1114940624
H   H88       1.0  0.25935  0.18259  0.45971  1.0000 0.1114940624
H   H89       1.0  0.31699  0.24208  0.49102  1.0000 0.1204658449
H   H90       1.0  0.68485  0.28663  0.26145  1.0000 0.1291379984
H   H91       1.0  0.76956  0.30406  0.25031  1.0000 0.1291379984
H   H92       1.0  0.74506  0.22635  0.25448  1.0000 0.1114940624
H   H93       1.0  0.02279  0.55935  0.97181  1.0000 0.1204658449
H   H94       1.0  0.02368  0.55691  0.88658  1.0000 0.1353327034
H   H95       1.0  0.13731  0.49457  0.03750  1.0000 0.1204658449
H   H96       1.0  0.77116  0.49598  0.02577  1.0000 0.1291379984
H   H97       1.0  0.39280  0.37313  0.17484  1.0000 0.1204658449
H   H98       1.0  0.31204  0.19041  0.05449  1.0000 0.1114940624
H   H99       1.0  0.33570  0.94676  0.05468  1.0000 0.1114940624
H   H100      1.0  0.46815  0.27702  0.17406  1.0000 0.1204658449
H   H101      1.0  0.21780  0.40129  0.03732  1.0000 0.1204658449
H   H102      1.0  0.57353  0.35672  0.04664  1.0000 0.1204658449
H   H103      1.0  0.23730  0.28868  0.05381  1.0000 0.1204658449
H   H104      1.0  0.68141  0.40873  0.02764  1.0000 0.1204658449
H   H105      1.0  0.77362  0.80000  0.02760  1.0000 0.1114940624
H   H106      1.0  0.41628  0.03932  0.05066  1.0000 0.1114940624
H   H107      1.0  0.49519  0.26183  0.04748  1.0000 0.1204658449
H   H108      1.0  0.55129  0.05938  0.17674  1.0000 0.1204658449
H   H109      1.0  0.12469  0.81306  0.04477  1.0000 0.1291379984
H   H110      1.0  0.19220  0.51653  0.19158  1.0000 0.1204658449
H   H111      1.0  0.63022  0.96361  0.17525  1.0000 0.1204658449
H   H112      1.0  0.68797  0.88986  0.02905  1.0000 0.1114940624
H   H113      1.0  0.59497  0.10174  0.04095  1.0000 0.1204658449
H   H114      1.0  0.84042  0.82706  0.18068  1.0000 0.1204658449
H   H115      1.0  0.75304  0.91576  0.18273  1.0000 0.1114940624
H   H116      1.0  0.16921  0.83723  0.19806  1.0000 0.1204658449
H   H117      1.0  0.67023  0.00541  0.03814  1.0000 0.1114940624
H   H118      1.0  0.92284  0.74406  0.88463  1.0000 0.1204658449
H   H119      1.0  0.27835  0.42692  0.19167  1.0000 0.1114940624
H   H120      1.0  0.27642  0.03880  0.18142  1.0000 0.1114940624
H   H121      1.0  0.92049  0.73807  0.96981  1.0000 0.1114940624
H   H122      1.0  0.35313  0.13114  0.17572  1.0000 0.1204658449
H   H123      1.0  0.20985  0.90271  0.04355  1.0000 0.1204658449
H   H124      1.0  0.65508  0.19565  0.16250  1.0000 0.1114940624
H   H125      1.0  0.84987  0.49248  0.17685  1.0000 0.1204658449
H   H126      1.0  0.73614  0.28961  0.16033  1.0000 0.0971561445
H   H127      1.0  0.76733  0.40171  0.17859  1.0000 0.1114940624
H   H128      1.0  0.25544  0.92525  0.19683  1.0000 0.1114940624
H   H129      1.0  0.02011  0.74868  0.82353  1.0000 0.1114940624
H   H130      1.0  0.97229  0.75596  0.25386  1.0000 0.1204658449
H   H131      1.0  0.01897  0.74883  0.73697  1.0000 0.1204658449
H   H132      1.0  0.93616  0.55237  0.79995  1.0000 0.1204658449
H   H133      1.0  0.91476  0.72611  0.40254  1.0000 0.1114940624
H   H134      1.0  0.96629  0.75411  0.33823  1.0000 0.1204658449
H   H135      1.0  0.09332  0.67942  0.67370  1.0000 0.1114940624
H   H136      1.0  0.93325  0.55312  0.71340  1.0000 0.1114940624
H   H137      1.0  0.02316  0.55641  0.32926  1.0000 0.1291379984
H   H138      1.0  0.91031  0.72142  0.48803  1.0000 0.1114940624
H   H139      1.0  0.82409  0.90113  0.77338  1.0000 0.1204658449
H   H140      1.0  0.66575  0.91013  0.66648  1.0000 0.1204658449
H   H141      1.0  0.67824  0.88925  0.72382  1.0000 0.1204658449
H   H142      1.0  0.01784  0.56232  0.24377  1.0000 0.1114940624
H   H143      1.0  0.72213  0.83898  0.60390  1.0000 0.1353327034
H   H144      1.0  0.80334  0.68198  0.72311  1.0000 0.1204658449
H   H145      1.0  0.79210  0.60872  0.60060  1.0000 0.1204658449
H   H146      1.0  0.82874  0.59769  0.65903  1.0000 0.1114940624
H   H147      1.0  0.12858  0.90849  0.80239  1.0000 0.1114940624
H   H148      1.0  0.19553  0.95575  0.83912  1.0000 0.1204658449
H   H149      1.0  0.21709  0.88186  0.81623  1.0000 0.1204658449
H   H150      1.0  0.84070  0.08769  0.68247  1.0000 0.1204658449
H   H151      1.0  0.74746  0.70429  0.78778  1.0000 0.1114940624
H   H152      1.0  0.75981  0.76636  0.83139  1.0000 0.1204658449
H   H153      1.0  0.83095  0.74336  0.80442  1.0000 0.1114940624
H   H154      1.0  0.87251  0.62459  0.54486  1.0000 0.1204658449
H   H155      1.0  0.25588  0.84945  0.70984  1.0000 0.1204658449
H   H156      1.0  0.10325  0.80979  0.54595  1.0000 0.1204658449
H   H157      1.0  0.07269  0.57392  0.49889  1.0000 0.1204658449
H   H158      1.0  0.07436  0.57617  0.41299  1.0000 0.1204658449
H   H159      1.0  0.10560  0.05470  0.63189  1.0000 0.1204658449
H   H160      1.0  0.08346  0.01166  0.79590  1.0000 0.1204658449
H   H161      1.0  0.97799  0.09594  0.79489  1.0000 0.1291379984
H   H162      1.0  0.94641  0.13471  0.74465  1.0000 0.1204658449
H   H163      1.0  0.13479  0.68418  0.54993  1.0000 0.1114940624
H   H164      1.0  0.17691  0.65772  0.60338  1.0000 0.1204658449
H   H165      1.0  0.96662  0.07263  0.58877  1.0000 0.1114940624
H   H166      1.0  0.03336  0.13149  0.60088  1.0000 0.1114940624
H   H167      1.0  0.94229  0.15142  0.59193  1.0000 0.1204658449
H   H168      1.0  0.23358  0.99768  0.64407  1.0000 0.1114940624
H   H169      1.0  0.26908  0.96700  0.69732  1.0000 0.1114940624
H   H170      1.0  0.92433  0.88159  0.81471  1.0000 0.1114940624
H   H171      1.0  0.90120  0.92989  0.86021  1.0000 0.1291379984
H   H172      1.0  0.99179  0.91370  0.86051  1.0000 0.1204658449
H   H173      1.0  0.11488  0.90770  0.49807  1.0000 0.1204658449
H   H174      1.0  0.05669  0.96735  0.51027  1.0000 0.1204658449
H   H175      1.0  0.04230  0.89097  0.52375  1.0000 0.1204658449
H   H176      1.0  0.69531  0.04396  0.57302  1.0000 0.1204658449
H   H177      1.0  0.78145  0.06296  0.60612  1.0000 0.1114940624
H   H178      1.0  0.70604  0.10087  0.62028  1.0000 0.1204658449
H   H179      1.0  0.76968  0.76691  0.49817  1.0000 0.1114940624
H   H180      1.0  0.74065  0.81741  0.54029  1.0000 0.1114940624
H   H181      1.0  0.68301  0.75792  0.50898  1.0000 0.1204658449
H   H182      1.0  0.31515  0.71337  0.73855  1.0000 0.1291379984
H   H183      1.0  0.23044  0.69594  0.74969  1.0000 0.1291379984
H   H184      1.0  0.25494  0.77365  0.74552  1.0000 0.1114940624
C   C1        1.0  0.84770  0.48687  0.88508  1.0000 -0.0384092827
C   C2        1.0  0.55640  0.84184  0.88725  1.0000 -0.0191043352
C   C3        1.0  0.60150  0.77753  0.88585  1.0000 0.070688933
C   C4        1.0  0.47990  0.84381  0.89067  1.0000 -0.0191043352
C   C5        1.0  0.17930  0.49691  0.89897  1.0000 -0.0384092827
C   C6        1.0  0.18280  0.19592  0.89575  1.0000 -0.0384092827
C   C7        1.0  0.99810  0.40296  0.04641  1.0000 0.0803924819
C   C8        1.0  0.90740  0.43242  0.88474  1.0000 0.5740713028
C   C9        1.0  0.99710  0.40447  0.09716  1.0000 -0.1694759852
C   C10       1.0  0.70410  0.01759  0.88206  1.0000 0.070688933
C   C11       1.0  0.83600  0.52072  0.93097  1.0000 -0.0924404831
C   C12       1.0  0.43230  0.78071  0.89365  1.0000 0.0803924819
C   C13       1.0  0.86230  0.18456  0.87807  1.0000 -0.0384092827
C   C14       1.0  0.23000  0.52263  0.94284  1.0000 -0.0924404831
C   C15       1.0  0.60450  0.90473  0.88605  1.0000 0.070688933
C   C16       1.0  0.12620  0.25234  0.89699  1.0000 0.5865250973
C   C17       1.0  0.69350  0.65799  0.88581  1.0000 0.0570865446
C   C18       1.0  0.43510  0.90883  0.89135  1.0000 0.070688933
C   C19       1.0  0.12180  0.44168  0.90020  1.0000 0.5740713028
C   C20       1.0  0.62420  0.66371  0.85030  1.0000 -0.1502320585
C   C21       1.0  0.28830  0.08600  0.89418  1.0000 0.0803924819
C   C22       1.0  0.33650  0.66570  0.89636  1.0000 0.070688933
C   C23       1.0  0.67050  0.77228  0.92088  1.0000 -0.1502320585
C   C24       1.0  0.66050  0.01561  0.92023  1.0000 -0.1502320585
C   C25       1.0  0.34040  0.02601  0.89295  1.0000 0.070688933
C   C26       1.0  0.74300  0.59726  0.88510  1.0000 0.070688933
C   C27       1.0  0.57950  0.72131  0.85062  1.0000 -0.1502320585
C   C28       1.0  0.78690  0.57521  0.93111  1.0000 -0.1417271003
C   C29       1.0  0.40890  0.67601  0.92951  1.0000 -0.1417271003
C   C30       1.0  0.71560  0.71343  0.92111  1.0000 -0.1502320585
C   C31       1.0  0.28290  0.57539  0.94183  1.0000 -0.1417271003
C   C32       1.0  0.22980  0.17615  0.94069  1.0000 -0.1024460223
C   C33       1.0  0.28460  0.60548  0.89683  1.0000 0.0803924819
C   C34       1.0  0.61210  0.96056  0.92262  1.0000 -0.1502320585
C   C35       1.0  0.45590  0.73223  0.92888  1.0000 -0.1502320585
C   C36       1.0  0.42410  0.95103  0.85139  1.0000 -0.1502320585
C   C37       1.0  0.75870  0.07525  0.88083  1.0000 0.070688933
C   C38       1.0  0.02550  0.35120  0.12480  1.0000 0.1204658449
C   C39       1.0  0.84890  0.16380  0.92392  1.0000 -0.0924404831
C   C40       1.0  0.80300  0.50711  0.83992  1.0000 -0.1024460223
C   C41       1.0  0.37700  0.00839  0.85252  1.0000 -0.1417271003
C   C42       1.0  0.28090  0.12260  0.93972  1.0000 -0.1502320585
C   C43       1.0  0.39850  0.92664  0.93153  1.0000 -0.1502320585
C   C44       1.0  0.19070  0.16030  0.85047  1.0000 -0.0924404831
C   C45       1.0  0.24250  0.10700  0.84915  1.0000 -0.1502320585
C   C46       1.0  0.91670  0.24256  0.87771  1.0000 0.5865250973
C   C47       1.0  0.82260  0.14980  0.83378  1.0000 -0.0924404831
C   C48       1.0  0.35300  0.98371  0.93315  1.0000 -0.1502320585
C   C49       1.0  0.05690  0.29480  0.09831  1.0000 -0.2106173319
C   C50       1.0  0.75180  0.56067  0.83988  1.0000 -0.1598723696
C   C51       1.0  0.69600  0.96138  0.84572  1.0000 -0.1417271003
C   C52       1.0  0.05690  0.29861  0.04740  1.0000 0.0971561445
C   C53       1.0  0.64920  0.90705  0.84876  1.0000 -0.1417271003
C   C54       1.0  0.79810  0.11030  0.92455  1.0000 -0.1502320585
C   C55       1.0  0.36200  0.77170  0.86147  1.0000 -0.1598723696
C   C56       1.0  0.02410  0.35010  0.17959  1.0000 0.0570865446
C   C57       1.0  0.18330  0.52560  0.85408  1.0000 -0.1024460223
C   C58       1.0  0.31350  0.71510  0.86258  1.0000 -0.1598723696
C   C59       1.0  0.00440  0.34510  0.65608  1.0000 0.1204658449
C   C60       1.0  0.23310  0.57900  0.85277  1.0000 -0.1502320585
C   C61       1.0  0.77180  0.09720  0.83453  1.0000 -0.1502320585
C   C62       1.0  0.99770  0.29080  0.19885  1.0000 -0.1694759852
C   C63       1.0  0.01800  0.28590  0.73062  1.0000 0.0860769524
C   C64       1.0  0.99820  0.29100  0.25020  1.0000 -0.1417271003
C   C65       1.0  0.11150  0.01470  0.23030  1.0000 0.1611757873
C   C66       1.0  0.00520  0.34700  0.60098  1.0000 0.070688933
C   C67       1.0  0.04790  0.40740  0.21291  1.0000 -0.1417271003
C   C68       1.0  0.05260  0.30530  0.57800  1.0000 -0.1502320585
C   C69       1.0  0.26750  0.17620  0.32170  1.0000 0.0496220203
C   C70       1.0  0.24170  0.22400  0.28600  1.0000 0.1699184997
C   C71       1.0  0.02360  0.34870  0.28395  1.0000 0.0860769524
C   C72       1.0  0.00710  0.34910  0.44170  1.0000 0.0017019369
C   C73       1.0  0.02060  0.28630  0.68010  1.0000 -0.1895908417
C   C74       1.0  0.20610  0.30260  0.35160  1.0000 0.0496220203
C   C75       1.0  0.95130  0.33260  0.35260  1.0000 -0.2106173319
C   C76       1.0  0.02150  0.34900  0.33931  1.0000 0.0094711201
C   C77       1.0  0.95800  0.92410  0.31370  1.0000 0.1611757873
C   C78       1.0  0.04890  0.40730  0.26433  1.0000 -0.1598723696
C   C79       1.0  0.08890  0.36270  0.37820  1.0000 0.0971561445
C   C80       1.0  0.10710  0.95940  0.25740  1.0000 0.0496220203
C   C81       1.0  0.00620  0.35090  0.49660  1.0000 0.0803924819
C   C82       1.0  0.98880  0.40140  0.68550  1.0000 -0.2002563329
C   C83       1.0  0.05460  0.30740  0.52660  1.0000 -0.1598723696
C   C84       1.0  0.17290  0.06100  0.24610  1.0000 -0.2954546264
C   C85       1.0  0.29500  0.10630  0.30500  1.0000 -0.2869354078
C   C86       1.0  0.99040  0.39710  0.73625  1.0000 0.0803924819
C   C87       1.0  0.26200  0.19350  0.37180  1.0000 -0.2788536273
C   C88       1.0  0.94380  0.33310  0.40370  1.0000 0.0803924819
C   C89       1.0  0.21270  0.28580  0.30140  1.0000 -0.2954546264
C   C90       1.0  0.23020  0.05440  0.28900  1.0000 0.0496220203
C   C91       1.0  0.23490  0.25480  0.38780  1.0000 0.1906509845
C   C92       1.0  0.84300  0.11470  0.40080  1.0000 0.1805164067
C   C93       1.0  0.17270  0.37070  0.36800  1.0000 -0.2869354078
C   C94       1.0  0.83990  0.23730  0.39220  1.0000 0.0570865446
C   C95       1.0  0.79660  0.22240  0.34320  1.0000 0.1534807457
C   C96       1.0  0.22480  0.99800  0.31580  1.0000 0.1699184997
C   C97       1.0  0.81560  0.07780  0.19070  1.0000 -0.2293863745
C   C98       1.0  0.16240  0.95110  0.29900  1.0000 -0.2595238464
C   C99       1.0  0.80310  0.10180  0.35360  1.0000 0.0094711201
C   C100      1.0  0.96720  0.93670  0.26510  1.0000 0.0496220203
C   C101      1.0  0.22630  0.25120  0.20080  1.0000 -0.2215551438
C   C102      1.0  0.08260  0.36430  0.42880  1.0000 -0.2215551438
C   C103      1.0  0.77600  0.15860  0.32340  1.0000 -0.2707201095
C   C104      1.0  0.86480  0.18220  0.42080  1.0000 -0.3171088995
C   C105      1.0  0.95950  0.39440  0.52050  1.0000 -0.1502320585
C   C106      1.0  0.95830  0.39320  0.57170  1.0000 -0.1502320585
C   C107      1.0  0.89890  0.95400  0.33450  1.0000 -0.2869354078
C   C108      1.0  0.91280  0.97910  0.23770  1.0000 -0.2788536273
C   C109      1.0  0.03790  0.91040  0.24280  1.0000 -0.2788536273
C   C110      1.0  0.86380  0.31110  0.41290  1.0000 -0.2869354078
C   C111      1.0  0.85440  0.00710  0.25900  1.0000 0.1611757873
C   C112      1.0  0.84520  0.99710  0.30660  1.0000 0.0381771921
C   C113      1.0  0.01870  0.88180  0.39390  1.0000 -0.2595238464
C   C114      1.0  0.77900  0.03070  0.32970  1.0000 -0.2595238464
C   C115      1.0  0.05960  0.07820  0.16110  1.0000 -0.2293863745
C   C116      1.0  0.91750  0.07460  0.47800  1.0000 -0.2707201095
C   C117      1.0  0.27430  0.94260  0.39260  1.0000 -0.2511160077
C   C118      1.0  0.26210  0.22970  0.47550  1.0000 -0.2595238464
C   C119      1.0  0.74050  0.27400  0.26770  1.0000 -0.2106173319
C   C120      1.0  0.15230  0.51313  0.11492  1.0000 -0.0384092827
C   C121      1.0  0.44360  0.15816  0.11275  1.0000 -0.0191043352
C   C122      1.0  0.39850  0.22247  0.11415  1.0000 0.070688933
C   C123      1.0  0.52010  0.15619  0.10933  1.0000 -0.0191043352
C   C124      1.0  0.82070  0.50309  0.10103  1.0000 -0.0384092827
C   C125      1.0  0.81720  0.80408  0.10425  1.0000 -0.0339843036
C   C126      1.0  0.00190  0.59704  0.95359  1.0000 0.0803924819
C   C127      1.0  0.09260  0.56758  0.11526  1.0000 0.5740713028
C   C128      1.0  0.00290  0.59553  0.90284  1.0000 -0.1694759852
C   C129      1.0  0.29590  0.98241  0.11794  1.0000 0.070688933
C   C130      1.0  0.16400  0.47928  0.06903  1.0000 -0.0924404831
C   C131      1.0  0.56770  0.21929  0.10635  1.0000 0.0803924819
C   C132      1.0  0.13770  0.81544  0.12193  1.0000 -0.0384092827
C   C133      1.0  0.77000  0.47737  0.05716  1.0000 -0.0924404831
C   C134      1.0  0.39550  0.09527  0.11395  1.0000 0.070688933
C   C135      1.0  0.87380  0.74766  0.10301  1.0000 0.5865250973
C   C136      1.0  0.30650  0.34201  0.11419  1.0000 0.0570865446
C   C137      1.0  0.56490  0.09117  0.10865  1.0000 0.070688933
C   C138      1.0  0.87820  0.55832  0.09980  1.0000 0.5740713028
C   C139      1.0  0.37580  0.33629  0.14970  1.0000 -0.1502320585
C   C140      1.0  0.71170  0.91400  0.10582  1.0000 0.0803924819
C   C141      1.0  0.66350  0.33430  0.10364  1.0000 0.070688933
C   C142      1.0  0.32950  0.22772  0.07912  1.0000 -0.1502320585
C   C143      1.0  0.33950  0.98439  0.07977  1.0000 -0.1502320585
C   C144      1.0  0.65960  0.97399  0.10705  1.0000 0.070688933
C   C145      1.0  0.25700  0.40274  0.11490  1.0000 0.070688933
C   C146      1.0  0.42050  0.27869  0.14938  1.0000 -0.1502320585
C   C147      1.0  0.21310  0.42479  0.06889  1.0000 -0.1417271003
C   C148      1.0  0.59110  0.32399  0.07049  1.0000 -0.1417271003
C   C149      1.0  0.28440  0.28657  0.07889  1.0000 -0.1502320585
C   C150      1.0  0.71710  0.42461  0.05817  1.0000 -0.1417271003
C   C151      1.0  0.77020  0.82385  0.05931  1.0000 -0.1024460223
C   C152      1.0  0.71540  0.39452  0.10317  1.0000 0.0803924819
C   C153      1.0  0.38790  0.03944  0.07738  1.0000 -0.1502320585
C   C154      1.0  0.54410  0.26777  0.07112  1.0000 -0.1502320585
C   C155      1.0  0.57590  0.04897  0.14861  1.0000 -0.1502320585
C   C156      1.0  0.24130  0.92475  0.11917  1.0000 0.070688933
C   C157      1.0  0.97450  0.64880  0.87520  1.0000 0.1204658449
C   C158      1.0  0.15110  0.83620  0.07608  1.0000 -0.0924404831
C   C159      1.0  0.19700  0.49289  0.16008  1.0000 -0.1024460223
C   C160      1.0  0.62300  0.99161  0.14748  1.0000 -0.1417271003
C   C161      1.0  0.71910  0.87740  0.06028  1.0000 -0.1502320585
C   C162      1.0  0.60150  0.07336  0.06847  1.0000 -0.1502320585
C   C163      1.0  0.80930  0.83970  0.14953  1.0000 -0.0924404831
C   C164      1.0  0.75750  0.89300  0.15085  1.0000 -0.1502320585
C   C165      1.0  0.08330  0.75744  0.12229  1.0000 0.5865250973
C   C166      1.0  0.17740  0.85020  0.16622  1.0000 -0.0924404831
C   C167      1.0  0.64700  0.01629  0.06685  1.0000 -0.1502320585
C   C168      1.0  0.94310  0.70520  0.90169  1.0000 -0.2106173319
C   C169      1.0  0.24820  0.43933  0.16012  1.0000 -0.1598723696
C   C170      1.0  0.30400  0.03862  0.15428  1.0000 -0.1417271003
C   C171      1.0  0.94310  0.70139  0.95260  1.0000 0.0971561445
C   C172      1.0  0.35080  0.09295  0.15124  1.0000 -0.1417271003
C   C173      1.0  0.20190  0.88970  0.07545  1.0000 -0.1502320585
C   C174      1.0  0.63800  0.22830  0.13853  1.0000 -0.1598723696
C   C175      1.0  0.97590  0.64990  0.82041  1.0000 0.0570865446
C   C176      1.0  0.81670  0.47440  0.14592  1.0000 -0.1024460223
C   C177      1.0  0.68650  0.28490  0.13742  1.0000 -0.1598723696
C   C178      1.0  0.99560  0.65490  0.34392  1.0000 0.1204658449
C   C179      1.0  0.76690  0.42100  0.14723  1.0000 -0.1502320585
C   C180      1.0  0.22820  0.90280  0.16547  1.0000 -0.1502320585
C   C181      1.0  0.00230  0.70920  0.80115  1.0000 -0.1694759852
C   C182      1.0  0.98200  0.71410  0.26938  1.0000 0.0860769524
C   C183      1.0  0.00180  0.70900  0.74980  1.0000 -0.1417271003
C   C184      1.0  0.88850  0.98530  0.76970  1.0000 0.1611757873
C   C185      1.0  0.99480  0.65300  0.39902  1.0000 0.070688933
C   C186      1.0  0.95210  0.59260  0.78709  1.0000 -0.1417271003
C   C187      1.0  0.94740  0.69470  0.42200  1.0000 -0.1502320585
C   C188      1.0  0.73250  0.82380  0.67830  1.0000 0.0496220203
C   C189      1.0  0.75830  0.77600  0.71400  1.0000 0.1699184997
C   C190      1.0  0.97640  0.65130  0.71605  1.0000 0.0860769524
C   C191      1.0  0.99290  0.65090  0.55830  1.0000 0.0017019369
C   C192      1.0  0.97940  0.71370  0.31990  1.0000 -0.1895908417
C   C193      1.0  0.79390  0.69740  0.64840  1.0000 0.0496220203
C   C194      1.0  0.04870  0.66740  0.64740  1.0000 -0.2106173319
C   C195      1.0  0.97850  0.65100  0.66069  1.0000 0.0094711201
C   C196      1.0  0.04200  0.07590  0.68630  1.0000 0.1611757873
C   C197      1.0  0.95110  0.59270  0.73567  1.0000 -0.1598723696
C   C198      1.0  0.91110  0.63730  0.62180  1.0000 0.0971561445
C   C199      1.0  0.89290  0.04060  0.74260  1.0000 0.0496220203
C   C200      1.0  0.99380  0.64910  0.50340  1.0000 0.0803924819
C   C201      1.0  0.01120  0.59860  0.31450  1.0000 -0.2002563329
C   C202      1.0  0.94540  0.69260  0.47340  1.0000 -0.1598723696
C   C203      1.0  0.82710  0.93900  0.75390  1.0000 -0.2954546264
C   C204      1.0  0.70500  0.89370  0.69500  1.0000 -0.2869354078
C   C205      1.0  0.00960  0.60290  0.26375  1.0000 0.0803924819
C   C206      1.0  0.73800  0.80650  0.62820  1.0000 -0.2788536273
C   C207      1.0  0.05620  0.66690  0.59630  1.0000 0.0803924819
C   C208      1.0  0.78730  0.71420  0.69860  1.0000 -0.2869354078
C   C209      1.0  0.76980  0.94560  0.71100  1.0000 0.0496220203
C   C210      1.0  0.76510  0.74520  0.61220  1.0000 0.1906509845
C   C211      1.0  0.15700  0.88530  0.59920  1.0000 0.1805164067
C   C212      1.0  0.82730  0.62930  0.63200  1.0000 -0.2869354078
C   C213      1.0  0.16010  0.76270  0.60780  1.0000 0.0570865446
C   C214      1.0  0.20340  0.77760  0.65680  1.0000 0.1534807457
C   C215      1.0  0.77520  0.00200  0.68420  1.0000 0.1699184997
C   C216      1.0  0.18440  0.92220  0.80930  1.0000 -0.2293863745
C   C217      1.0  0.83760  0.04890  0.70100  1.0000 -0.2595238464
C   C218      1.0  0.19690  0.89820  0.64640  1.0000 0.0094711201
C   C219      1.0  0.03280  0.06330  0.73490  1.0000 0.0496220203
C   C220      1.0  0.77370  0.74880  0.79920  1.0000 -0.2215551438
C   C221      1.0  0.91740  0.63570  0.57120  1.0000 -0.2215551438
C   C222      1.0  0.22400  0.84140  0.67660  1.0000 -0.2707201095
C   C223      1.0  0.13520  0.81780  0.57920  1.0000 -0.3171088995
C   C224      1.0  0.04050  0.60560  0.47950  1.0000 -0.1502320585
C   C225      1.0  0.04170  0.60680  0.42830  1.0000 -0.1502320585
C   C226      1.0  0.10110  0.04600  0.66550  1.0000 -0.2788536273
C   C227      1.0  0.08720  0.02090  0.76230  1.0000 -0.2788536273
C   C228      1.0  0.96210  0.08960  0.75720  1.0000 -0.2788536273
C   C229      1.0  0.13620  0.68890  0.58710  1.0000 -0.2869354078
C   C230      1.0  0.14560  0.99290  0.74100  1.0000 0.1611757873
C   C231      1.0  0.15480  0.00290  0.69340  1.0000 0.0381771921
C   C232      1.0  0.98130  0.11820  0.60610  1.0000 -0.2595238464
C   C233      1.0  0.22100  0.96930  0.67030  1.0000 -0.2595238464
C   C234      1.0  0.94040  0.92180  0.83890  1.0000 -0.2293863745
C   C235      1.0  0.08250  0.92540  0.52200  1.0000 -0.2707201095
C   C236      1.0  0.72570  0.05740  0.60740  1.0000 -0.2511160077
C   C237      1.0  0.73790  0.77030  0.52450  1.0000 -0.2595238464
C   C238      1.0  0.25950  0.72600  0.73230  1.0000 -0.2106173319
N   N1        1.0  0.02769  0.34983  0.02090  1.0000 -0.2106173319
N   N2        1.0  0.00270  0.34025  0.75891  1.0000 -0.2002563329
N   N3        1.0  0.97231  0.65017  0.97910  1.0000 -0.2106173319
N   N4        1.0  0.99730  0.65975  0.24109  1.0000 -0.2002563329
O   O1        1.0  0.94523  0.41807  0.92741  1.0000 -0.5426851662
O   O2        1.0  0.11574  0.27765  0.93940  1.0000 -0.5426851662
O   O3        1.0  0.11318  0.42314  0.94215  1.0000 -0.5320597144
O   O4        1.0  0.91713  0.40595  0.84282  1.0000 -0.5320597144
O   O5        1.0  0.08249  0.41723  0.85749  1.0000 -0.5561787339
O   O6        1.0  0.95002  0.27151  0.91999  1.0000 -0.5479378553
O   O7        1.0  0.09184  0.27125  0.85468  1.0000 -0.5479378553
O   O8        1.0  0.92617  0.25975  0.83498  1.0000 -0.5320597144
O   O9        1.0  0.25020  0.20610  0.23705  1.0000 -0.1293019281
O   O10       1.0  0.05440  0.02200  0.18760  1.0000 -0.1234633924
O   O11       1.0  0.77070  0.28080  0.31798  1.0000 -0.1293019281
O   O12       1.0  0.79880  0.04890  0.23260  1.0000 -0.1502320585
O   O13       1.0  0.01640  0.88330  0.34090  1.0000 -0.1694759852
O   O14       1.0  0.23180  0.27600  0.43679  1.0000 -0.1502320585
O   O15       1.0  0.28240  0.99390  0.35980  1.0000 -0.1502320585
O   O16       1.0  0.86720  0.05960  0.42710  1.0000 -0.1502320585
O   O17       1.0  0.05477  0.58193  0.07259  1.0000 -0.5426851662
O   O18       1.0  0.88426  0.72235  0.06060  1.0000 -0.5426851662
O   O19       1.0  0.88682  0.57686  0.05785  1.0000 -0.5320597144
O   O20       1.0  0.08287  0.59405  0.15718  1.0000 -0.5320597144
O   O21       1.0  0.91751  0.58277  0.14251  1.0000 -0.5561787339
O   O22       1.0  0.04998  0.72849  0.08001  1.0000 -0.5479378553
O   O23       1.0  0.90816  0.72875  0.14532  1.0000 -0.5479378553
O   O24       1.0  0.07383  0.74025  0.16502  1.0000 -0.5320597144
O   O25       1.0  0.74980  0.79390  0.76295  1.0000 -0.1293019281
O   O26       1.0  0.94560  0.97800  0.81240  1.0000 -0.1234633924
O   O27       1.0  0.22930  0.71920  0.68202  1.0000 -0.1234633924
O   O28       1.0  0.20120  0.95110  0.76740  1.0000 -0.1502320585
O   O29       1.0  0.98360  0.11670  0.65910  1.0000 -0.1694759852
O   O30       1.0  0.76820  0.72400  0.56321  1.0000 -0.1502320585
O   O31       1.0  0.71760  0.00610  0.64020  1.0000 -0.1502320585
O   O32       1.0  0.13280  0.94040  0.57290  1.0000 -0.1502320585
