# DDEC6 charges by PACMAN v1.1 (https://github.com/mtap-research/PACMAN-charge/)
data_2023[Zn][sql]2[FSR]4
_chemical_formula_sum              "Zn2 H36 C60 N8 O8"
_cell_length_a       6.8629
_cell_length_b       12.68
_cell_length_c       16.8733
_cell_angle_alpha    107.831
_cell_angle_beta     97.811
_cell_angle_gamma    90.625

_symmetry_space_group_name_H-M    "P 1"
_symmetry_Int_Tables_number       1

loop_
  _symmetry_equiv_pos_as_xyz
  'x, y, z'

loop_
  _atom_site_type_symbol
  _atom_site_label
  _atom_site_symmetry_multiplicity
  _atom_site_fract_x
  _atom_site_fract_y
  _atom_site_fract_z
  _atom_site_occupancy
  _atom_site_charge
Zn  Zn1       1.0  0.80059  0.98799  0.80360  1.0000 0.7514764876
Zn  Zn2       1.0  0.19941  0.01201  0.19640  1.0000 0.7514764876
H   H1        1.0  0.79026  0.79427  0.86576  1.0000 0.1202831902
H   H2        1.0  0.20974  0.20573  0.13424  1.0000 0.1202831902
H   H3        1.0  0.65987  0.96698  0.48794  1.0000 0.1202831902
H   H4        1.0  0.34013  0.03302  0.51206  1.0000 0.1202831902
H   H5        1.0  0.37513  0.04523  0.80244  1.0000 0.1014103615
H   H6        1.0  0.62487  0.95477  0.19756  1.0000 0.1014103615
H   H7        1.0  0.41344  0.87448  0.69861  1.0000 0.1124357255
H   H8        1.0  0.58656  0.12552  0.30139  1.0000 0.1124357255
H   H9        1.0  0.69711  0.53884  0.65727  1.0000 0.1124357255
H   H10       1.0  0.30289  0.46116  0.34273  1.0000 0.1124357255
H   H11       1.0  0.18206  0.17674  0.76809  1.0000 0.1396922147
H   H12       1.0  0.81794  0.82326  0.23191  1.0000 0.1396922147
H   H13       1.0  0.55251  0.82426  0.01283  1.0000 0.1124357255
H   H14       1.0  0.44749  0.17574  0.98717  1.0000 0.1124357255
H   H15       1.0  0.61044  0.62986  0.84279  1.0000 0.1396922147
H   H16       1.0  0.38956  0.37014  0.15721  1.0000 0.1396922147
H   H17       1.0  0.79745  0.98514  0.37358  1.0000 0.1202831902
H   H18       1.0  0.20255  0.01486  0.62642  1.0000 0.1202831902
H   H19       1.0  0.85950  0.22816  0.82588  1.0000 0.1202831902
H   H20       1.0  0.14050  0.77184  0.17412  1.0000 0.1202831902
H   H21       1.0  0.05702  0.26290  0.67788  1.0000 0.1202831902
H   H22       1.0  0.94298  0.73710  0.32212  1.0000 0.1202831902
H   H23       1.0  0.21448  0.71708  0.67695  1.0000 0.1396922147
H   H24       1.0  0.78552  0.28292  0.32305  1.0000 0.1396922147
H   H25       1.0  0.24441  0.86221  0.95424  1.0000 0.1202831902
H   H26       1.0  0.75559  0.13779  0.04576  1.0000 0.1202831902
H   H27       1.0  0.02603  0.58012  0.67439  1.0000 0.1309440852
H   H28       1.0  0.97397  0.41988  0.32561  1.0000 0.1309440852
H   H29       1.0  0.39044  0.49406  0.57382  1.0000 0.1124357255
H   H30       1.0  0.60956  0.50594  0.42618  1.0000 0.1124357255
H   H31       1.0  0.68029  0.36442  0.79058  1.0000 0.1309440852
H   H32       1.0  0.31971  0.63558  0.20942  1.0000 0.1396922147
H   H33       1.0  0.55282  0.18059  0.46952  1.0000 0.1309440852
H   H34       1.0  0.44718  0.81941  0.53048  1.0000 0.1309440852
H   H35       1.0  0.85965  0.22585  0.55301  1.0000 0.1202831902
H   H36       1.0  0.14035  0.77415  0.44699  1.0000 0.1202831902
C   C1        1.0  0.12090  0.04730  0.92320  1.0000 0.5529146404
C   C2        1.0  0.87910  0.95270  0.07680  1.0000 0.5529146404
C   C3        1.0  0.67380  0.77720  0.82570  1.0000 0.0902105171
C   C4        1.0  0.32620  0.22280  0.17430  1.0000 0.0902105171
C   C5        1.0  0.91820  0.99000  0.56900  1.0000 -0.0236347518
C   C6        1.0  0.08180  0.01000  0.43100  1.0000 -0.0236347518
C   C7        1.0  0.31530  0.02260  0.96480  1.0000 -0.0265672742
C   C8        1.0  0.68470  0.97740  0.03520  1.0000 -0.0265672742
C   C9        1.0  0.79810  0.98060  0.49300  1.0000 -0.119004599
C   C10       1.0  0.20190  0.01940  0.50700  1.0000 -0.1091183984
C   C11       1.0  0.82550  0.98110  0.64300  1.0000 0.5529146404
C   C12       1.0  0.17450  0.01890  0.35700  1.0000 0.5529146404
C   C13       1.0  0.43770  0.11050  0.79880  1.0000 0.0902105171
C   C14       1.0  0.56230  0.88950  0.20120  1.0000 0.0902105171
C   C15       1.0  0.45270  0.82450  0.72900  1.0000 0.0902105171
C   C16       1.0  0.54730  0.17550  0.27100  1.0000 0.0902105171
C   C17       1.0  0.39140  0.65430  0.75680  1.0000 0.1014103615
C   C18       1.0  0.60860  0.34570  0.24320  1.0000 0.1014103615
C   C19       1.0  0.66800  0.46610  0.61910  1.0000 -0.147915916
C   C20       1.0  0.33200  0.53390  0.38090  1.0000 -0.147915916
C   C21       1.0  0.32140  0.18810  0.77800  1.0000 -0.1710576355
C   C22       1.0  0.67860  0.81190  0.22200  1.0000 -0.1710576355
C   C23       1.0  0.53120  0.89590  0.00760  1.0000 -0.119004599
C   C24       1.0  0.46880  0.10410  0.99240  1.0000 -0.119004599
C   C25       1.0  0.56570  0.67970  0.81300  1.0000 -0.1817818447
C   C26       1.0  0.43430  0.32030  0.18700  1.0000 -0.1817818447
C   C27       1.0  0.27980  0.54560  0.73770  1.0000 0.201576306
C   C28       1.0  0.72020  0.45440  0.26230  1.0000 0.201576306
C   C29       1.0  0.00570  0.41610  0.66680  1.0000 0.1202831902
C   C30       1.0  0.99430  0.58390  0.33320  1.0000 0.1202831902
C   C31       1.0  0.88010  0.99100  0.42490  1.0000 -0.119004599
C   C32       1.0  0.11990  0.00900  0.57510  1.0000 -0.119004599
C   C33       1.0  0.41030  0.28380  0.77140  1.0000 0.1124357255
C   C34       1.0  0.58970  0.71620  0.22860  1.0000 0.1124357255
C   C35       1.0  0.72030  0.21700  0.81230  1.0000 0.082440103
C   C36       1.0  0.27970  0.78300  0.18770  1.0000 0.082440103
C   C37       1.0  0.80950  0.38710  0.61360  1.0000 0.082440103
C   C38       1.0  0.19050  0.61290  0.38640  1.0000 0.082440103
C   C39       1.0  0.11040  0.33710  0.69360  1.0000 -0.2193220421
C   C40       1.0  0.88960  0.66290  0.30640  1.0000 -0.2193220421
C   C41       1.0  0.33420  0.73010  0.71490  1.0000 -0.1817818447
C   C42       1.0  0.66580  0.26990  0.28510  1.0000 -0.1817818447
C   C43       1.0  0.34800  0.91840  0.97280  1.0000 -0.1091183984
C   C44       1.0  0.65200  0.08160  0.02720  1.0000 -0.1091183984
C   C45       1.0  0.09330  0.52310  0.69050  1.0000 -0.2273283888
C   C46       1.0  0.90670  0.47690  0.30950  1.0000 -0.2273283888
C   C47       1.0  0.29290  0.36660  0.74330  1.0000 0.201576306
C   C48       1.0  0.70710  0.63340  0.25670  1.0000 0.201576306
C   C49       1.0  0.48600  0.43970  0.56970  1.0000 -0.1357521801
C   C50       1.0  0.51400  0.56030  0.43030  1.0000 -0.1357521801
C   C51       1.0  0.61460  0.29850  0.79140  1.0000 -0.1710576355
C   C52       1.0  0.38540  0.70150  0.20860  1.0000 -0.1710576355
C   C53       1.0  0.58250  0.25330  0.50760  1.0000 -0.119004599
C   C54       1.0  0.41750  0.74670  0.49240  1.0000 -0.119004599
C   C55       1.0  0.44310  0.33300  0.51380  1.0000 0.0493746125
C   C56       1.0  0.55690  0.66700  0.48620  1.0000 0.0493746125
C   C57       1.0  0.76430  0.28030  0.55720  1.0000 -0.1303114533
C   C58       1.0  0.23570  0.71970  0.44280  1.0000 -0.1303114533
C   C59       1.0  0.25310  0.30870  0.46090  1.0000 0.2609079094
C   C60       1.0  0.74690  0.69130  0.53910  1.0000 0.2609079094
N   N1        1.0  0.62050  0.84910  0.78334  1.0000 -0.2273283888
N   N2        1.0  0.37950  0.15090  0.21666  1.0000 -0.2273283888
N   N3        1.0  0.63450  0.12180  0.81428  1.0000 -0.2273283888
N   N4        1.0  0.36550  0.87820  0.18572  1.0000 -0.2273283888
N   N5        1.0  0.37780  0.46960  0.76556  1.0000 -0.3358843862
N   N6        1.0  0.62220  0.53040  0.23444  1.0000 -0.3358843862
N   N7        1.0  0.10420  0.29330  0.41910  1.0000 -0.359687665
N   N8        1.0  0.89580  0.70670  0.58090  1.0000 -0.359687665
O   O1        1.0  0.99940  0.96235  0.88766  1.0000 -0.5529986768
O   O2        1.0  0.00060  0.03765  0.11234  1.0000 -0.5550938039
O   O3        1.0  0.64570  0.96397  0.63562  1.0000 -0.5529986768
O   O4        1.0  0.35430  0.03603  0.36438  1.0000 -0.5529986768
O   O5        1.0  0.94450  0.99419  0.71167  1.0000 -0.5529986768
O   O6        1.0  0.05550  0.00581  0.28833  1.0000 -0.5529986768
O   O7        1.0  0.08890  0.14150  0.92071  1.0000 -0.5428234129
O   O8        1.0  0.91110  0.85850  0.07929  1.0000 -0.5428234129
