# DDEC6 charges by PACMAN v1.1 (https://github.com/mtap-research/PACMAN-charge/)
data_2023[Gd][bey]2[FSR]2
_chemical_formula_sum              "Gd4 H100 C128 O40"
_cell_length_a       9.6431
_cell_length_b       11.6865
_cell_length_c       34.943
_cell_angle_alpha    90.941
_cell_angle_beta     94.27
_cell_angle_gamma    93.617

_symmetry_space_group_name_H-M    "P 1"
_symmetry_Int_Tables_number       1

loop_
  _symmetry_equiv_pos_as_xyz
  'x, y, z'

loop_
  _atom_site_type_symbol
  _atom_site_label
  _atom_site_symmetry_multiplicity
  _atom_site_fract_x
  _atom_site_fract_y
  _atom_site_fract_z
  _atom_site_occupancy
  _atom_site_charge
Gd  Gd1       1.0  0.97612  0.52011  0.73828  1.0000 2.0457306946
Gd  Gd2       1.0  0.47767  0.48496  0.75450  1.0000 2.0372661198
Gd  Gd3       1.0  0.02388  0.47989  0.26172  1.0000 2.0457306946
Gd  Gd4       1.0  0.52233  0.51504  0.24550  1.0000 2.0372661198
H   H1        1.0  0.75064  0.65068  0.70620  1.0000 0.3752784575
H   H2        1.0  0.83832  0.64326  0.67660  1.0000 0.3518564348
H   H3        1.0  0.17839  0.56997  0.67850  1.0000 0.3717516358
H   H4        1.0  0.05179  0.55994  0.65748  1.0000 0.3391192103
H   H5        1.0  0.59146  0.26838  0.76980  1.0000 0.3717516358
H   H6        1.0  0.69446  0.34810  0.78497  1.0000 0.3717516358
H   H7        1.0  0.39496  0.44464  0.82980  1.0000 0.3577868188
H   H8        1.0  0.27132  0.43647  0.80708  1.0000 0.3717516358
H   H9        1.0  0.79606  0.30615  0.47761  1.0000 0.3518564348
H   H10       1.0  0.77655  0.71085  0.01694  1.0000 0.3518564348
H   H11       1.0  0.98052  0.24457  0.67827  1.0000 0.1198797147
H   H12       1.0  0.44401  0.73383  0.82793  1.0000 0.1198797147
H   H13       1.0  0.97966  0.75181  0.81006  1.0000 0.1198797147
H   H14       1.0  0.48024  0.24556  0.68106  1.0000 0.1198797147
H   H15       1.0  0.33281  0.10685  0.72170  1.0000 0.1198797147
H   H16       1.0  0.15077  0.90447  0.76760  1.0000 0.1198797147
H   H17       1.0  0.64890  0.66555  0.87093  1.0000 0.1198797147
H   H18       1.0  0.81223  0.34000  0.62166  1.0000 0.1198797147
H   H19       1.0  0.91444  0.07286  0.64497  1.0000 0.1113704982
H   H20       1.0  0.51137  0.89982  0.86433  1.0000 0.1113704982
H   H21       1.0  0.06670  0.88299  0.85841  1.0000 0.1113704982
H   H22       1.0  0.40224  0.11329  0.63248  1.0000 0.1113704982
H   H23       1.0  0.25958  0.93311  0.69095  1.0000 0.1198797147
H   H24       1.0  0.22591  0.07286  0.80240  1.0000 0.1198797147
H   H25       1.0  0.74097  0.79124  0.92048  1.0000 0.1113704982
H   H26       1.0  0.72626  0.21972  0.57094  1.0000 0.1113704982
H   H27       1.0  0.05133  0.80797  0.65773  1.0000 0.1198797147
H   H28       1.0  0.39774  0.17922  0.84565  1.0000 0.1198797147
H   H29       1.0  0.97742  0.89874  0.95082  1.0000 0.1198797147
H   H30       1.0  0.49942  0.10323  0.53984  1.0000 0.1198797147
H   H31       1.0  0.96878  0.78497  0.59759  1.0000 0.1198797147
H   H32       1.0  0.48613  0.20476  0.90404  1.0000 0.1198797147
H   H33       1.0  0.05954  0.07421  0.94756  1.0000 0.1113704982
H   H34       1.0  0.42232  0.92554  0.54393  1.0000 0.1198797147
H   H35       1.0  0.17729  0.03122  0.58940  1.0000 0.1113704982
H   H36       1.0  0.31444  0.94643  0.92017  1.0000 0.1198797147
H   H37       1.0  0.82897  0.04756  0.86252  1.0000 0.1198797147
H   H38       1.0  0.29301  0.78666  0.58111  1.0000 0.1113704982
H   H39       1.0  0.79151  0.89873  0.55588  1.0000 0.1198797147
H   H40       1.0  0.69275  0.11281  0.94101  1.0000 0.1198797147
H   H41       1.0  0.17612  0.22097  0.91070  1.0000 0.1113704982
H   H42       1.0  0.63549  0.96090  0.63206  1.0000 0.1198797147
H   H43       1.0  0.15199  0.17849  0.54625  1.0000 0.1198797147
H   H44       1.0  0.37779  0.80771  0.96450  1.0000 0.1198797147
H   H45       1.0  0.81669  0.18061  0.81359  1.0000 0.1198797147
H   H46       1.0  0.29278  0.65974  0.63117  1.0000 0.1113704982
H   H47       1.0  0.76053  0.05004  0.51406  1.0000 0.1113704982
H   H48       1.0  0.75874  0.97171  0.98368  1.0000 0.1113704982
H   H49       1.0  0.16491  0.35365  0.86195  1.0000 0.1113704982
H   H50       1.0  0.63468  0.83496  0.68268  1.0000 0.1198797147
H   H51       1.0  0.24936  0.34932  0.29380  1.0000 0.3752784575
H   H52       1.0  0.16168  0.35674  0.32340  1.0000 0.3518564348
H   H53       1.0  0.82161  0.43003  0.32150  1.0000 0.3717516358
H   H54       1.0  0.94821  0.44006  0.34252  1.0000 0.3391192103
H   H55       1.0  0.40854  0.73162  0.23020  1.0000 0.3717516358
H   H56       1.0  0.30554  0.65190  0.21503  1.0000 0.3717516358
H   H57       1.0  0.60504  0.55536  0.17020  1.0000 0.3577868188
H   H58       1.0  0.72868  0.56353  0.19292  1.0000 0.3717516358
H   H59       1.0  0.20394  0.69385  0.52239  1.0000 0.3518564348
H   H60       1.0  0.22345  0.28915  0.98306  1.0000 0.3518564348
H   H61       1.0  0.01948  0.75543  0.32173  1.0000 0.1198797147
H   H62       1.0  0.55599  0.26617  0.17207  1.0000 0.1198797147
H   H63       1.0  0.02034  0.24819  0.18994  1.0000 0.1198797147
H   H64       1.0  0.51976  0.75444  0.31894  1.0000 0.1198797147
H   H65       1.0  0.66719  0.89315  0.27830  1.0000 0.1198797147
H   H66       1.0  0.84923  0.09553  0.23240  1.0000 0.1198797147
H   H67       1.0  0.35110  0.33445  0.12907  1.0000 0.1198797147
H   H68       1.0  0.18777  0.66000  0.37834  1.0000 0.1198797147
H   H69       1.0  0.08556  0.92714  0.35503  1.0000 0.1113704982
H   H70       1.0  0.48863  0.10018  0.13567  1.0000 0.1113704982
H   H71       1.0  0.93330  0.11701  0.14159  1.0000 0.1113704982
H   H72       1.0  0.59776  0.88671  0.36752  1.0000 0.1113704982
H   H73       1.0  0.74042  0.06689  0.30905  1.0000 0.1198797147
H   H74       1.0  0.77409  0.92714  0.19760  1.0000 0.1198797147
H   H75       1.0  0.25903  0.20876  0.07952  1.0000 0.1113704982
H   H76       1.0  0.27374  0.78028  0.42906  1.0000 0.1113704982
H   H77       1.0  0.94867  0.19203  0.34227  1.0000 0.1198797147
H   H78       1.0  0.60226  0.82078  0.15435  1.0000 0.1198797147
H   H79       1.0  0.02258  0.10126  0.04918  1.0000 0.1198797147
H   H80       1.0  0.50058  0.89677  0.46016  1.0000 0.1198797147
H   H81       1.0  0.03122  0.21503  0.40241  1.0000 0.1198797147
H   H82       1.0  0.51387  0.79524  0.09596  1.0000 0.1198797147
H   H83       1.0  0.94046  0.92579  0.05244  1.0000 0.1113704982
H   H84       1.0  0.57768  0.07446  0.45607  1.0000 0.1198797147
H   H85       1.0  0.82271  0.96878  0.41060  1.0000 0.1113704982
H   H86       1.0  0.68556  0.05357  0.07983  1.0000 0.1198797147
H   H87       1.0  0.17103  0.95244  0.13748  1.0000 0.1198797147
H   H88       1.0  0.70699  0.21334  0.41889  1.0000 0.1113704982
H   H89       1.0  0.20849  0.10127  0.44412  1.0000 0.1198797147
H   H90       1.0  0.30725  0.88719  0.05899  1.0000 0.1198797147
H   H91       1.0  0.82388  0.77903  0.08930  1.0000 0.1113704982
H   H92       1.0  0.36451  0.03910  0.36794  1.0000 0.1198797147
H   H93       1.0  0.84801  0.82151  0.45375  1.0000 0.1198797147
H   H94       1.0  0.62221  0.19229  0.03550  1.0000 0.1198797147
H   H95       1.0  0.18331  0.81939  0.18641  1.0000 0.1198797147
H   H96       1.0  0.70722  0.34026  0.36883  1.0000 0.1113704982
H   H97       1.0  0.23947  0.94996  0.48594  1.0000 0.1113704982
H   H98       1.0  0.24126  0.02829  0.01632  1.0000 0.1113704982
H   H99       1.0  0.83509  0.64635  0.13805  1.0000 0.1113704982
H   H100      1.0  0.36532  0.16504  0.31732  1.0000 0.1198797147
C   C1        1.0  0.21610  0.30910  0.72114  1.0000 0.6511284555
C   C2        1.0  0.23940  0.69360  0.77235  1.0000 0.6425512875
C   C3        1.0  0.74640  0.61670  0.80360  1.0000 0.6511284555
C   C4        1.0  0.71260  0.38590  0.68842  1.0000 0.6425512875
C   C5        1.0  0.16570  0.19430  0.70245  1.0000 -0.0326537709
C   C6        1.0  0.28870  0.80220  0.79464  1.0000 -0.0326537709
C   C7        1.0  0.80590  0.69700  0.83586  1.0000 -0.0326537709
C   C8        1.0  0.65640  0.30470  0.65639  1.0000 -0.0326537709
C   C9        1.0  0.03940  0.18240  0.68013  1.0000 -0.092045402
C   C10       1.0  0.39740  0.80200  0.82314  1.0000 -0.0996369247
C   C11       1.0  0.93010  0.76100  0.83228  1.0000 -0.092045402
C   C12       1.0  0.53190  0.23790  0.65915  1.0000 -0.0996369247
C   C13       1.0  0.24730  0.10030  0.70621  1.0000 -0.0996369247
C   C14       1.0  0.22460  0.90330  0.78715  1.0000 -0.0996369247
C   C15       1.0  0.73430  0.70900  0.86852  1.0000 -0.0996369247
C   C16       1.0  0.72740  0.29520  0.62354  1.0000 -0.0996369247
C   C17       1.0  0.99950  0.07960  0.66063  1.0000 -0.1409694009
C   C18       1.0  0.43800  0.90130  0.84466  1.0000 -0.1409694009
C   C19       1.0  0.98210  0.83870  0.86119  1.0000 -0.1409694009
C   C20       1.0  0.48440  0.16090  0.62991  1.0000 -0.1409694009
C   C21       1.0  0.20440  0.99720  0.68744  1.0000 -0.14998483
C   C22       1.0  0.26840  0.00350  0.80832  1.0000 -0.1576415007
C   C23       1.0  0.78850  0.78500  0.89775  1.0000 -0.14998483
C   C24       1.0  0.67790  0.22240  0.59361  1.0000 -0.14998483
C   C25       1.0  0.08290  0.98590  0.66372  1.0000 0.1198797147
C   C26       1.0  0.37300  0.00300  0.83785  1.0000 0.1113704982
C   C27       1.0  0.91170  0.85240  0.89417  1.0000 0.1198797147
C   C28       1.0  0.55550  0.15190  0.59655  1.0000 0.1198797147
C   C29       1.0  0.04300  0.87550  0.64319  1.0000 -0.1409694009
C   C30       1.0  0.41280  0.11120  0.85943  1.0000 -0.1409694009
C   C31       1.0  0.97050  0.93120  0.92605  1.0000 -0.1409694009
C   C32       1.0  0.50310  0.07250  0.56486  1.0000 -0.14998483
C   C33       1.0  0.99640  0.86100  0.60633  1.0000 -0.1409694009
C   C34       1.0  0.46730  0.12710  0.89573  1.0000 -0.14998483
C   C35       1.0  0.01490  0.04150  0.92442  1.0000 -0.14998483
C   C36       1.0  0.46010  0.96160  0.56730  1.0000 -0.14998483
C   C37       1.0  0.98420  0.95280  0.57803  1.0000 0.1113704982
C   C38       1.0  0.50160  0.04070  0.92432  1.0000 0.1113704982
C   C39       1.0  0.00440  0.11990  0.89178  1.0000 0.1198797147
C   C40       1.0  0.46320  0.88800  0.60114  1.0000 0.1198797147
C   C41       1.0  0.09190  0.03540  0.57423  1.0000 -0.1409694009
C   C42       1.0  0.40570  0.95090  0.93262  1.0000 -0.1409694009
C   C43       1.0  0.89760  0.10960  0.86251  1.0000 -0.14998483
C   C44       1.0  0.36290  0.79670  0.60174  1.0000 -0.14998483
C   C45       1.0  0.86360  0.95750  0.55472  1.0000 -0.1409694009
C   C46       1.0  0.62970  0.04890  0.94470  1.0000 -0.1409694009
C   C47       1.0  0.10290  0.21220  0.89093  1.0000 -0.14998483
C   C48       1.0  0.56530  0.90000  0.63187  1.0000 -0.1409694009
C   C49       1.0  0.07670  0.12340  0.54870  1.0000 -0.092045402
C   C50       1.0  0.44330  0.86820  0.95897  1.0000 -0.0996369247
C   C51       1.0  0.89020  0.18890  0.83331  1.0000 -0.0996369247
C   C52       1.0  0.36270  0.72080  0.63147  1.0000 -0.0996369247
C   C53       1.0  0.84550  0.04680  0.52948  1.0000 -0.1069663712
C   C54       1.0  0.66860  0.96560  0.97055  1.0000 -0.1069663712
C   C55       1.0  0.09630  0.29160  0.86191  1.0000 -0.0996369247
C   C56       1.0  0.56540  0.82470  0.66190  1.0000 -0.0996369247
C   C57       1.0  0.95280  0.13190  0.52683  1.0000 -0.045651116
C   C58       1.0  0.57670  0.87420  0.97720  1.0000 -0.045651116
C   C59       1.0  0.99000  0.28070  0.83276  1.0000 -0.0399609176
C   C60       1.0  0.46440  0.73320  0.66200  1.0000 -0.0326537709
C   C61       1.0  0.93060  0.23310  0.50200  1.0000 0.5491101588
C   C62       1.0  0.61990  0.77690  0.00213  1.0000 0.544224068
C   C63       1.0  0.98270  0.36700  0.80224  1.0000 0.5799196209
C   C64       1.0  0.46640  0.64700  0.69293  1.0000 0.5748151983
C   C65       1.0  0.78390  0.69090  0.27886  1.0000 0.6511284555
C   C66       1.0  0.76060  0.30640  0.22765  1.0000 0.6425512875
C   C67       1.0  0.25360  0.38330  0.19640  1.0000 0.6511284555
C   C68       1.0  0.28740  0.61410  0.31158  1.0000 0.6425512875
C   C69       1.0  0.83430  0.80570  0.29755  1.0000 -0.0326537709
C   C70       1.0  0.71130  0.19780  0.20536  1.0000 -0.0326537709
C   C71       1.0  0.19410  0.30300  0.16414  1.0000 -0.0326537709
C   C72       1.0  0.34360  0.69530  0.34361  1.0000 -0.0326537709
C   C73       1.0  0.96060  0.81760  0.31987  1.0000 -0.092045402
C   C74       1.0  0.60260  0.19800  0.17686  1.0000 -0.0996369247
C   C75       1.0  0.06990  0.23900  0.16772  1.0000 -0.092045402
C   C76       1.0  0.46810  0.76210  0.34085  1.0000 -0.0996369247
C   C77       1.0  0.75270  0.89970  0.29379  1.0000 -0.0996369247
C   C78       1.0  0.77540  0.09670  0.21285  1.0000 -0.0996369247
C   C79       1.0  0.26570  0.29100  0.13148  1.0000 -0.0996369247
C   C80       1.0  0.27260  0.70480  0.37646  1.0000 -0.0996369247
C   C81       1.0  0.00050  0.92040  0.33937  1.0000 -0.1409694009
C   C82       1.0  0.56200  0.09870  0.15534  1.0000 -0.1409694009
C   C83       1.0  0.01790  0.16130  0.13881  1.0000 -0.1409694009
C   C84       1.0  0.51560  0.83910  0.37009  1.0000 -0.1409694009
C   C85       1.0  0.79560  0.00280  0.31256  1.0000 -0.14998483
C   C86       1.0  0.73160  0.99650  0.19168  1.0000 -0.1576415007
C   C87       1.0  0.21150  0.21500  0.10225  1.0000 -0.14998483
C   C88       1.0  0.32210  0.77760  0.40639  1.0000 -0.14998483
C   C89       1.0  0.91710  0.01410  0.33628  1.0000 0.1198797147
C   C90       1.0  0.62700  0.99700  0.16215  1.0000 0.1113704982
C   C91       1.0  0.08830  0.14760  0.10583  1.0000 0.1198797147
C   C92       1.0  0.44450  0.84810  0.40345  1.0000 0.1198797147
C   C93       1.0  0.95700  0.12450  0.35681  1.0000 -0.1409694009
C   C94       1.0  0.58720  0.88880  0.14057  1.0000 -0.1409694009
C   C95       1.0  0.02950  0.06880  0.07395  1.0000 -0.14998483
C   C96       1.0  0.49690  0.92750  0.43514  1.0000 -0.14998483
C   C97       1.0  0.00360  0.13900  0.39367  1.0000 -0.1409694009
C   C98       1.0  0.53270  0.87290  0.10427  1.0000 -0.14998483
C   C99       1.0  0.98510  0.95850  0.07558  1.0000 -0.14998483
C   C100      1.0  0.53990  0.03840  0.43270  1.0000 -0.14998483
C   C101      1.0  0.01580  0.04720  0.42197  1.0000 0.1113704982
C   C102      1.0  0.49840  0.95930  0.07568  1.0000 0.1113704982
C   C103      1.0  0.99560  0.88010  0.10822  1.0000 0.1198797147
C   C104      1.0  0.53680  0.11200  0.39886  1.0000 0.1198797147
C   C105      1.0  0.90810  0.96460  0.42577  1.0000 -0.1409694009
C   C106      1.0  0.59430  0.04910  0.06738  1.0000 -0.1409694009
C   C107      1.0  0.10240  0.89040  0.13749  1.0000 -0.14998483
C   C108      1.0  0.63710  0.20330  0.39826  1.0000 -0.14998483
C   C109      1.0  0.13640  0.04250  0.44528  1.0000 -0.1409694009
C   C110      1.0  0.37030  0.95110  0.05530  1.0000 -0.1409694009
C   C111      1.0  0.89710  0.78780  0.10907  1.0000 -0.14998483
C   C112      1.0  0.43470  0.10000  0.36813  1.0000 -0.1409694009
C   C113      1.0  0.92330  0.87660  0.45130  1.0000 -0.092045402
C   C114      1.0  0.55670  0.13180  0.04103  1.0000 -0.0996369247
C   C115      1.0  0.10980  0.81110  0.16669  1.0000 -0.0996369247
C   C116      1.0  0.63730  0.27920  0.36853  1.0000 -0.0996369247
C   C117      1.0  0.15450  0.95320  0.47052  1.0000 -0.1069663712
C   C118      1.0  0.33140  0.03440  0.02945  1.0000 -0.1069663712
C   C119      1.0  0.90370  0.70840  0.13809  1.0000 -0.0996369247
C   C120      1.0  0.43460  0.17530  0.33810  1.0000 -0.0996369247
C   C121      1.0  0.04720  0.86810  0.47317  1.0000 -0.045651116
C   C122      1.0  0.42330  0.12580  0.02280  1.0000 -0.045651116
C   C123      1.0  0.01000  0.71930  0.16724  1.0000 -0.0399609176
C   C124      1.0  0.53560  0.26680  0.33800  1.0000 -0.0326537709
C   C125      1.0  0.06940  0.76690  0.49800  1.0000 0.5491101588
C   C126      1.0  0.38010  0.22310  0.99787  1.0000 0.544224068
C   C127      1.0  0.01730  0.63300  0.19776  1.0000 0.5799196209
C   C128      1.0  0.53360  0.35300  0.30707  1.0000 0.5748151983
O   O1        1.0  0.11780  0.68730  0.75730  1.0000 -0.6296278492
O   O2        1.0  0.12930  0.38410  0.72431  1.0000 -0.6783257479
O   O3        1.0  0.34290  0.32250  0.73088  1.0000 -0.6473179614
O   O4        1.0  0.32190  0.61570  0.77102  1.0000 -0.6783257479
O   O5        1.0  0.82090  0.59680  0.77664  1.0000 -0.6783257479
O   O6        1.0  0.83910  0.65940  0.70135  1.0000 -0.7497550552
O   O7        1.0  0.09060  0.58130  0.67992  1.0000 -0.7562967097
O   O8        1.0  0.63040  0.42370  0.71090  1.0000 -0.6697909092
O   O9        1.0  0.60410  0.33090  0.78436  1.0000 -0.7562967097
O   O10       1.0  0.35590  0.41320  0.80852  1.0000 -0.7497550552
O   O11       1.0  0.62240  0.57690  0.80505  1.0000 -0.6630320107
O   O12       1.0  0.84130  0.41170  0.69055  1.0000 -0.6697909092
O   O13       1.0  0.80150  0.24430  0.48935  1.0000 -0.4686669042
O   O14       1.0  0.75650  0.77500  0.00837  1.0000 -0.4686669042
O   O15       1.0  0.07100  0.45240  0.80231  1.0000 -0.6296278492
O   O16       1.0  0.56160  0.65840  0.72061  1.0000 -0.6296278492
O   O17       1.0  0.02810  0.29990  0.49500  1.0000 -0.5021926915
O   O18       1.0  0.53770  0.70720  0.01412  1.0000 -0.4804782276
O   O19       1.0  0.88690  0.35450  0.77481  1.0000 -0.6411997234
O   O20       1.0  0.37480  0.56400  0.69246  1.0000 -0.6204478895
O   O21       1.0  0.88220  0.31270  0.24270  1.0000 -0.6296278492
O   O22       1.0  0.87070  0.61590  0.27569  1.0000 -0.6783257479
O   O23       1.0  0.65710  0.67750  0.26912  1.0000 -0.6473179614
O   O24       1.0  0.67810  0.38430  0.22898  1.0000 -0.6783257479
O   O25       1.0  0.17910  0.40320  0.22336  1.0000 -0.6783257479
O   O26       1.0  0.16090  0.34060  0.29865  1.0000 -0.7497550552
O   O27       1.0  0.90940  0.41870  0.32008  1.0000 -0.7562967097
O   O28       1.0  0.36960  0.57630  0.28910  1.0000 -0.6697909092
O   O29       1.0  0.39590  0.66910  0.21564  1.0000 -0.7562967097
O   O30       1.0  0.64410  0.58680  0.19148  1.0000 -0.7497550552
O   O31       1.0  0.37760  0.42310  0.19495  1.0000 -0.6630320107
O   O32       1.0  0.15870  0.58830  0.30945  1.0000 -0.6697909092
O   O33       1.0  0.19850  0.75570  0.51065  1.0000 -0.4686669042
O   O34       1.0  0.24350  0.22500  0.99163  1.0000 -0.4686669042
O   O35       1.0  0.92900  0.54760  0.19769  1.0000 -0.6296278492
O   O36       1.0  0.43840  0.34160  0.27939  1.0000 -0.6296278492
O   O37       1.0  0.97190  0.70010  0.50500  1.0000 -0.5021926915
O   O38       1.0  0.46230  0.29280  0.98588  1.0000 -0.4804782276
O   O39       1.0  0.11310  0.64550  0.22519  1.0000 -0.6411997234
O   O40       1.0  0.62520  0.43600  0.30754  1.0000 -0.6204478895
