# DDEC6 charges by PACMAN v1.1 (https://github.com/mtap-research/PACMAN-charge/)
data_2023[Zn][fsc]3[FSR]1
_chemical_formula_sum              "Zn4 H184 C238 N4 O32"
_cell_length_a       15.652
_cell_length_b       20.687
_cell_length_c       23.936
_cell_angle_alpha    112.642
_cell_angle_beta     99.726
_cell_angle_gamma    89.931

_symmetry_space_group_name_H-M    "P 1"
_symmetry_Int_Tables_number       1

loop_
  _symmetry_equiv_pos_as_xyz
  'x, y, z'

loop_
  _atom_site_type_symbol
  _atom_site_label
  _atom_site_symmetry_multiplicity
  _atom_site_fract_x
  _atom_site_fract_y
  _atom_site_fract_z
  _atom_site_occupancy
  _atom_site_charge
Zn  Zn1       1.0  0.39235  0.33019  0.92933  1.0000 0.8400703337
Zn  Zn2       1.0  0.34648  0.27259  0.79308  1.0000 0.8400703337
Zn  Zn3       1.0  0.60765  0.66981  0.07067  1.0000 0.8400703337
Zn  Zn4       1.0  0.65352  0.72741  0.20692  1.0000 0.8400703337
H   H1        1.0  0.90875  0.67506  0.79776  1.0000 0.1285452848
H   H2        1.0  0.61786  0.62338  0.78682  1.0000 0.1116630257
H   H3        1.0  0.38650  0.26679  0.02076  1.0000 0.1198594635
H   H4        1.0  0.23832  0.52275  0.98178  1.0000 0.1285452848
H   H5        1.0  0.20923  0.44690  0.79675  1.0000 0.1198594635
H   H6        1.0  0.53016  0.41043  0.76343  1.0000 0.1198594635
H   H7        1.0  0.59511  0.47569  0.94678  1.0000 0.1198594635
H   H8        1.0  0.12753  0.54039  0.79626  1.0000 0.1116630257
H   H9        1.0  0.78561  0.63295  0.93903  1.0000 0.1198594635
H   H10       1.0  0.85457  0.73320  0.94230  1.0000 0.1116630257
H   H11       1.0  0.99472  0.58581  0.80412  1.0000 0.1198594635
H   H12       1.0  0.60897  0.50565  0.76447  1.0000 0.1116630257
H   H13       1.0  0.47942  0.24726  0.09684  1.0000 0.1366545406
H   H14       1.0  0.03442  0.82054  0.81265  1.0000 0.1198594635
H   H15       1.0  0.55562  0.40412  0.01746  1.0000 0.1198594635
H   H16       1.0  0.15288  0.61411  0.97966  1.0000 0.1116630257
H   H17       1.0  0.91002  0.94708  0.94536  1.0000 0.1116630257
H   H18       1.0  0.98443  0.04592  0.94632  1.0000 0.1116630257
H   H19       1.0  0.13040  0.71926  0.96517  1.0000 0.1116630257
H   H20       1.0  0.68666  0.72670  0.79463  1.0000 0.1198594635
H   H21       1.0  0.56544  0.28619  0.20127  1.0000 0.1198594635
H   H22       1.0  0.68124  0.57047  0.94935  1.0000 0.1116630257
H   H23       1.0  0.10282  0.91803  0.81013  1.0000 0.1116630257
H   H24       1.0  0.04704  0.80951  0.95854  1.0000 0.1198594635
H   H25       1.0  0.82205  0.87439  0.79434  1.0000 0.1116630257
H   H26       1.0  0.69057  0.85812  0.92076  1.0000 0.1198594635
H   H27       1.0  0.73241  0.95885  0.78264  1.0000 0.1198594635
H   H28       1.0  0.19537  0.20696  0.96467  1.0000 0.1116630257
H   H29       1.0  0.65487  0.38784  0.09216  1.0000 0.1285452848
H   H30       1.0  0.51552  0.08515  0.74324  1.0000 0.1285452848
H   H31       1.0  0.09413  0.01455  0.78324  1.0000 0.1116630257
H   H32       1.0  0.59898  0.93997  0.90659  1.0000 0.1116630257
H   H33       1.0  0.50298  0.14847  0.92339  1.0000 0.1198594635
H   H34       1.0  0.16367  0.10830  0.77902  1.0000 0.1198594635
H   H35       1.0  0.78389  0.16889  0.27081  1.0000 0.1198594635
H   H36       1.0  0.67264  0.26852  0.27289  1.0000 0.1198594635
H   H37       1.0  0.95560  0.31790  0.49075  1.0000 0.1198594635
H   H38       1.0  0.58758  0.05713  0.92875  1.0000 0.1116630257
H   H39       1.0  0.01443  0.33298  0.38227  1.0000 0.1285452848
H   H40       1.0  0.11469  0.11435  0.96658  1.0000 0.1116630257
H   H41       1.0  0.76956  0.42259  0.27800  1.0000 0.1198594635
H   H42       1.0  0.74794  0.29385  0.10145  1.0000 0.1116630257
H   H43       1.0  0.91111  0.56696  0.47357  1.0000 0.1366545406
H   H44       1.0  0.60271  0.99723  0.74998  1.0000 0.1116630257
H   H45       1.0  0.07734  0.25905  0.64594  1.0000 0.1366545406
H   H46       1.0  0.85467  0.27200  0.17152  1.0000 0.1116630257
H   H47       1.0  0.05945  0.54745  0.49621  1.0000 0.1198594635
H   H48       1.0  0.13146  0.51286  0.45557  1.0000 0.1366545406
H   H49       1.0  0.06709  0.56472  0.43749  1.0000 0.1198594635
H   H50       1.0  0.99283  0.38723  0.30846  1.0000 0.1285452848
H   H51       1.0  0.90860  0.36551  0.25497  1.0000 0.1116630257
H   H52       1.0  0.64644  0.48198  0.55421  1.0000 0.1285452848
H   H53       1.0  0.81494  0.10152  0.33005  1.0000 0.1198594635
H   H54       1.0  0.91634  0.10200  0.35653  1.0000 0.1116630257
H   H55       1.0  0.16595  0.26048  0.73424  1.0000 0.1198594635
H   H56       1.0  0.18177  0.16931  0.47765  1.0000 0.1116630257
H   H57       1.0  0.04122  0.31808  0.57866  1.0000 0.1198594635
H   H58       1.0  0.08372  0.16101  0.38912  1.0000 0.1198594635
H   H59       1.0  0.78248  0.65080  0.46737  1.0000 0.1116630257
H   H60       1.0  0.69262  0.60585  0.43182  1.0000 0.1116630257
H   H61       1.0  0.84471  0.75779  0.74043  1.0000 0.1198594635
H   H62       1.0  0.87860  0.74786  0.67837  1.0000 0.1198594635
H   H63       1.0  0.77654  0.74632  0.67895  1.0000 0.1198594635
H   H64       1.0  0.82403  0.67143  0.57309  1.0000 0.1285452848
H   H65       1.0  0.99143  0.44268  0.74159  1.0000 0.1198594635
H   H66       1.0  0.05938  0.40765  0.69746  1.0000 0.1198594635
H   H67       1.0  0.99647  0.46311  0.68413  1.0000 0.1116630257
H   H68       1.0  0.87378  0.49242  0.68272  1.0000 0.1285452848
H   H69       1.0  0.73325  0.27393  0.51654  1.0000 0.1198594635
H   H70       1.0  0.65522  0.31213  0.61830  1.0000 0.1285452848
H   H71       1.0  0.28878  0.23349  0.56830  1.0000 0.1285452848
H   H72       1.0  0.66090  0.55121  0.67964  1.0000 0.1198594635
H   H73       1.0  0.76070  0.57749  0.70844  1.0000 0.1198594635
H   H74       1.0  0.93184  0.10654  0.45907  1.0000 0.1198594635
H   H75       1.0  0.57045  0.49100  0.27329  1.0000 0.1285452848
H   H76       1.0  0.65495  0.49498  0.24498  1.0000 0.1285452848
H   H77       1.0  0.64011  0.43314  0.26762  1.0000 0.1116630257
H   H78       1.0  0.37170  0.24554  0.66244  1.0000 0.1198594635
H   H79       1.0  0.99704  0.07454  0.58969  1.0000 0.1198594635
H   H80       1.0  0.95483  0.05717  0.51932  1.0000 0.1116630257
H   H81       1.0  0.03926  0.11049  0.55139  1.0000 0.1198594635
H   H82       1.0  0.77212  0.22772  0.62540  1.0000 0.1198594635
H   H83       1.0  0.87247  0.25522  0.64265  1.0000 0.1116630257
H   H84       1.0  0.47253  0.39783  0.62728  1.0000 0.1285452848
H   H85       1.0  0.51682  0.36196  0.56806  1.0000 0.1198594635
H   H86       1.0  0.54361  0.34200  0.62667  1.0000 0.1116630257
H   H87       1.0  0.53888  0.45800  0.47436  1.0000 0.1116630257
H   H88       1.0  0.52625  0.43812  0.40177  1.0000 0.1366545406
H   H89       1.0  0.59671  0.40104  0.43389  1.0000 0.1198594635
H   H90       1.0  0.75175  0.33275  0.43525  1.0000 0.1285452848
H   H91       1.0  0.66653  0.30397  0.38304  1.0000 0.1285452848
H   H92       1.0  0.66656  0.30483  0.45019  1.0000 0.1198594635
H   H93       1.0  0.09125  0.32494  0.20224  1.0000 0.1285452848
H   H94       1.0  0.38214  0.37662  0.21318  1.0000 0.1116630257
H   H95       1.0  0.61350  0.73321  0.97924  1.0000 0.1198594635
H   H96       1.0  0.76168  0.47725  0.01822  1.0000 0.1285452848
H   H97       1.0  0.79077  0.55310  0.20325  1.0000 0.1198594635
H   H98       1.0  0.46984  0.58957  0.23657  1.0000 0.1198594635
H   H99       1.0  0.40489  0.52431  0.05322  1.0000 0.1198594635
H   H100      1.0  0.87247  0.45961  0.20374  1.0000 0.1116630257
H   H101      1.0  0.21439  0.36705  0.06097  1.0000 0.1198594635
H   H102      1.0  0.14543  0.26680  0.05770  1.0000 0.1116630257
H   H103      1.0  0.00528  0.41419  0.19588  1.0000 0.1198594635
H   H104      1.0  0.39103  0.49435  0.23553  1.0000 0.1116630257
H   H105      1.0  0.52058  0.75274  0.90316  1.0000 0.1366545406
H   H106      1.0  0.96558  0.17946  0.18735  1.0000 0.1198594635
H   H107      1.0  0.44438  0.59588  0.98254  1.0000 0.1198594635
H   H108      1.0  0.84712  0.38589  0.02034  1.0000 0.1198594635
H   H109      1.0  0.08998  0.05292  0.05464  1.0000 0.1116630257
H   H110      1.0  0.01557  0.95408  0.05368  1.0000 0.1116630257
H   H111      1.0  0.86960  0.28074  0.03483  1.0000 0.1116630257
H   H112      1.0  0.31334  0.27330  0.20537  1.0000 0.1198594635
H   H113      1.0  0.43456  0.71381  0.79873  1.0000 0.1198594635
H   H114      1.0  0.31876  0.42953  0.05065  1.0000 0.1116630257
H   H115      1.0  0.89718  0.08197  0.18987  1.0000 0.1116630257
H   H116      1.0  0.95296  0.19049  0.04146  1.0000 0.1198594635
H   H117      1.0  0.17795  0.12561  0.20566  1.0000 0.1116630257
H   H118      1.0  0.30943  0.14188  0.07924  1.0000 0.1198594635
H   H119      1.0  0.26759  0.04115  0.21736  1.0000 0.1198594635
H   H120      1.0  0.80463  0.79304  0.03533  1.0000 0.1116630257
H   H121      1.0  0.34513  0.61216  0.90784  1.0000 0.1285452848
H   H122      1.0  0.48448  0.91485  0.25676  1.0000 0.1285452848
H   H123      1.0  0.90587  0.98545  0.21676  1.0000 0.1116630257
H   H124      1.0  0.40102  0.06003  0.09341  1.0000 0.1116630257
H   H125      1.0  0.49702  0.85153  0.07661  1.0000 0.1198594635
H   H126      1.0  0.83633  0.89170  0.22098  1.0000 0.1198594635
H   H127      1.0  0.21611  0.83111  0.72919  1.0000 0.1198594635
H   H128      1.0  0.32736  0.73148  0.72711  1.0000 0.1198594635
H   H129      1.0  0.04440  0.68210  0.50925  1.0000 0.1198594635
H   H130      1.0  0.41242  0.94287  0.07125  1.0000 0.1116630257
H   H131      1.0  0.98557  0.66702  0.61773  1.0000 0.1198594635
H   H132      1.0  0.88531  0.88565  0.03342  1.0000 0.1116630257
H   H133      1.0  0.23044  0.57741  0.72200  1.0000 0.1198594635
H   H134      1.0  0.25206  0.70615  0.89855  1.0000 0.1116630257
H   H135      1.0  0.08889  0.43304  0.52643  1.0000 0.1366545406
H   H136      1.0  0.39729  0.00277  0.25002  1.0000 0.1116630257
H   H137      1.0  0.92266  0.74095  0.35406  1.0000 0.1366545406
H   H138      1.0  0.14533  0.72800  0.82848  1.0000 0.1116630257
H   H139      1.0  0.94055  0.45255  0.50379  1.0000 0.1198594635
H   H140      1.0  0.86854  0.48714  0.54443  1.0000 0.1366545406
H   H141      1.0  0.93291  0.43528  0.56251  1.0000 0.1198594635
H   H142      1.0  0.00717  0.61277  0.69154  1.0000 0.1285452848
H   H143      1.0  0.09140  0.63449  0.74503  1.0000 0.1116630257
H   H144      1.0  0.35356  0.51802  0.44579  1.0000 0.1285452848
H   H145      1.0  0.18506  0.89848  0.66995  1.0000 0.1198594635
H   H146      1.0  0.08366  0.89800  0.64347  1.0000 0.1116630257
H   H147      1.0  0.83405  0.73952  0.26576  1.0000 0.1198594635
H   H148      1.0  0.81823  0.83069  0.52235  1.0000 0.1116630257
H   H149      1.0  0.95878  0.68192  0.42134  1.0000 0.1198594635
H   H150      1.0  0.91628  0.83899  0.61088  1.0000 0.1198594635
H   H151      1.0  0.21752  0.34920  0.53263  1.0000 0.1116630257
H   H152      1.0  0.30738  0.39415  0.56818  1.0000 0.1116630257
H   H153      1.0  0.15529  0.24221  0.25957  1.0000 0.1198594635
H   H154      1.0  0.12140  0.25214  0.32163  1.0000 0.1198594635
H   H155      1.0  0.22346  0.25368  0.32105  1.0000 0.1198594635
H   H156      1.0  0.17597  0.32857  0.42691  1.0000 0.1285452848
H   H157      1.0  0.00857  0.55732  0.25841  1.0000 0.1198594635
H   H158      1.0  0.94062  0.59235  0.30254  1.0000 0.1198594635
H   H159      1.0  0.00353  0.53689  0.31587  1.0000 0.1116630257
H   H160      1.0  0.12622  0.50758  0.31728  1.0000 0.1285452848
H   H161      1.0  0.26675  0.72607  0.48346  1.0000 0.1198594635
H   H162      1.0  0.34478  0.68787  0.38170  1.0000 0.1285452848
H   H163      1.0  0.71122  0.76651  0.43170  1.0000 0.1285452848
H   H164      1.0  0.33910  0.44879  0.32036  1.0000 0.1198594635
H   H165      1.0  0.23930  0.42251  0.29156  1.0000 0.1198594635
H   H166      1.0  0.06816  0.89346  0.54093  1.0000 0.1198594635
H   H167      1.0  0.42955  0.50900  0.72671  1.0000 0.1285452848
H   H168      1.0  0.34505  0.50502  0.75502  1.0000 0.1285452848
H   H169      1.0  0.35989  0.56686  0.73238  1.0000 0.1116630257
H   H170      1.0  0.62830  0.75446  0.33756  1.0000 0.1198594635
H   H171      1.0  0.00296  0.92546  0.41031  1.0000 0.1198594635
H   H172      1.0  0.04517  0.94283  0.48068  1.0000 0.1116630257
H   H173      1.0  0.96074  0.88951  0.44861  1.0000 0.1198594635
H   H174      1.0  0.22788  0.77228  0.37460  1.0000 0.1198594635
H   H175      1.0  0.12753  0.74478  0.35735  1.0000 0.1116630257
H   H176      1.0  0.52747  0.60217  0.37272  1.0000 0.1285452848
H   H177      1.0  0.48318  0.63804  0.43194  1.0000 0.1198594635
H   H178      1.0  0.45639  0.65800  0.37333  1.0000 0.1116630257
H   H179      1.0  0.46112  0.54200  0.52564  1.0000 0.1116630257
H   H180      1.0  0.47375  0.56188  0.59823  1.0000 0.1366545406
H   H181      1.0  0.40329  0.59896  0.56611  1.0000 0.1198594635
H   H182      1.0  0.24825  0.66725  0.56475  1.0000 0.1285452848
H   H183      1.0  0.33347  0.69603  0.61696  1.0000 0.1285452848
H   H184      1.0  0.33344  0.69517  0.54981  1.0000 0.1198594635
C   C1        1.0  0.55110  0.43570  0.85410  1.0000 -0.0135039925
C   C2        1.0  0.28540  0.41380  0.88990  1.0000 0.5740945306
C   C3        1.0  0.95430  0.68450  0.83210  1.0000 -0.1317792643
C   C4        1.0  0.69600  0.61430  0.86030  1.0000 0.0704867159
C   C5        1.0  0.23280  0.47460  0.88870  1.0000 -0.0206584796
C   C6        1.0  0.24890  0.22420  0.87060  1.0000 0.5893074836
C   C7        1.0  0.96900  0.75100  0.87770  1.0000 0.0704867159
C   C8        1.0  0.66667  0.64470  0.81860  1.0000 -0.1486482812
C   C9        1.0  0.19220  0.16720  0.87170  1.0000 -0.0345303673
C   C10       1.0  0.44230  0.29120  0.03530  1.0000 0.0987285789
C   C11       1.0  0.07160  0.64310  0.88510  1.0000 0.0704867159
C   C12       1.0  0.04920  0.99190  0.87590  1.0000 0.0704867159
C   C13       1.0  0.21510  0.52550  0.94350  1.0000 -0.1085373476
C   C14       1.0  0.65050  0.55010  0.85740  1.0000 0.0704867159
C   C15       1.0  0.19860  0.48090  0.83460  1.0000 -0.1085373476
C   C16       1.0  0.55870  0.44440  0.80180  1.0000 -0.1085373476
C   C17       1.0  0.59750  0.48220  0.90990  1.0000 -0.1085373476
C   C18       1.0  0.14850  0.53630  0.83430  1.0000 -0.1708624955
C   C19       1.0  0.76610  0.65030  0.90800  1.0000 -0.1405850439
C   C20       1.0  0.80670  0.71060  0.91010  1.0000 -0.1405850439
C   C21       1.0  0.12850  0.58530  0.88750  1.0000 0.0704867159
C   C22       1.0  0.09570  0.05350  0.87460  1.0000 0.0794520754
C   C23       1.0  0.00550  0.63140  0.83600  1.0000 -0.1486482812
C   C24       1.0  0.64480  0.29680  0.14650  1.0000 0.0483042878
C   C25       1.0  0.49020  0.37790  0.85330  1.0000 0.5840884414
C   C26       1.0  0.60640  0.50070  0.80200  1.0000 -0.1486482812
C   C27       1.0  0.82600  0.80320  0.86750  1.0000 -0.0206584796
C   C28       1.0  0.96100  0.87360  0.87790  1.0000 0.0704867159
C   C29       1.0  0.57950  0.31390  0.10330  1.0000 0.1198594635
C   C30       1.0  0.78060  0.73900  0.86770  1.0000 0.0704867159
C   C31       1.0  0.49750  0.27930  0.08070  1.0000 -0.1994097142
C   C32       1.0  0.02200  0.86610  0.83860  1.0000 -0.1486482812
C   C33       1.0  0.54100  0.37080  0.03330  1.0000 0.0906260688
C   C34       1.0  0.16380  0.57980  0.94210  1.0000 -0.1486482812
C   C35       1.0  0.91300  0.80930  0.87410  1.0000 -0.0206584796
C   C36       1.0  0.76800  0.85630  0.85810  1.0000 0.0704867159
C   C37       1.0  0.94900  0.94090  0.91760  1.0000 -0.1486482812
C   C38       1.0  0.99280  0.00040  0.91800  1.0000 -0.1486482812
C   C39       1.0  0.08530  0.71000  0.93050  1.0000 -0.1486482812
C   C40       1.0  0.70850  0.70640  0.82320  1.0000 -0.1589968772
C   C41       1.0  0.62420  0.28570  0.19590  1.0000 -0.1486482812
C   C42       1.0  0.64820  0.53910  0.91140  1.0000 -0.1405850439
C   C43       1.0  0.50520  0.12720  0.83230  1.0000 -0.0206584796
C   C44       1.0  0.06340  0.92430  0.83770  1.0000 -0.1405850439
C   C45       1.0  0.03550  0.76380  0.92700  1.0000 -0.1486482812
C   C46       1.0  0.77730  0.88790  0.81800  1.0000 -0.1486482812
C   C47       1.0  0.65760  0.96040  0.84470  1.0000 0.0704867159
C   C48       1.0  0.69920  0.87810  0.89230  1.0000 -0.1589968772
C   C49       1.0  0.72380  0.93860  0.81100  1.0000 -0.1405850439
C   C50       1.0  0.17450  0.16800  0.92740  1.0000 -0.1009313696
C   C51       1.0  0.88510  0.19260  0.34170  1.0000 0.0906260688
C   C52       1.0  0.84180  0.25970  0.27880  1.0000 0.0137634088
C   C53       1.0  0.60010  0.36190  0.07810  1.0000 -0.1931432519
C   C54       1.0  0.91160  0.30990  0.31080  1.0000 0.1116630257
C   C55       1.0  0.53180  0.08090  0.78170  1.0000 -0.0918156668
C   C56       1.0  0.11340  0.05420  0.82040  1.0000 -0.1486482812
C   C57       1.0  0.64550  0.92760  0.88450  1.0000 -0.1405850439
C   C58       1.0  0.52400  0.11790  0.88810  1.0000 -0.1009313696
C   C59       1.0  0.45250  0.18840  0.83090  1.0000 0.5893074836
C   C60       1.0  0.15680  0.10900  0.81790  1.0000 -0.0918156668
C   C61       1.0  0.60380  0.01740  0.83970  1.0000 0.0704867159
C   C62       1.0  0.83080  0.20270  0.29400  1.0000 -0.2101517316
C   C63       1.0  0.68810  0.27370  0.23800  1.0000 -0.1486482812
C   C64       1.0  0.00050  0.28640  0.48770  1.0000 -0.1405850439
C   C65       1.0  0.95490  0.24280  0.37410  1.0000 0.0137634088
C   C66       1.0  0.57380  0.06320  0.89100  1.0000 -0.1486482812
C   C67       1.0  0.96710  0.29950  0.35920  1.0000 -0.2101517316
C   C68       1.0  0.12680  0.11250  0.92840  1.0000 -0.1589968772
C   C69       1.0  0.77520  0.26910  0.23000  1.0000 0.0794520754
C   C70       1.0  0.01360  0.24100  0.43050  1.0000 0.0704867159
C   C71       1.0  0.17470  0.24800  0.59750  1.0000 0.1116630257
C   C72       1.0  0.79910  0.45220  0.31790  1.0000 -0.326360527
C   C73       1.0  0.88390  0.43690  0.33860  1.0000 0.0483042878
C   C74       1.0  0.92550  0.48340  0.39710  1.0000 0.1604294893
C   C75       1.0  0.11830  0.24250  0.53840  1.0000 0.0575499557
C   C76       1.0  0.73290  0.28950  0.13670  1.0000 -0.1486482812
C   C77       1.0  0.88220  0.53750  0.43340  1.0000 -0.2712602318
C   C78       1.0  0.58220  0.02770  0.78550  1.0000 -0.1405850439
C   C79       1.0  0.13820  0.25570  0.64760  1.0000 -0.1994097142
C   C80       1.0  0.79650  0.27620  0.17830  1.0000 -0.1486482812
C   C81       1.0  0.07220  0.52830  0.45440  1.0000 -0.2603039328
C   C82       1.0  0.92940  0.37510  0.29900  1.0000 -0.3209595863
C   C83       1.0  0.68210  0.52150  0.55870  1.0000 -0.2786850896
C   C84       1.0  0.75740  0.50800  0.35300  1.0000 0.1787809075
C   C85       1.0  0.86590  0.13120  0.35900  1.0000 -0.2883998338
C   C86       1.0  0.19260  0.25850  0.70080  1.0000 0.0987285789
C   C87       1.0  0.79830  0.55000  0.41320  1.0000 0.0423618018
C   C88       1.0  0.13370  0.19780  0.48090  1.0000 -0.1589968772
C   C89       1.0  0.68590  0.53680  0.50820  1.0000 0.1691094355
C   C90       1.0  0.05180  0.28650  0.53980  1.0000 -0.1317792643
C   C91       1.0  0.07740  0.19540  0.42800  1.0000 -0.1589968772
C   C92       1.0  0.75100  0.60450  0.45470  1.0000 -0.2883998338
C   C93       1.0  0.83280  0.73370  0.69550  1.0000 -0.2415688071
C   C94       1.0  0.74100  0.59240  0.51180  1.0000 0.0483042878
C   C95       1.0  0.78330  0.20760  0.44300  1.0000 0.1691094355
C   C96       1.0  0.72910  0.56250  0.61590  1.0000 0.0575499557
C   C97       1.0  0.78710  0.63280  0.56880  1.0000 -0.2712602318
C   C98       1.0  0.84690  0.16070  0.42620  1.0000 0.0483042878
C   C99       1.0  0.00120  0.42500  0.69900  1.0000 -0.2603039328
C   C100      1.0  0.78190  0.61940  0.62060  1.0000 0.1691094355
C   C101      1.0  0.82930  0.45560  0.66860  1.0000 -0.2786850896
C   C102      1.0  0.82310  0.22220  0.54940  1.0000 0.0483042878
C   C103      1.0  0.88330  0.17150  0.53220  1.0000 0.1787809075
C   C104      1.0  0.74200  0.47120  0.66200  1.0000 0.018029191
C   C105      1.0  0.85120  0.38770  0.65490  1.0000 0.1604294893
C   C106      1.0  0.77430  0.23950  0.50520  1.0000 -0.2712602318
C   C107      1.0  0.70000  0.34840  0.63050  1.0000 -0.3209595863
C   C108      1.0  0.26150  0.24210  0.60280  1.0000 -0.1994097142
C   C109      1.0  0.72100  0.54460  0.67160  1.0000 -0.2786850896
C   C110      1.0  0.89200  0.14190  0.47070  1.0000 -0.2786850896
C   C111      1.0  0.63240  0.48280  0.27570  1.0000 -0.2155409042
C   C112      1.0  0.78950  0.33230  0.63570  1.0000 0.0483042878
C   C113      1.0  0.31060  0.24850  0.65940  1.0000 0.0704867159
C   C114      1.0  0.67900  0.41810  0.64340  1.0000 0.1787809075
C   C115      1.0  0.98460  0.09380  0.55790  1.0000 -0.2603039328
C   C116      1.0  0.81590  0.25570  0.61710  1.0000 -0.2712602318
C   C117      1.0  0.52630  0.37990  0.61310  1.0000 -0.2603039328
C   C118      1.0  0.56860  0.44480  0.43910  1.0000 -0.2603039328
C   C119      1.0  0.70180  0.29810  0.41850  1.0000 -0.2712602318
C   C120      1.0  0.44890  0.56430  0.14590  1.0000 -0.0135039925
C   C121      1.0  0.71460  0.58620  0.11010  1.0000 0.5740945306
C   C122      1.0  0.04570  0.31550  0.16790  1.0000 -0.1317792643
C   C123      1.0  0.30400  0.38570  0.13970  1.0000 0.0704867159
C   C124      1.0  0.76720  0.52540  0.11130  1.0000 -0.0206584796
C   C125      1.0  0.75110  0.77580  0.12940  1.0000 0.5893074836
C   C126      1.0  0.03100  0.24900  0.12230  1.0000 0.0704867159
C   C127      1.0  0.33333  0.35530  0.18140  1.0000 -0.1486482812
C   C128      1.0  0.80780  0.83280  0.12830  1.0000 -0.0345303673
C   C129      1.0  0.55770  0.70880  0.96470  1.0000 0.0987285789
C   C130      1.0  0.92840  0.35690  0.11490  1.0000 0.0704867159
C   C131      1.0  0.95080  0.00810  0.12410  1.0000 0.0704867159
C   C132      1.0  0.78490  0.47450  0.05650  1.0000 -0.1085373476
C   C133      1.0  0.34950  0.44990  0.14260  1.0000 0.0704867159
C   C134      1.0  0.80140  0.51910  0.16540  1.0000 -0.1085373476
C   C135      1.0  0.44130  0.55560  0.19820  1.0000 -0.1085373476
C   C136      1.0  0.40250  0.51780  0.09010  1.0000 -0.1085373476
C   C137      1.0  0.85150  0.46370  0.16570  1.0000 -0.1708624955
C   C138      1.0  0.23390  0.34970  0.09200  1.0000 -0.1405850439
C   C139      1.0  0.19330  0.28940  0.08990  1.0000 -0.1405850439
C   C140      1.0  0.87150  0.41470  0.11250  1.0000 0.0704867159
C   C141      1.0  0.90430  0.94650  0.12540  1.0000 0.0794520754
C   C142      1.0  0.99450  0.36860  0.16400  1.0000 -0.1486482812
C   C143      1.0  0.35520  0.70320  0.85350  1.0000 0.0483042878
C   C144      1.0  0.50980  0.62210  0.14670  1.0000 0.5840884414
C   C145      1.0  0.39360  0.49930  0.19800  1.0000 -0.1486482812
C   C146      1.0  0.17400  0.19680  0.13250  1.0000 -0.0206584796
C   C147      1.0  0.03900  0.12640  0.12210  1.0000 0.0704867159
C   C148      1.0  0.42050  0.68610  0.89670  1.0000 0.1198594635
C   C149      1.0  0.21940  0.26100  0.13230  1.0000 0.0704867159
C   C150      1.0  0.50250  0.72070  0.91930  1.0000 -0.1994097142
C   C151      1.0  0.97800  0.13390  0.16140  1.0000 -0.1486482812
C   C152      1.0  0.45900  0.62920  0.96670  1.0000 0.0906260688
C   C153      1.0  0.83620  0.42020  0.05790  1.0000 -0.1486482812
C   C154      1.0  0.08700  0.19070  0.12590  1.0000 -0.0206584796
C   C155      1.0  0.23200  0.14370  0.14190  1.0000 0.0704867159
C   C156      1.0  0.05100  0.05910  0.08240  1.0000 -0.1486482812
C   C157      1.0  0.00720  0.99960  0.08200  1.0000 -0.1486482812
C   C158      1.0  0.91470  0.29000  0.06950  1.0000 -0.1486482812
C   C159      1.0  0.29150  0.29360  0.17680  1.0000 -0.1589968772
C   C160      1.0  0.37580  0.71430  0.80410  1.0000 -0.1486482812
C   C161      1.0  0.35180  0.46090  0.08860  1.0000 -0.1405850439
C   C162      1.0  0.49480  0.87280  0.16770  1.0000 -0.0206584796
C   C163      1.0  0.93660  0.07570  0.16230  1.0000 -0.1405850439
C   C164      1.0  0.96450  0.23620  0.07300  1.0000 -0.1486482812
C   C165      1.0  0.22270  0.11210  0.18200  1.0000 -0.1405850439
C   C166      1.0  0.34240  0.03960  0.15530  1.0000 0.0704867159
C   C167      1.0  0.30080  0.12190  0.10770  1.0000 -0.1589968772
C   C168      1.0  0.27620  0.06140  0.18900  1.0000 -0.1405850439
C   C169      1.0  0.82550  0.83200  0.07260  1.0000 -0.1009313696
C   C170      1.0  0.11490  0.80740  0.65830  1.0000 0.0906260688
C   C171      1.0  0.15820  0.74030  0.72120  1.0000 0.0137634088
C   C172      1.0  0.39990  0.63810  0.92190  1.0000 -0.1931432519
C   C173      1.0  0.08840  0.69010  0.68920  1.0000 0.1116630257
C   C174      1.0  0.46820  0.91910  0.21830  1.0000 -0.0918156668
C   C175      1.0  0.88660  0.94580  0.17960  1.0000 -0.1486482812
C   C176      1.0  0.35450  0.07240  0.11550  1.0000 -0.1405850439
C   C177      1.0  0.47600  0.88210  0.11190  1.0000 -0.1009313696
C   C178      1.0  0.54750  0.81160  0.16910  1.0000 0.5893074836
C   C179      1.0  0.84320  0.89100  0.18210  1.0000 -0.0918156668
C   C180      1.0  0.39620  0.98260  0.16030  1.0000 0.0704867159
C   C181      1.0  0.16920  0.79730  0.70600  1.0000 -0.2101517316
C   C182      1.0  0.31190  0.72630  0.76200  1.0000 -0.1486482812
C   C183      1.0  0.99950  0.71360  0.51230  1.0000 -0.1405850439
C   C184      1.0  0.04510  0.75720  0.62590  1.0000 0.0137634088
C   C185      1.0  0.42620  0.93680  0.10900  1.0000 -0.1486482812
C   C186      1.0  0.03290  0.70050  0.64080  1.0000 -0.2101517316
C   C187      1.0  0.87320  0.88750  0.07160  1.0000 -0.1589968772
C   C188      1.0  0.22480  0.73090  0.77000  1.0000 0.0794520754
C   C189      1.0  0.98640  0.75900  0.56950  1.0000 0.0704867159
C   C190      1.0  0.82530  0.75200  0.40250  1.0000 0.1116630257
C   C191      1.0  0.20090  0.54780  0.68210  1.0000 -0.326360527
C   C192      1.0  0.11610  0.56310  0.66140  1.0000 0.0483042878
C   C193      1.0  0.07450  0.51660  0.60290  1.0000 0.1604294893
C   C194      1.0  0.88170  0.75750  0.46160  1.0000 0.0575499557
C   C195      1.0  0.26710  0.71050  0.86330  1.0000 -0.1486482812
C   C196      1.0  0.11780  0.46250  0.56660  1.0000 -0.2712602318
C   C197      1.0  0.41780  0.97230  0.21450  1.0000 -0.1405850439
C   C198      1.0  0.86180  0.74430  0.35240  1.0000 -0.1994097142
C   C199      1.0  0.20350  0.72380  0.82170  1.0000 -0.1486482812
C   C200      1.0  0.92780  0.47170  0.54560  1.0000 -0.2603039328
C   C201      1.0  0.07060  0.62490  0.70100  1.0000 -0.3209595863
C   C202      1.0  0.31790  0.47850  0.44130  1.0000 -0.2786850896
C   C203      1.0  0.24260  0.49200  0.64700  1.0000 0.1787809075
C   C204      1.0  0.13410  0.86880  0.64100  1.0000 -0.2883998338
C   C205      1.0  0.80740  0.74150  0.29920  1.0000 0.0987285789
C   C206      1.0  0.20170  0.45000  0.58680  1.0000 0.0423618018
C   C207      1.0  0.86630  0.80220  0.51910  1.0000 -0.1589968772
C   C208      1.0  0.31410  0.46320  0.49180  1.0000 0.1691094355
C   C209      1.0  0.94820  0.71350  0.46020  1.0000 -0.1317792643
C   C210      1.0  0.92260  0.80460  0.57200  1.0000 -0.1589968772
C   C211      1.0  0.24900  0.39550  0.54530  1.0000 -0.2883998338
C   C212      1.0  0.16720  0.26630  0.30450  1.0000 -0.2415688071
C   C213      1.0  0.25900  0.40760  0.48820  1.0000 0.0483042878
C   C214      1.0  0.21670  0.79240  0.55700  1.0000 0.1691094355
C   C215      1.0  0.27090  0.43750  0.38410  1.0000 0.0575499557
C   C216      1.0  0.21290  0.36720  0.43120  1.0000 -0.2712602318
C   C217      1.0  0.15310  0.83930  0.57380  1.0000 0.0483042878
C   C218      1.0  0.99880  0.57500  0.30100  1.0000 -0.2603039328
C   C219      1.0  0.21810  0.38060  0.37940  1.0000 0.1691094355
C   C220      1.0  0.17070  0.54440  0.33140  1.0000 -0.2786850896
C   C221      1.0  0.17690  0.77780  0.45060  1.0000 0.0483042878
C   C222      1.0  0.11670  0.82850  0.46780  1.0000 0.1787809075
C   C223      1.0  0.25800  0.52880  0.33800  1.0000 0.018029191
C   C224      1.0  0.14880  0.61230  0.34510  1.0000 0.1604294893
C   C225      1.0  0.22570  0.76050  0.49480  1.0000 -0.2786850896
C   C226      1.0  0.30000  0.65160  0.36950  1.0000 -0.3209595863
C   C227      1.0  0.73850  0.75790  0.39720  1.0000 -0.1994097142
C   C228      1.0  0.27900  0.45540  0.32840  1.0000 -0.2786850896
C   C229      1.0  0.10800  0.85810  0.52930  1.0000 -0.2786850896
C   C230      1.0  0.36760  0.51720  0.72430  1.0000 -0.2155409042
C   C231      1.0  0.21050  0.66770  0.36430  1.0000 0.0483042878
C   C232      1.0  0.68940  0.75150  0.34060  1.0000 0.0704867159
C   C233      1.0  0.32100  0.58190  0.35660  1.0000 0.1787809075
C   C234      1.0  0.01540  0.90620  0.44210  1.0000 -0.2603039328
C   C235      1.0  0.18410  0.74430  0.38290  1.0000 -0.2712602318
C   C236      1.0  0.47370  0.62010  0.38690  1.0000 -0.2603039328
C   C237      1.0  0.43140  0.55520  0.56090  1.0000 -0.2603039328
C   C238      1.0  0.29820  0.70190  0.58150  1.0000 -0.2712602318
N   N1        1.0  0.46300  0.33490  0.01060  1.0000 -0.2101517316
N   N2        1.0  0.27690  0.25860  0.70890  1.0000 -0.2101517316
N   N3        1.0  0.53700  0.66510  0.98940  1.0000 -0.2101517316
N   N4        1.0  0.72310  0.74140  0.29110  1.0000 -0.2101517316
O   O1        1.0  0.28770  0.36560  0.83760  1.0000 -0.574239615
O   O2        1.0  0.48290  0.37770  0.90420  1.0000 -0.5404019985
O   O3        1.0  0.44950  0.33760  0.80230  1.0000 -0.531704906
O   O4        1.0  0.25730  0.22110  0.81770  1.0000 -0.5574675832
O   O5        1.0  0.42170  0.18970  0.77950  1.0000 -0.5228331123
O   O6        1.0  0.32090  0.41420  0.93983  1.0000 -0.5082690749
O   O7        1.0  0.28530  0.26960  0.92160  1.0000 -0.5457693074
O   O8        1.0  0.44240  0.23410  0.88230  1.0000 -0.5837267671
O   O9        1.0  0.67650  0.52340  0.33320  1.0000 -0.1009313696
O   O10       1.0  0.01020  0.46830  0.41530  1.0000 -0.1708624955
O   O11       1.0  0.83050  0.65920  0.67890  1.0000 -0.1768468726
O   O12       1.0  0.73370  0.22490  0.39830  1.0000 -0.1317792643
O   O13       1.0  0.93580  0.36770  0.66000  1.0000 -0.1708624955
O   O14       1.0  0.92850  0.15300  0.57780  1.0000 -0.1405850439
O   O15       1.0  0.63650  0.50240  0.45010  1.0000 -0.1708624955
O   O16       1.0  0.59610  0.43750  0.63930  1.0000 -0.1589968772
O   O17       1.0  0.71230  0.63440  0.16240  1.0000 -0.574239615
O   O18       1.0  0.51710  0.62230  0.09580  1.0000 -0.5404019985
O   O19       1.0  0.55050  0.66240  0.19770  1.0000 -0.531704906
O   O20       1.0  0.74270  0.77890  0.18230  1.0000 -0.5574675832
O   O21       1.0  0.57830  0.81030  0.22050  1.0000 -0.5228331123
O   O22       1.0  0.67910  0.58580  0.06017  1.0000 -0.5082690749
O   O23       1.0  0.71470  0.73040  0.07840  1.0000 -0.5457693074
O   O24       1.0  0.55760  0.76590  0.11770  1.0000 -0.5837267671
O   O25       1.0  0.32350  0.47660  0.66680  1.0000 -0.1009313696
O   O26       1.0  0.98980  0.53170  0.58470  1.0000 -0.1708624955
O   O27       1.0  0.16950  0.34080  0.32110  1.0000 -0.1768468726
O   O28       1.0  0.26630  0.77510  0.60170  1.0000 -0.1317792643
O   O29       1.0  0.06420  0.63230  0.34000  1.0000 -0.1708624955
O   O30       1.0  0.07150  0.84700  0.42220  1.0000 -0.1405850439
O   O31       1.0  0.36350  0.49760  0.54990  1.0000 -0.1708624955
O   O32       1.0  0.40390  0.56250  0.36070  1.0000 -0.1589968772
