# DDEC6 charges by PACMAN v1.1 (https://github.com/mtap-research/PACMAN-charge/)
data_2024[Eu][nan]3[FSR]3
_chemical_formula_sum              "Eu2 H18 C32 O20"
_cell_length_a       9.5701
_cell_length_b       10.5245
_cell_length_c       10.6495
_cell_angle_alpha    81.949
_cell_angle_beta     115.124
_cell_angle_gamma    114.9

_symmetry_space_group_name_H-M    "P 1"
_symmetry_Int_Tables_number       1

loop_
  _symmetry_equiv_pos_as_xyz
  'x, y, z'

loop_
  _atom_site_type_symbol
  _atom_site_label
  _atom_site_symmetry_multiplicity
  _atom_site_fract_x
  _atom_site_fract_y
  _atom_site_fract_z
  _atom_site_occupancy
  _atom_site_charge
Eu  Eu1       1.0  0.71978  0.96380  0.02842  1.0000 2.1706138154
Eu  Eu2       1.0  0.28022  0.03620  0.97158  1.0000 2.1706138154
H   H1        1.0  0.70910  0.01534  0.74095  1.0000 0.3897863528
H   H2        1.0  0.29090  0.98466  0.25905  1.0000 0.3897863528
H   H3        1.0  0.87620  0.02775  0.82389  1.0000 0.3897863528
H   H4        1.0  0.12380  0.97225  0.17611  1.0000 0.3897863528
H   H5        1.0  0.64754  0.64670  0.17353  1.0000 0.3729943236
H   H6        1.0  0.35246  0.35330  0.82647  1.0000 0.3729943236
H   H7        1.0  0.06568  0.86964  0.52460  1.0000 0.1395719846
H   H8        1.0  0.93432  0.13036  0.47540  1.0000 0.1395719846
H   H9        1.0  0.23349  0.52614  0.47997  1.0000 0.1395719846
H   H10       1.0  0.76651  0.47386  0.52003  1.0000 0.1395719846
H   H11       1.0  0.38423  0.67664  0.67664  1.0000 0.1327103576
H   H12       1.0  0.61577  0.32336  0.32336  1.0000 0.1327103576
H   H13       1.0  0.33016  0.46577  0.04727  1.0000 0.1395719846
H   H14       1.0  0.66984  0.53423  0.95273  1.0000 0.1395719846
H   H15       1.0  0.98013  0.29282  0.21443  1.0000 0.1479840329
H   H16       1.0  0.01987  0.70718  0.78557  1.0000 0.1479840329
H   H17       1.0  0.19263  0.71572  0.18573  1.0000 0.1479840329
H   H18       1.0  0.80737  0.28428  0.81427  1.0000 0.1479840329
C   C1        1.0  0.33770  0.88070  0.74730  1.0000 0.6643184921
C   C2        1.0  0.66230  0.11930  0.25270  1.0000 0.6643184921
C   C3        1.0  0.24240  0.79090  0.61660  1.0000 -0.047617613
C   C4        1.0  0.75760  0.20910  0.38340  1.0000 -0.047617613
C   C5        1.0  0.10140  0.80190  0.51360  1.0000 -0.0861300925
C   C6        1.0  0.89860  0.19810  0.48640  1.0000 -0.0861300925
C   C7        1.0  0.00850  0.71490  0.39180  1.0000 -0.1628848711
C   C8        1.0  0.99150  0.28510  0.60820  1.0000 -0.1628848711
C   C9        1.0  0.06090  0.61250  0.38110  1.0000 0.2469964525
C   C10       1.0  0.93910  0.38750  0.61890  1.0000 0.2469964525
C   C11       1.0  0.20010  0.59700  0.48730  1.0000 -0.2173103193
C   C12       1.0  0.79990  0.40300  0.51270  1.0000 -0.2173103193
C   C13       1.0  0.28890  0.68660  0.60360  1.0000 -0.0606752062
C   C14       1.0  0.71110  0.31340  0.39640  1.0000 -0.0606752062
C   C15       1.0  0.86460  0.73760  0.28120  1.0000 0.6183057329
C   C16       1.0  0.13540  0.26240  0.71880  1.0000 0.6183057329
C   C17       1.0  0.39460  0.73740  0.07100  1.0000 0.6503563722
C   C18       1.0  0.60540  0.26260  0.92900  1.0000 0.6503563722
C   C19       1.0  0.12440  0.21460  0.08800  1.0000 0.6503563722
C   C20       1.0  0.87560  0.78540  0.91200  1.0000 0.6503563722
C   C21       1.0  0.27970  0.60860  0.11260  1.0000 -0.0030255959
C   C22       1.0  0.72030  0.39140  0.88740  1.0000 -0.0030255959
C   C23       1.0  0.26410  0.47570  0.08810  1.0000 -0.1217605123
C   C24       1.0  0.73590  0.52430  0.91190  1.0000 -0.1217605123
C   C25       1.0  0.15020  0.35610  0.12410  1.0000 -0.0172884079
C   C26       1.0  0.84980  0.64390  0.87590  1.0000 -0.0172884079
C   C27       1.0  0.05520  0.37200  0.18690  1.0000 -0.2117147768
C   C28       1.0  0.94480  0.62800  0.81310  1.0000 -0.2117147768
C   C29       1.0  0.07480  0.50950  0.20770  1.0000 0.2554862997
C   C30       1.0  0.92520  0.49050  0.79230  1.0000 0.2554862997
C   C31       1.0  0.18310  0.62490  0.17120  1.0000 -0.2117147768
C   C32       1.0  0.81690  0.37510  0.82880  1.0000 -0.2117147768
O   O1        1.0  0.79760  0.05530  0.82230  1.0000 -0.7706349889
O   O2        1.0  0.20240  0.94470  0.17770  1.0000 -0.7706349889
O   O3        1.0  0.48280  0.88440  0.82210  1.0000 -0.6925813208
O   O4        1.0  0.51720  0.11560  0.17790  1.0000 -0.6925813208
O   O5        1.0  0.26830  0.94890  0.77330  1.0000 -0.6925813208
O   O6        1.0  0.73170  0.05110  0.22670  1.0000 -0.6925813208
O   O7        1.0  0.87780  0.85770  0.24620  1.0000 -0.5832886795
O   O8        1.0  0.12220  0.14230  0.75380  1.0000 -0.5832886795
O   O9        1.0  0.72690  0.62410  0.22730  1.0000 -0.4390932272
O   O10       1.0  0.27310  0.37590  0.77270  1.0000 -0.4390932272
O   O11       1.0  0.97130  0.52320  0.26200  1.0000 -0.2270763914
O   O12       1.0  0.02870  0.47680  0.73800  1.0000 -0.2270763914
O   O13       1.0  0.35630  0.84270  0.04240  1.0000 -0.7115876177
O   O14       1.0  0.64370  0.15730  0.95760  1.0000 -0.7115876177
O   O15       1.0  0.52570  0.73950  0.06960  1.0000 -0.6405749718
O   O16       1.0  0.47430  0.26050  0.93040  1.0000 -0.6405749718
O   O17       1.0  0.21240  0.20260  0.03590  1.0000 -0.6405749718
O   O18       1.0  0.78760  0.79740  0.96410  1.0000 -0.6405749718
O   O19       1.0  0.01090  0.10840  0.11470  1.0000 -0.7182792822
O   O20       1.0  0.98910  0.89160  0.88530  1.0000 -0.7182792822
