# DDEC6 charges by PACMAN v1.1 (https://github.com/mtap-research/PACMAN-charge/)
data_2024[Co][sql]2[FSR]4
_chemical_formula_sum              "Co4 H180 C192 N12 O28"
_cell_length_a       11.1658
_cell_length_b       31.075
_cell_length_c       18.4415
_cell_angle_alpha    90
_cell_angle_beta     121.994
_cell_angle_gamma    90

_symmetry_space_group_name_H-M    "P 1"
_symmetry_Int_Tables_number       1

loop_
  _symmetry_equiv_pos_as_xyz
  'x, y, z'

loop_
  _atom_site_type_symbol
  _atom_site_label
  _atom_site_symmetry_multiplicity
  _atom_site_fract_x
  _atom_site_fract_y
  _atom_site_fract_z
  _atom_site_occupancy
  _atom_site_charge
Co  Co1       1.0  0.47550  0.36881  0.70683  1.0000 0.7664284364
Co  Co2       1.0  0.52450  0.86881  0.79317  1.0000 0.7664284364
Co  Co3       1.0  0.52450  0.63119  0.29317  1.0000 0.7664284364
Co  Co4       1.0  0.47550  0.13119  0.20683  1.0000 0.7664284364
H   H1        1.0  0.71046  0.38541  0.72234  1.0000 0.3153275506
H   H2        1.0  0.28954  0.88541  0.77766  1.0000 0.3153275506
H   H3        1.0  0.65601  0.35240  0.66680  1.0000 0.3273463503
H   H4        1.0  0.34399  0.85240  0.83320  1.0000 0.3273463503
H   H5        1.0  0.74098  0.23210  0.11960  1.0000 0.3493643061
H   H6        1.0  0.25902  0.73210  0.38040  1.0000 0.3493643061
H   H7        1.0  0.38362  0.42602  0.54489  1.0000 0.1100075329
H   H8        1.0  0.61638  0.92602  0.95511  1.0000 0.1100075329
H   H9        1.0  0.21695  0.42877  0.50339  1.0000 0.1100075329
H   H10       1.0  0.78305  0.92877  0.99661  1.0000 0.1100075329
H   H11       1.0  0.23710  0.45600  0.61796  1.0000 0.1100075329
H   H12       1.0  0.76290  0.95600  0.88204  1.0000 0.1100075329
H   H13       1.0  0.36105  0.47901  0.61362  1.0000 0.1034476365
H   H14       1.0  0.63895  0.97901  0.88638  1.0000 0.1034476365
H   H15       1.0  0.45195  0.43567  0.82638  1.0000 0.1193298624
H   H16       1.0  0.54805  0.93567  0.67362  1.0000 0.1193298624
H   H17       1.0  0.32512  0.46529  0.75805  1.0000 0.1100075329
H   H18       1.0  0.67488  0.96529  0.74195  1.0000 0.1100075329
H   H19       1.0  0.17888  0.41227  0.70321  1.0000 0.1034476365
H   H20       1.0  0.82112  0.91227  0.79679  1.0000 0.1034476365
H   H21       1.0  0.26878  0.39970  0.80207  1.0000 0.1100075329
H   H22       1.0  0.73122  0.89970  0.69793  1.0000 0.1100075329
H   H23       1.0  0.10190  0.34612  0.64658  1.0000 0.1193298624
H   H24       1.0  0.89810  0.84612  0.85342  1.0000 0.1193298624
H   H25       1.0  0.20855  0.31217  0.64591  1.0000 0.1193298624
H   H26       1.0  0.79145  0.81217  0.85409  1.0000 0.1193298624
H   H27       1.0  0.11284  0.38950  0.55737  1.0000 0.1100075329
H   H28       1.0  0.88716  0.88950  0.94263  1.0000 0.1100075329
H   H29       1.0  0.11852  0.34322  0.52172  1.0000 0.1100075329
H   H30       1.0  0.88148  0.84322  0.97828  1.0000 0.1100075329
H   H31       1.0  0.32149  0.31752  0.53165  1.0000 0.1193298624
H   H32       1.0  0.67851  0.81752  0.96835  1.0000 0.1193298624
H   H33       1.0  0.43056  0.35209  0.53572  1.0000 0.1193298624
H   H34       1.0  0.56944  0.85209  0.96428  1.0000 0.1193298624
H   H35       1.0  0.34480  0.40536  0.41553  1.0000 0.1193298624
H   H36       1.0  0.65520  0.90536  0.08447  1.0000 0.1193298624
H   H37       1.0  0.20555  0.41436  0.26799  1.0000 0.1100075329
H   H38       1.0  0.79445  0.91436  0.23201  1.0000 0.1100075329
H   H39       1.0  0.96174  0.31489  0.25199  1.0000 0.1193298624
H   H40       1.0  0.03826  0.81489  0.24801  1.0000 0.1193298624
H   H41       1.0  0.09950  0.30679  0.40008  1.0000 0.1193298624
H   H42       1.0  0.90050  0.80679  0.09992  1.0000 0.1193298624
H   H43       1.0  0.15318  0.38626  0.13754  1.0000 0.1034476365
H   H44       1.0  0.84682  0.88626  0.36246  1.0000 0.1034476365
H   H45       1.0  0.02728  0.39042  0.98969  1.0000 0.1193298624
H   H46       1.0  0.97272  0.89042  0.51031  1.0000 0.1193298624
H   H47       1.0  0.66915  0.35931  0.98085  1.0000 0.1193298624
H   H48       1.0  0.33085  0.85931  0.51915  1.0000 0.1193298624
H   H49       1.0  0.79519  0.35501  0.12975  1.0000 0.1100075329
H   H50       1.0  0.20481  0.85501  0.37025  1.0000 0.1100075329
H   H51       1.0  0.60088  0.45875  0.70956  1.0000 0.1193298624
H   H52       1.0  0.39912  0.95875  0.79044  1.0000 0.1193298624
H   H53       1.0  0.63590  0.44774  0.80336  1.0000 0.1100075329
H   H54       1.0  0.36410  0.94774  0.69664  1.0000 0.1100075329
H   H55       1.0  0.59002  0.50255  0.88356  1.0000 0.1254239784
H   H56       1.0  0.40998  0.00255  0.61644  1.0000 0.1254239784
H   H57       1.0  0.57558  0.57530  0.90801  1.0000 0.1193298624
H   H58       1.0  0.42442  0.07530  0.59199  1.0000 0.1193298624
H   H59       1.0  0.50933  0.60310  0.67594  1.0000 0.1193298624
H   H60       1.0  0.49067  0.10310  0.82406  1.0000 0.1193298624
H   H61       1.0  0.52456  0.53069  0.65151  1.0000 0.1193298624
H   H62       1.0  0.47544  0.03069  0.84849  1.0000 0.1193298624
H   H63       1.0  0.43561  0.63570  0.87767  1.0000 0.1193298624
H   H64       1.0  0.56439  0.13570  0.62233  1.0000 0.1193298624
H   H65       1.0  0.39517  0.70840  0.88795  1.0000 0.1193298624
H   H66       1.0  0.60483  0.20840  0.61205  1.0000 0.1193298624
H   H67       1.0  0.57940  0.73844  0.75591  1.0000 0.1193298624
H   H68       1.0  0.42060  0.23844  0.74409  1.0000 0.1193298624
H   H69       1.0  0.61323  0.66613  0.74243  1.0000 0.1193298624
H   H70       1.0  0.38677  0.16613  0.75757  1.0000 0.1193298624
H   H71       1.0  0.44297  0.34319  0.85179  1.0000 0.1193298624
H   H72       1.0  0.55703  0.84319  0.64821  1.0000 0.1193298624
H   H73       1.0  0.38485  0.30314  0.78807  1.0000 0.1193298624
H   H74       1.0  0.61515  0.80314  0.71193  1.0000 0.1193298624
H   H75       1.0  0.11922  0.28241  0.73327  1.0000 0.1193298624
H   H76       1.0  0.88078  0.78241  0.76673  1.0000 0.1193298624
H   H77       1.0  0.97196  0.26684  0.78272  1.0000 0.1193298624
H   H78       1.0  0.02804  0.76684  0.71728  1.0000 0.1193298624
H   H79       1.0  0.22777  0.33401  0.99771  1.0000 0.1100075329
H   H80       1.0  0.77223  0.83401  0.50229  1.0000 0.1100075329
H   H81       1.0  0.36511  0.35433  0.94343  1.0000 0.1193298624
H   H82       1.0  0.63489  0.85433  0.55657  1.0000 0.1193298624
H   H83       1.0  0.81514  0.28218  0.81816  1.0000 0.1193298624
H   H84       1.0  0.18486  0.78218  0.68184  1.0000 0.1193298624
H   H85       1.0  0.67399  0.26469  0.87121  1.0000 0.1193298624
H   H86       1.0  0.32601  0.76469  0.62879  1.0000 0.1193298624
H   H87       1.0  0.01834  0.25802  0.11001  1.0000 0.1100075329
H   H88       1.0  0.98166  0.75802  0.38999  1.0000 0.1100075329
H   H89       1.0  0.15873  0.28020  0.05760  1.0000 0.1100075329
H   H90       1.0  0.84127  0.78020  0.44240  1.0000 0.1100075329
H   H91       1.0  0.28954  0.61459  0.27766  1.0000 0.3153275506
H   H92       1.0  0.71046  0.11459  0.22234  1.0000 0.3153275506
H   H93       1.0  0.34399  0.64760  0.33320  1.0000 0.3273463503
H   H94       1.0  0.65601  0.14760  0.16680  1.0000 0.3273463503
H   H95       1.0  0.25902  0.76790  0.88040  1.0000 0.3493643061
H   H96       1.0  0.74098  0.26790  0.61960  1.0000 0.3493643061
H   H97       1.0  0.61638  0.57398  0.45511  1.0000 0.1100075329
H   H98       1.0  0.38362  0.07398  0.04489  1.0000 0.1100075329
H   H99       1.0  0.78305  0.57123  0.49661  1.0000 0.1100075329
H   H100      1.0  0.21695  0.07123  0.00339  1.0000 0.1100075329
H   H101      1.0  0.76290  0.54400  0.38204  1.0000 0.1100075329
H   H102      1.0  0.23710  0.04400  0.11796  1.0000 0.1100075329
H   H103      1.0  0.63895  0.52099  0.38638  1.0000 0.1034476365
H   H104      1.0  0.36105  0.02099  0.11362  1.0000 0.1034476365
H   H105      1.0  0.54805  0.56433  0.17362  1.0000 0.1193298624
H   H106      1.0  0.45195  0.06433  0.32638  1.0000 0.1193298624
H   H107      1.0  0.67488  0.53471  0.24195  1.0000 0.1100075329
H   H108      1.0  0.32512  0.03471  0.25805  1.0000 0.1100075329
H   H109      1.0  0.82112  0.58773  0.29679  1.0000 0.1034476365
H   H110      1.0  0.17888  0.08773  0.20321  1.0000 0.1034476365
H   H111      1.0  0.73122  0.60030  0.19793  1.0000 0.1100075329
H   H112      1.0  0.26878  0.10030  0.30207  1.0000 0.1100075329
H   H113      1.0  0.89810  0.65388  0.35342  1.0000 0.1193298624
H   H114      1.0  0.10190  0.15388  0.14658  1.0000 0.1193298624
H   H115      1.0  0.79145  0.68783  0.35409  1.0000 0.1193298624
H   H116      1.0  0.20855  0.18783  0.14591  1.0000 0.1193298624
H   H117      1.0  0.88716  0.61050  0.44263  1.0000 0.1100075329
H   H118      1.0  0.11284  0.11050  0.05737  1.0000 0.1100075329
H   H119      1.0  0.88148  0.65678  0.47828  1.0000 0.1100075329
H   H120      1.0  0.11852  0.15678  0.02172  1.0000 0.1100075329
H   H121      1.0  0.67851  0.68248  0.46835  1.0000 0.1193298624
H   H122      1.0  0.32149  0.18248  0.03165  1.0000 0.1193298624
H   H123      1.0  0.56944  0.64791  0.46428  1.0000 0.1193298624
H   H124      1.0  0.43056  0.14791  0.03572  1.0000 0.1193298624
H   H125      1.0  0.65520  0.59464  0.58447  1.0000 0.1193298624
H   H126      1.0  0.34480  0.09464  0.91553  1.0000 0.1193298624
H   H127      1.0  0.79445  0.58564  0.73201  1.0000 0.1100075329
H   H128      1.0  0.20555  0.08564  0.76799  1.0000 0.1100075329
H   H129      1.0  0.03826  0.68511  0.74801  1.0000 0.1193298624
H   H130      1.0  0.96174  0.18511  0.75199  1.0000 0.1193298624
H   H131      1.0  0.90050  0.69321  0.59992  1.0000 0.1193298624
H   H132      1.0  0.09950  0.19321  0.90008  1.0000 0.1193298624
H   H133      1.0  0.84682  0.61374  0.86246  1.0000 0.1034476365
H   H134      1.0  0.15318  0.11374  0.63754  1.0000 0.1034476365
H   H135      1.0  0.97272  0.60958  0.01031  1.0000 0.1193298624
H   H136      1.0  0.02728  0.10958  0.48969  1.0000 0.1193298624
H   H137      1.0  0.33085  0.64069  0.01915  1.0000 0.1193298624
H   H138      1.0  0.66915  0.14069  0.48085  1.0000 0.1193298624
H   H139      1.0  0.20481  0.64499  0.87025  1.0000 0.1100075329
H   H140      1.0  0.79519  0.14499  0.62975  1.0000 0.1100075329
H   H141      1.0  0.39912  0.54125  0.29044  1.0000 0.1193298624
H   H142      1.0  0.60088  0.04125  0.20956  1.0000 0.1193298624
H   H143      1.0  0.36410  0.55226  0.19664  1.0000 0.1100075329
H   H144      1.0  0.63590  0.05226  0.30336  1.0000 0.1100075329
H   H145      1.0  0.40998  0.49745  0.11644  1.0000 0.1254239784
H   H146      1.0  0.59002  0.99745  0.38356  1.0000 0.1254239784
H   H147      1.0  0.42442  0.42470  0.09199  1.0000 0.1193298624
H   H148      1.0  0.57558  0.92470  0.40801  1.0000 0.1193298624
H   H149      1.0  0.49067  0.39690  0.32406  1.0000 0.1193298624
H   H150      1.0  0.50933  0.89690  0.17594  1.0000 0.1193298624
H   H151      1.0  0.47544  0.46931  0.34849  1.0000 0.1193298624
H   H152      1.0  0.52456  0.96931  0.15151  1.0000 0.1193298624
H   H153      1.0  0.56439  0.36430  0.12233  1.0000 0.1193298624
H   H154      1.0  0.43561  0.86430  0.37767  1.0000 0.1193298624
H   H155      1.0  0.60483  0.29160  0.11205  1.0000 0.1193298624
H   H156      1.0  0.39517  0.79160  0.38795  1.0000 0.1193298624
H   H157      1.0  0.42060  0.26156  0.24409  1.0000 0.1193298624
H   H158      1.0  0.57940  0.76156  0.25591  1.0000 0.1193298624
H   H159      1.0  0.38677  0.33387  0.25757  1.0000 0.1193298624
H   H160      1.0  0.61323  0.83387  0.24243  1.0000 0.1193298624
H   H161      1.0  0.55703  0.65681  0.14821  1.0000 0.1193298624
H   H162      1.0  0.44297  0.15681  0.35179  1.0000 0.1193298624
H   H163      1.0  0.61515  0.69686  0.21193  1.0000 0.1193298624
H   H164      1.0  0.38485  0.19686  0.28807  1.0000 0.1193298624
H   H165      1.0  0.88078  0.71759  0.26673  1.0000 0.1193298624
H   H166      1.0  0.11922  0.21759  0.23327  1.0000 0.1193298624
H   H167      1.0  0.02804  0.73316  0.21728  1.0000 0.1193298624
H   H168      1.0  0.97196  0.23316  0.28272  1.0000 0.1193298624
H   H169      1.0  0.77223  0.66599  0.00229  1.0000 0.1100075329
H   H170      1.0  0.22777  0.16599  0.49771  1.0000 0.1100075329
H   H171      1.0  0.63489  0.64567  0.05657  1.0000 0.1193298624
H   H172      1.0  0.36511  0.14567  0.44343  1.0000 0.1193298624
H   H173      1.0  0.18486  0.71782  0.18184  1.0000 0.1193298624
H   H174      1.0  0.81514  0.21782  0.31816  1.0000 0.1193298624
H   H175      1.0  0.32601  0.73531  0.12879  1.0000 0.1193298624
H   H176      1.0  0.67399  0.23531  0.37121  1.0000 0.1193298624
H   H177      1.0  0.98166  0.74198  0.88999  1.0000 0.1100075329
H   H178      1.0  0.01834  0.24198  0.61001  1.0000 0.1100075329
H   H179      1.0  0.84127  0.71980  0.94240  1.0000 0.1100075329
H   H180      1.0  0.15873  0.21980  0.55760  1.0000 0.1100075329
C   C1        1.0  0.30730  0.42143  0.55630  1.0000 -0.1488345008
C   C2        1.0  0.69270  0.92143  0.94370  1.0000 -0.1488345008
C   C3        1.0  0.32900  0.45108  0.62320  1.0000 -0.1431374043
C   C4        1.0  0.67100  0.95108  0.87680  1.0000 -0.1431374043
C   C5        1.0  0.37310  0.43733  0.76600  1.0000 -0.1488345008
C   C6        1.0  0.62690  0.93733  0.73400  1.0000 -0.1488345008
C   C7        1.0  0.27360  0.40309  0.75030  1.0000 -0.1488345008
C   C8        1.0  0.72640  0.90309  0.74970  1.0000 -0.1488345008
C   C9        1.0  0.19120  0.34328  0.64770  1.0000 -0.1488345008
C   C10       1.0  0.80880  0.84328  0.85230  1.0000 -0.1488345008
C   C11       1.0  0.17170  0.36341  0.57010  1.0000 -0.1431374043
C   C12       1.0  0.82830  0.86341  0.92990  1.0000 -0.1431374043
C   C13       1.0  0.33130  0.34787  0.51930  1.0000 -0.1895937268
C   C14       1.0  0.66870  0.84787  0.98070  1.0000 -0.1895937268
C   C15       1.0  0.23560  0.35516  0.42270  1.0000 0.1100075329
C   C16       1.0  0.76440  0.85516  0.07730  1.0000 0.1100075329
C   C17       1.0  0.26640  0.38686  0.38250  1.0000 -0.1594811622
C   C18       1.0  0.73360  0.88686  0.11750  1.0000 -0.1594811622
C   C19       1.0  0.18370  0.39196  0.29420  1.0000 -0.1488345008
C   C20       1.0  0.81630  0.89196  0.20580  1.0000 -0.1488345008
C   C21       1.0  0.07080  0.36534  0.24390  1.0000 0.0694206716
C   C22       1.0  0.92920  0.86534  0.25610  1.0000 0.0694206716
C   C23       1.0  0.03980  0.33351  0.28480  1.0000 -0.1292670792
C   C24       1.0  0.96020  0.83351  0.21520  1.0000 -0.1292670792
C   C25       1.0  0.12220  0.32871  0.37340  1.0000 -0.1488345008
C   C26       1.0  0.87780  0.82871  0.12660  1.0000 -0.1488345008
C   C27       1.0  0.98790  0.36938  0.14940  1.0000 0.0694206716
C   C28       1.0  0.01210  0.86938  0.35060  1.0000 0.0694206716
C   C29       1.0  0.05470  0.38043  0.10600  1.0000 -0.1488345008
C   C30       1.0  0.94530  0.88043  0.39400  1.0000 -0.1488345008
C   C31       1.0  0.97980  0.38302  0.01810  1.0000 -0.1003325335
C   C32       1.0  0.02020  0.88302  0.48190  1.0000 -0.1003325335
C   C33       1.0  0.83630  0.37496  0.97070  1.0000 -0.019090271
C   C34       1.0  0.16370  0.87496  0.52930  1.0000 -0.019090271
C   C35       1.0  0.76790  0.36462  0.01270  1.0000 -0.1003325335
C   C36       1.0  0.23210  0.86462  0.48730  1.0000 -0.1003325335
C   C37       1.0  0.84330  0.36197  0.10150  1.0000 -0.1488345008
C   C38       1.0  0.15670  0.86197  0.39850  1.0000 -0.1488345008
C   C39       1.0  0.75500  0.37699  0.87390  1.0000 0.5510642783
C   C40       1.0  0.24500  0.87699  0.62610  1.0000 0.5510642783
C   C41       1.0  0.56520  0.46132  0.74840  1.0000 -0.1895937268
C   C42       1.0  0.43480  0.96132  0.75160  1.0000 -0.1895937268
C   C43       1.0  0.55630  0.50884  0.76450  1.0000 0.1100075329
C   C44       1.0  0.44370  0.00884  0.73550  1.0000 0.1100075329
C   C45       1.0  0.57260  0.52296  0.84070  1.0000 -0.1594811622
C   C46       1.0  0.42740  0.02296  0.65930  1.0000 -0.1594811622
C   C47       1.0  0.56390  0.56637  0.85540  1.0000 -0.1488345008
C   C48       1.0  0.43610  0.06637  0.64460  1.0000 -0.1488345008
C   C49       1.0  0.53830  0.59681  0.79350  1.0000 0.0569600881
C   C50       1.0  0.46170  0.09681  0.70650  1.0000 0.0569600881
C   C51       1.0  0.52500  0.58265  0.71840  1.0000 -0.1431374043
C   C52       1.0  0.47500  0.08265  0.78160  1.0000 -0.1431374043
C   C53       1.0  0.53390  0.53947  0.70360  1.0000 -0.1701680577
C   C54       1.0  0.46610  0.03947  0.79640  1.0000 -0.1701680577
C   C55       1.0  0.52390  0.64335  0.80660  1.0000 0.0694206716
C   C56       1.0  0.47610  0.14335  0.69340  1.0000 0.0694206716
C   C57       1.0  0.46240  0.65659  0.85130  1.0000 -0.1594811622
C   C58       1.0  0.53760  0.15659  0.64870  1.0000 -0.1594811622
C   C59       1.0  0.43920  0.69996  0.85800  1.0000 -0.1003325335
C   C60       1.0  0.56080  0.19996  0.64200  1.0000 -0.1003325335
C   C61       1.0  0.48030  0.73094  0.82130  1.0000 -0.0317591528
C   C62       1.0  0.51970  0.23094  0.67870  1.0000 -0.0317591528
C   C63       1.0  0.54750  0.71754  0.77950  1.0000 -0.1003325335
C   C64       1.0  0.45250  0.21754  0.72050  1.0000 -0.1003325335
C   C65       1.0  0.56820  0.67456  0.77180  1.0000 -0.1488345008
C   C66       1.0  0.43180  0.17456  0.72820  1.0000 -0.1488345008
C   C67       1.0  0.45372  0.77809  0.82492  1.0000 0.5589896546
C   C68       1.0  0.54628  0.27809  0.67508  1.0000 0.5589896546
C   C69       1.0  0.35680  0.33048  0.80260  1.0000 -0.1895937268
C   C70       1.0  0.64320  0.83048  0.69740  1.0000 -0.1895937268
C   C71       1.0  0.25570  0.31992  0.83120  1.0000 0.1100075329
C   C72       1.0  0.74430  0.81992  0.66880  1.0000 0.1100075329
C   C73       1.0  0.14100  0.29371  0.78680  1.0000 -0.1488345008
C   C74       1.0  0.85900  0.79371  0.71320  1.0000 -0.1488345008
C   C75       1.0  0.05550  0.28309  0.81770  1.0000 -0.1249106645
C   C76       1.0  0.94450  0.78309  0.68230  1.0000 -0.1249106645
C   C77       1.0  0.08870  0.29550  0.89720  1.0000 0.0694206716
C   C78       1.0  0.91130  0.79550  0.60280  1.0000 0.0694206716
C   C79       1.0  0.20540  0.32343  0.94360  1.0000 -0.1292670792
C   C80       1.0  0.79460  0.82343  0.55640  1.0000 -0.1292670792
C   C81       1.0  0.28730  0.33549  0.91150  1.0000 -0.1488345008
C   C82       1.0  0.71270  0.83549  0.58850  1.0000 -0.1488345008
C   C83       1.0  0.00300  0.28152  0.93230  1.0000 0.077119577
C   C84       1.0  0.99700  0.78152  0.56770  1.0000 0.077119577
C   C85       1.0  0.85730  0.27752  0.87780  1.0000 -0.1292670792
C   C86       1.0  0.14270  0.77752  0.62220  1.0000 -0.1292670792
C   C87       1.0  0.77340  0.26687  0.90930  1.0000 -0.0884384706
C   C88       1.0  0.22660  0.76687  0.59070  1.0000 -0.0884384706
C   C89       1.0  0.83220  0.25928  0.99590  1.0000 -0.0373887789
C   C90       1.0  0.16780  0.75928  0.50410  1.0000 -0.0373887789
C   C91       1.0  0.97630  0.26348  0.05070  1.0000 -0.1106768279
C   C92       1.0  0.02370  0.76348  0.44930  1.0000 -0.1106768279
C   C93       1.0  0.06050  0.27575  0.01900  1.0000 -0.1488345008
C   C94       1.0  0.93950  0.77575  0.48100  1.0000 -0.1488345008
C   C95       1.0  0.73500  0.24920  0.02630  1.0000 0.5309123949
C   C96       1.0  0.26500  0.74920  0.47370  1.0000 0.5309123949
C   C97       1.0  0.69270  0.57857  0.44370  1.0000 -0.1488345008
C   C98       1.0  0.30730  0.07857  0.05630  1.0000 -0.1488345008
C   C99       1.0  0.67100  0.54892  0.37680  1.0000 -0.1431374043
C   C100      1.0  0.32900  0.04892  0.12320  1.0000 -0.1431374043
C   C101      1.0  0.62690  0.56267  0.23400  1.0000 -0.1488345008
C   C102      1.0  0.37310  0.06267  0.26600  1.0000 -0.1488345008
C   C103      1.0  0.72640  0.59691  0.24970  1.0000 -0.1488345008
C   C104      1.0  0.27360  0.09691  0.25030  1.0000 -0.1488345008
C   C105      1.0  0.80880  0.65672  0.35230  1.0000 -0.1488345008
C   C106      1.0  0.19120  0.15672  0.14770  1.0000 -0.1488345008
C   C107      1.0  0.82830  0.63659  0.42990  1.0000 -0.1431374043
C   C108      1.0  0.17170  0.13659  0.07010  1.0000 -0.1431374043
C   C109      1.0  0.66870  0.65213  0.48070  1.0000 -0.1895937268
C   C110      1.0  0.33130  0.15213  0.01930  1.0000 -0.1895937268
C   C111      1.0  0.76440  0.64484  0.57730  1.0000 0.1100075329
C   C112      1.0  0.23560  0.14484  0.92270  1.0000 0.1100075329
C   C113      1.0  0.73360  0.61314  0.61750  1.0000 -0.1594811622
C   C114      1.0  0.26640  0.11314  0.88250  1.0000 -0.1594811622
C   C115      1.0  0.81630  0.60804  0.70580  1.0000 -0.1488345008
C   C116      1.0  0.18370  0.10804  0.79420  1.0000 -0.1431374043
C   C117      1.0  0.92920  0.63466  0.75610  1.0000 0.0694206716
C   C118      1.0  0.07080  0.13466  0.74390  1.0000 0.0569600881
C   C119      1.0  0.96020  0.66649  0.71520  1.0000 -0.1292670792
C   C120      1.0  0.03980  0.16649  0.78480  1.0000 -0.1292670792
C   C121      1.0  0.87780  0.67129  0.62660  1.0000 -0.1488345008
C   C122      1.0  0.12220  0.17129  0.87340  1.0000 -0.1488345008
C   C123      1.0  0.01210  0.63062  0.85060  1.0000 0.0694206716
C   C124      1.0  0.98790  0.13062  0.64940  1.0000 0.0694206716
C   C125      1.0  0.94530  0.61957  0.89400  1.0000 -0.1488345008
C   C126      1.0  0.05470  0.11957  0.60600  1.0000 -0.1488345008
C   C127      1.0  0.02020  0.61698  0.98190  1.0000 -0.1003325335
C   C128      1.0  0.97980  0.11698  0.51810  1.0000 -0.1003325335
C   C129      1.0  0.16370  0.62504  0.02930  1.0000 -0.019090271
C   C130      1.0  0.83630  0.12504  0.47070  1.0000 -0.019090271
C   C131      1.0  0.23210  0.63538  0.98730  1.0000 -0.1003325335
C   C132      1.0  0.76790  0.13538  0.51270  1.0000 -0.1003325335
C   C133      1.0  0.15670  0.63803  0.89850  1.0000 -0.1488345008
C   C134      1.0  0.84330  0.13803  0.60150  1.0000 -0.1488345008
C   C135      1.0  0.24500  0.62301  0.12610  1.0000 0.5510642783
C   C136      1.0  0.75500  0.12301  0.37390  1.0000 0.5510642783
C   C137      1.0  0.43480  0.53868  0.25160  1.0000 -0.1895937268
C   C138      1.0  0.56520  0.03868  0.24840  1.0000 -0.1895937268
C   C139      1.0  0.44370  0.49116  0.23550  1.0000 0.1100075329
C   C140      1.0  0.55630  0.99116  0.26450  1.0000 0.1100075329
C   C141      1.0  0.42740  0.47704  0.15930  1.0000 -0.1594811622
C   C142      1.0  0.57260  0.97704  0.34070  1.0000 -0.1594811622
C   C143      1.0  0.43610  0.43363  0.14460  1.0000 -0.1488345008
C   C144      1.0  0.56390  0.93363  0.35540  1.0000 -0.1488345008
C   C145      1.0  0.46170  0.40319  0.20650  1.0000 0.0569600881
C   C146      1.0  0.53830  0.90319  0.29350  1.0000 0.0569600881
C   C147      1.0  0.47500  0.41735  0.28160  1.0000 -0.1431374043
C   C148      1.0  0.52500  0.91735  0.21840  1.0000 -0.1431374043
C   C149      1.0  0.46610  0.46053  0.29640  1.0000 -0.1701680577
C   C150      1.0  0.53390  0.96053  0.20360  1.0000 -0.1701680577
C   C151      1.0  0.47610  0.35665  0.19340  1.0000 0.0694206716
C   C152      1.0  0.52390  0.85665  0.30660  1.0000 0.0694206716
C   C153      1.0  0.53760  0.34341  0.14870  1.0000 -0.1594811622
C   C154      1.0  0.46240  0.84341  0.35130  1.0000 -0.1594811622
C   C155      1.0  0.56080  0.30004  0.14200  1.0000 -0.1003325335
C   C156      1.0  0.43920  0.80004  0.35800  1.0000 -0.1003325335
C   C157      1.0  0.51970  0.26906  0.17870  1.0000 -0.0317591528
C   C158      1.0  0.48030  0.76906  0.32130  1.0000 -0.0317591528
C   C159      1.0  0.45250  0.28246  0.22050  1.0000 -0.1003325335
C   C160      1.0  0.54750  0.78246  0.27950  1.0000 -0.1003325335
C   C161      1.0  0.43180  0.32544  0.22820  1.0000 -0.1488345008
C   C162      1.0  0.56820  0.82544  0.27180  1.0000 -0.1488345008
C   C163      1.0  0.54628  0.22191  0.17508  1.0000 0.5589896546
C   C164      1.0  0.45372  0.72191  0.32492  1.0000 0.5589896546
C   C165      1.0  0.64320  0.66952  0.19740  1.0000 -0.1895937268
C   C166      1.0  0.35680  0.16952  0.30260  1.0000 -0.1895937268
C   C167      1.0  0.74430  0.68008  0.16880  1.0000 0.1100075329
C   C168      1.0  0.25570  0.18008  0.33120  1.0000 0.1100075329
C   C169      1.0  0.85900  0.70629  0.21320  1.0000 -0.1488345008
C   C170      1.0  0.14100  0.20629  0.28680  1.0000 -0.1488345008
C   C171      1.0  0.94450  0.71691  0.18230  1.0000 -0.1249106645
C   C172      1.0  0.05550  0.21691  0.31770  1.0000 -0.1249106645
C   C173      1.0  0.91130  0.70450  0.10280  1.0000 0.0694206716
C   C174      1.0  0.08870  0.20450  0.39720  1.0000 0.0694206716
C   C175      1.0  0.79460  0.67657  0.05640  1.0000 -0.1292670792
C   C176      1.0  0.20540  0.17657  0.44360  1.0000 -0.1292670792
C   C177      1.0  0.71270  0.66451  0.08850  1.0000 -0.1488345008
C   C178      1.0  0.28730  0.16451  0.41150  1.0000 -0.1488345008
C   C179      1.0  0.99700  0.71848  0.06770  1.0000 0.077119577
C   C180      1.0  0.00300  0.21848  0.43230  1.0000 0.077119577
C   C181      1.0  0.14270  0.72248  0.12220  1.0000 -0.1292670792
C   C182      1.0  0.85730  0.22248  0.37780  1.0000 -0.1292670792
C   C183      1.0  0.22660  0.73313  0.09070  1.0000 -0.0884384706
C   C184      1.0  0.77340  0.23313  0.40930  1.0000 -0.0884384706
C   C185      1.0  0.16780  0.74072  0.00410  1.0000 -0.0373887789
C   C186      1.0  0.83220  0.24072  0.49590  1.0000 -0.0373887789
C   C187      1.0  0.02370  0.73652  0.94930  1.0000 -0.1106768279
C   C188      1.0  0.97630  0.23652  0.55070  1.0000 -0.1106768279
C   C189      1.0  0.93950  0.72425  0.98100  1.0000 -0.1488345008
C   C190      1.0  0.06050  0.22425  0.51900  1.0000 -0.1488345008
C   C191      1.0  0.26500  0.75080  0.97370  1.0000 0.5309123949
C   C192      1.0  0.73500  0.25080  0.52630  1.0000 0.5309123949
N   N1        1.0  0.30441  0.37584  0.57441  1.0000 -0.1106768279
N   N2        1.0  0.69559  0.87584  0.92559  1.0000 -0.1003325335
N   N3        1.0  0.43213  0.43659  0.71123  1.0000 -0.1106768279
N   N4        1.0  0.56787  0.93659  0.78877  1.0000 -0.1106768279
N   N5        1.0  0.30449  0.36045  0.72799  1.0000 -0.1003325335
N   N6        1.0  0.69551  0.86045  0.77201  1.0000 -0.0884384706
N   N7        1.0  0.69559  0.62416  0.42559  1.0000 -0.1106768279
N   N8        1.0  0.30441  0.12416  0.07441  1.0000 -0.1003325335
N   N9        1.0  0.56787  0.56341  0.28877  1.0000 -0.1106768279
N   N10       1.0  0.43213  0.06341  0.21123  1.0000 -0.1106768279
N   N11       1.0  0.69551  0.63955  0.27201  1.0000 -0.1003325335
N   N12       1.0  0.30449  0.13955  0.22799  1.0000 -0.0884384706
O   O1        1.0  0.62588  0.36838  0.83538  1.0000 -0.5600452467
O   O2        1.0  0.37412  0.86838  0.66462  1.0000 -0.5600452467
O   O3        1.0  0.82363  0.38716  0.84013  1.0000 -0.5448367341
O   O4        1.0  0.17637  0.88716  0.65987  1.0000 -0.5448367341
O   O5        1.0  0.51919  0.80328  0.80469  1.0000 -0.5600452467
O   O6        1.0  0.48081  0.30328  0.69531  1.0000 -0.5600452467
O   O7        1.0  0.63459  0.37680  0.67789  1.0000 -0.6984032585
O   O8        1.0  0.36541  0.87680  0.82211  1.0000 -0.6984032585
O   O9        1.0  0.36955  0.79021  0.84665  1.0000 -0.5500709637
O   O10       1.0  0.63045  0.29021  0.65335  1.0000 -0.5500709637
O   O11       1.0  0.80000  0.24038  0.10750  1.0000 -0.4728599607
O   O12       1.0  0.20000  0.74038  0.39250  1.0000 -0.4728599607
O   O13       1.0  0.60870  0.24990  0.97960  1.0000 -0.5074524625
O   O14       1.0  0.39130  0.74990  0.52040  1.0000 -0.5074524625
O   O15       1.0  0.37412  0.63162  0.16462  1.0000 -0.5600452467
O   O16       1.0  0.62588  0.13162  0.33538  1.0000 -0.5600452467
O   O17       1.0  0.17637  0.61284  0.15987  1.0000 -0.5448367341
O   O18       1.0  0.82363  0.11284  0.34013  1.0000 -0.5500709637
O   O19       1.0  0.48081  0.19672  0.19531  1.0000 -0.5600452467
O   O20       1.0  0.51919  0.69672  0.30469  1.0000 -0.5600452467
O   O21       1.0  0.36541  0.62320  0.32211  1.0000 -0.6984032585
O   O22       1.0  0.63459  0.12320  0.17789  1.0000 -0.6984032585
O   O23       1.0  0.63045  0.20979  0.15335  1.0000 -0.5500709637
O   O24       1.0  0.36955  0.70979  0.34665  1.0000 -0.5500709637
O   O25       1.0  0.20000  0.75962  0.89250  1.0000 -0.4728599607
O   O26       1.0  0.80000  0.25962  0.60750  1.0000 -0.4728599607
O   O27       1.0  0.39130  0.75010  0.02040  1.0000 -0.5074524625
O   O28       1.0  0.60870  0.25010  0.47960  1.0000 -0.5074524625
