# DDEC6 charges by PACMAN v1.1 (https://github.com/mtap-research/PACMAN-charge/)
data_2024[Cd][sql]2[FSR]2
_chemical_formula_sum              "Cd2 H46 C44 N8 O8"
_cell_length_a       9.7448
_cell_length_b       11.2596
_cell_length_c       14.3683
_cell_angle_alpha    65.3694
_cell_angle_beta     77.2729
_cell_angle_gamma    66.219

_symmetry_space_group_name_H-M    "P 1"
_symmetry_Int_Tables_number       1

loop_
  _symmetry_equiv_pos_as_xyz
  'x, y, z'

loop_
  _atom_site_type_symbol
  _atom_site_label
  _atom_site_symmetry_multiplicity
  _atom_site_fract_x
  _atom_site_fract_y
  _atom_site_fract_z
  _atom_site_occupancy
  _atom_site_charge
Cd  Cd1       1.0  0.33050  0.90764  0.67083  1.0000 0.8031258494
Cd  Cd2       1.0  0.66950  0.09236  0.32917  1.0000 0.8031258494
H   H1        1.0  0.56059  0.01799  0.63089  1.0000 0.258891216
H   H2        1.0  0.43941  0.98201  0.36911  1.0000 0.258891216
H   H3        1.0  0.30163  0.76780  0.88376  1.0000 0.2380398722
H   H4        1.0  0.69837  0.23220  0.11624  1.0000 0.2380398722
H   H5        1.0  0.51799  0.42840  0.67596  1.0000 0.1028708265
H   H6        1.0  0.48201  0.57160  0.32404  1.0000 0.1028708265
H   H7        1.0  0.77769  0.04517  0.58783  1.0000 0.1363958031
H   H8        1.0  0.22231  0.95483  0.41217  1.0000 0.1363958031
H   H9        1.0  0.69565  0.82239  0.58891  1.0000 0.1307861078
H   H10       1.0  0.30435  0.17761  0.41109  1.0000 0.1307861078
H   H11       1.0  0.69846  0.72444  0.70764  1.0000 0.1094775211
H   H12       1.0  0.30154  0.27556  0.29236  1.0000 0.1094775211
H   H13       1.0  0.99812  0.06548  0.59895  1.0000 0.1028708265
H   H14       1.0  0.00188  0.93452  0.40105  1.0000 0.1028708265
H   H15       1.0  0.55386  0.26533  0.60566  1.0000 0.1094775211
H   H16       1.0  0.44614  0.73467  0.39434  1.0000 0.1094775211
H   H17       1.0  0.17317  0.66423  0.75360  1.0000 0.1028708265
H   H18       1.0  0.82683  0.33577  0.24640  1.0000 0.1028708265
H   H19       1.0  0.25704  0.04178  0.85893  1.0000 0.1094775211
H   H20       1.0  0.74296  0.95822  0.14107  1.0000 0.1094775211
H   H21       1.0  0.24030  0.91967  0.96489  1.0000 0.0911253043
H   H22       1.0  0.75970  0.08033  0.03511  1.0000 0.0911253043
H   H23       1.0  0.81456  0.52263  0.40815  1.0000 0.1094775211
H   H24       1.0  0.18544  0.47737  0.59185  1.0000 0.1094775211
H   H25       1.0  0.95725  0.63101  0.74662  1.0000 0.1363958031
H   H26       1.0  0.04275  0.36899  0.25338  1.0000 0.1307861078
H   H27       1.0  0.48727  0.01817  0.78571  1.0000 0.1028708265
H   H28       1.0  0.51273  0.98183  0.21429  1.0000 0.1028708265
H   H29       1.0  0.65302  0.90335  0.80284  1.0000 0.0781888426
H   H30       1.0  0.34698  0.09665  0.19716  1.0000 0.0781888426
H   H31       1.0  0.98271  0.30369  0.49430  1.0000 0.1094775211
H   H32       1.0  0.01729  0.69631  0.50570  1.0000 0.1094775211
H   H33       1.0  0.54659  0.72479  0.85901  1.0000 0.1094775211
H   H34       1.0  0.45341  0.27521  0.14099  1.0000 0.1094775211
H   H35       1.0  0.49392  0.81144  0.93299  1.0000 0.0911253043
H   H36       1.0  0.50608  0.18856  0.06701  1.0000 0.0911253043
H   H37       1.0  0.02534  0.20518  0.79161  1.0000 0.1363958031
H   H38       1.0  0.97466  0.79482  0.20839  1.0000 0.1363958031
H   H39       1.0  0.77545  0.26549  0.76784  1.0000 0.1179341474
H   H40       1.0  0.22455  0.73451  0.23216  1.0000 0.1179341474
H   H41       1.0  0.79775  0.87800  0.92485  1.0000 0.1028708265
H   H42       1.0  0.20225  0.12200  0.07515  1.0000 0.1028708265
H   H43       1.0  0.04864  0.80817  0.94783  1.0000 0.1307861078
H   H44       1.0  0.95136  0.19183  0.05217  1.0000 0.1307861078
H   H45       1.0  0.66509  0.10203  0.83836  1.0000 0.2380398722
H   H46       1.0  0.33491  0.89797  0.16164  1.0000 0.2380398722
C   C1        1.0  0.44860  0.70500  0.58830  1.0000 0.5392485172
C   C2        1.0  0.55140  0.29500  0.41170  1.0000 0.5392485172
C   C3        1.0  0.47780  0.59800  0.54250  1.0000 -0.0178392693
C   C4        1.0  0.52220  0.40200  0.45750  1.0000 -0.0178392693
C   C5        1.0  0.51050  0.45760  0.60440  1.0000 -0.127615537
C   C6        1.0  0.48950  0.54240  0.39560  1.0000 -0.127615537
C   C7        1.0  0.85770  0.96460  0.62230  1.0000 -0.2047257214
C   C8        1.0  0.14230  0.03540  0.37770  1.0000 -0.2047257214
C   C9        1.0  0.84100  0.83440  0.66610  1.0000 0.1532489792
C   C10       1.0  0.15900  0.16560  0.33390  1.0000 0.1532489792
C   C11       1.0  0.69780  0.81790  0.65890  1.0000 -0.1447521388
C   C12       1.0  0.30220  0.18210  0.34110  1.0000 -0.1447521388
C   C13       1.0  0.98960  0.97570  0.62930  1.0000 0.0611353522
C   C14       1.0  0.01040  0.02430  0.37070  1.0000 0.0611353522
C   C15       1.0  0.53210  0.36080  0.56270  1.0000 -0.1169700016
C   C16       1.0  0.46790  0.63920  0.43730  1.0000 -0.1169700016
C   C17       1.0  0.10040  0.36780  0.55100  1.0000 -0.025382129
C   C18       1.0  0.89960  0.63220  0.44900  1.0000 -0.025382129
C   C19       1.0  0.20710  0.22450  0.60830  1.0000 0.5501752407
C   C20       1.0  0.79290  0.77550  0.39170  1.0000 0.5501752407
C   C21       1.0  0.09150  0.74270  0.71900  1.0000 0.0611353522
C   C22       1.0  0.90850  0.25730  0.28100  1.0000 0.0611353522
C   C23       1.0  0.22800  0.95790  0.89030  1.0000 -0.160501772
C   C24       1.0  0.77200  0.04210  0.10970  1.0000 -0.160501772
C   C25       1.0  0.88970  0.51390  0.44540  1.0000 -0.1169700016
C   C26       1.0  0.11030  0.48610  0.55460  1.0000 -0.1169700016
C   C27       1.0  0.96250  0.72200  0.71540  1.0000 -0.2168539205
C   C28       1.0  0.03750  0.27800  0.28460  1.0000 -0.2131827562
C   C29       1.0  0.55120  0.92440  0.78480  1.0000 -0.1169700016
C   C30       1.0  0.44880  0.07560  0.21520  1.0000 -0.1169700016
C   C31       1.0  0.99000  0.38410  0.49660  1.0000 -0.127615537
C   C32       1.0  0.01000  0.61590  0.50340  1.0000 -0.127615537
C   C33       1.0  0.06560  0.99930  0.87290  1.0000 0.1307861078
C   C34       1.0  0.93440  0.00070  0.12710  1.0000 0.1307861078
C   C35       1.0  0.48680  0.81740  0.86340  1.0000 -0.0947047561
C   C36       1.0  0.51320  0.18260  0.13660  1.0000 -0.0947047561
C   C37       1.0  0.98070  0.13550  0.81950  1.0000 -0.2131827562
C   C38       1.0  0.01930  0.86450  0.18050  1.0000 -0.2131827562
C   C39       1.0  0.83090  0.17130  0.80630  1.0000 0.0066615785
C   C40       1.0  0.16910  0.82870  0.19370  1.0000 0.0066615785
C   C41       1.0  0.84450  0.94610  0.89690  1.0000 -0.0036164902
C   C42       1.0  0.15550  0.05390  0.10310  1.0000 -0.0036164902
C   C43       1.0  0.99450  0.90360  0.91130  1.0000 -0.2168539205
C   C44       1.0  0.00550  0.09640  0.08870  1.0000 -0.2168539205
N   N1        1.0  0.10740  0.86660  0.67660  1.0000 -0.25289146
N   N2        1.0  0.89260  0.13340  0.32340  1.0000 -0.25289146
N   N3        1.0  0.55970  0.92460  0.68120  1.0000 -0.310692796
N   N4        1.0  0.44030  0.07540  0.31880  1.0000 -0.310692796
N   N5        1.0  0.32750  0.85420  0.84680  1.0000 -0.310692796
N   N6        1.0  0.67250  0.14580  0.15320  1.0000 -0.310692796
N   N7        1.0  0.76110  0.07770  0.84580  1.0000 -0.1853805422
N   N8        1.0  0.23890  0.92230  0.15420  1.0000 -0.1853805422
O   O1        1.0  0.41870  0.83090  0.53030  1.0000 -0.5549664586
O   O2        1.0  0.58130  0.16910  0.46970  1.0000 -0.5554677337
O   O3        1.0  0.45080  0.66520  0.68500  1.0000 -0.5938551216
O   O4        1.0  0.54920  0.33480  0.31500  1.0000 -0.5938551216
O   O5        1.0  0.21020  0.12790  0.58180  1.0000 -0.5732936948
O   O6        1.0  0.78980  0.87210  0.41820  1.0000 -0.5732936948
O   O7        1.0  0.28240  0.20760  0.67510  1.0000 -0.5732936948
O   O8        1.0  0.71760  0.79240  0.32490  1.0000 -0.5732936948
