# DDEC6 charges by PACMAN v1.1 (https://github.com/mtap-research/PACMAN-charge/)
data_2024[Co][sql]2[FSR]5
_chemical_formula_sum              "Co2 H28 C32 N8 O12"
_cell_length_a       6.5965
_cell_length_b       18.185
_cell_length_c       12.3081
_cell_angle_alpha    90
_cell_angle_beta     118.399
_cell_angle_gamma    90

_symmetry_space_group_name_H-M    "P 1"
_symmetry_Int_Tables_number       1

loop_
  _symmetry_equiv_pos_as_xyz
  'x, y, z'

loop_
  _atom_site_type_symbol
  _atom_site_label
  _atom_site_symmetry_multiplicity
  _atom_site_fract_x
  _atom_site_fract_y
  _atom_site_fract_z
  _atom_site_occupancy
  _atom_site_charge
Co  Co1       1.0  0.00000  0.00000  0.00000  1.0000 0.8771515414
Co  Co2       1.0  0.00000  0.50000  0.50000  1.0000 0.8771515414
H   H1        1.0  0.67280  0.86780  0.79410  1.0000 0.1244182661
H   H2        1.0  0.32720  0.36780  0.70590  1.0000 0.1244182661
H   H3        1.0  0.32720  0.13220  0.20590  1.0000 0.1276916787
H   H4        1.0  0.67280  0.63220  0.29410  1.0000 0.1276916787
H   H5        1.0  0.48340  0.75950  0.91140  1.0000 0.1392334178
H   H6        1.0  0.51660  0.25950  0.58860  1.0000 0.1392334178
H   H7        1.0  0.51660  0.24050  0.08860  1.0000 0.1392334178
H   H8        1.0  0.48340  0.74050  0.41140  1.0000 0.1392334178
H   H9        1.0  0.67370  0.72800  0.67240  1.0000 0.1276916787
H   H10       1.0  0.32630  0.22800  0.82760  1.0000 0.1276916787
H   H11       1.0  0.32630  0.27200  0.32760  1.0000 0.1276916787
H   H12       1.0  0.67370  0.77200  0.17240  1.0000 0.1276916787
H   H13       1.0  0.32760  0.65830  0.78180  1.0000 0.1276916787
H   H14       1.0  0.67240  0.15830  0.71820  1.0000 0.1276916787
H   H15       1.0  0.67240  0.34170  0.21820  1.0000 0.1276916787
H   H16       1.0  0.32760  0.84170  0.28180  1.0000 0.1276916787
H   H17       1.0  0.33870  0.88650  0.98150  1.0000 0.2940590903
H   H18       1.0  0.66130  0.38650  0.51850  1.0000 0.2940590903
H   H19       1.0  0.66130  0.11350  0.01850  1.0000 0.2940590903
H   H20       1.0  0.33870  0.61350  0.48150  1.0000 0.2940590903
H   H21       1.0  0.44600  0.00800  0.14900  1.0000 0.309573023
H   H22       1.0  0.55400  0.50800  0.35100  1.0000 0.309573023
H   H23       1.0  0.55400  0.99200  0.85100  1.0000 0.309573023
H   H24       1.0  0.44600  0.49200  0.64900  1.0000 0.309573023
H   H25       1.0  0.38100  0.03600  0.03800  1.0000 0.3151962683
H   H26       1.0  0.61900  0.53600  0.46200  1.0000 0.3151962683
H   H27       1.0  0.61900  0.96400  0.96200  1.0000 0.309573023
H   H28       1.0  0.38100  0.46400  0.53800  1.0000 0.3151962683
C   C1        1.0  0.83280  0.85813  0.82670  1.0000 -0.0406318605
C   C2        1.0  0.16720  0.35813  0.67330  1.0000 -0.0406318605
C   C3        1.0  0.16720  0.14187  0.17330  1.0000 -0.0406318605
C   C4        1.0  0.83280  0.64187  0.32670  1.0000 -0.0406318605
C   C5        1.0  0.92580  0.79571  0.79730  1.0000 0.001514038
C   C6        1.0  0.07420  0.29571  0.70270  1.0000 0.001514038
C   C7        1.0  0.07420  0.20429  0.20270  1.0000 0.001514038
C   C8        1.0  0.92580  0.70429  0.29730  1.0000 0.001514038
C   C9        1.0  0.16640  0.80454  0.86730  1.0000 0.1475106403
C   C10       1.0  0.83360  0.30454  0.63270  1.0000 0.1475106403
C   C11       1.0  0.83360  0.19546  0.13270  1.0000 0.1475106403
C   C12       1.0  0.16640  0.69546  0.36730  1.0000 0.1475106403
C   C13       1.0  0.32140  0.75341  0.86350  1.0000 -0.179290982
C   C14       1.0  0.67860  0.25341  0.63650  1.0000 -0.179290982
C   C15       1.0  0.67860  0.24659  0.13650  1.0000 -0.179290982
C   C16       1.0  0.32140  0.74659  0.36350  1.0000 -0.179290982
C   C17       1.0  0.83560  0.73444  0.72030  1.0000 -0.1557469442
C   C18       1.0  0.16440  0.23444  0.77970  1.0000 -0.1557469442
C   C19       1.0  0.16440  0.26556  0.27970  1.0000 -0.1557469442
C   C20       1.0  0.83560  0.76556  0.22030  1.0000 -0.1557469442
C   C21       1.0  0.22730  0.69394  0.78700  1.0000 -0.1041019633
C   C22       1.0  0.77270  0.19394  0.71300  1.0000 -0.1041019633
C   C23       1.0  0.77270  0.30606  0.21300  1.0000 -0.1041019633
C   C24       1.0  0.22730  0.80606  0.28700  1.0000 -0.1041019633
C   C25       1.0  0.98530  0.68376  0.71520  1.0000 -0.0259513948
C   C26       1.0  0.01470  0.18376  0.78480  1.0000 -0.0259513948
C   C27       1.0  0.01470  0.31624  0.28480  1.0000 -0.0259513948
C   C28       1.0  0.98530  0.81624  0.21520  1.0000 -0.0259513948
C   C29       1.0  0.89120  0.61808  0.63190  1.0000 0.5758427903
C   C30       1.0  0.10880  0.11808  0.86810  1.0000 0.5758427903
C   C31       1.0  0.10880  0.38192  0.36810  1.0000 0.5758427903
C   C32       1.0  0.89120  0.88192  0.13190  1.0000 0.5758427903
N   N1        1.0  0.20200  0.86852  0.93080  1.0000 -0.133650925
N   N2        1.0  0.79800  0.36852  0.56920  1.0000 -0.133650925
N   N3        1.0  0.79800  0.13148  0.06920  1.0000 -0.133650925
N   N4        1.0  0.20200  0.63148  0.43080  1.0000 -0.133650925
N   N5        1.0  0.99920  0.90113  0.90580  1.0000 -0.179290982
N   N6        1.0  0.00080  0.40113  0.59420  1.0000 -0.179290982
N   N7        1.0  0.00080  0.09887  0.09420  1.0000 -0.179290982
N   N8        1.0  0.99920  0.59887  0.40580  1.0000 -0.179290982
O   O1        1.0  0.03120  0.56703  0.64440  1.0000 -0.5632606521
O   O2        1.0  0.96880  0.06703  0.85560  1.0000 -0.5632606521
O   O3        1.0  0.96880  0.43297  0.35560  1.0000 -0.5632606521
O   O4        1.0  0.03120  0.93297  0.14440  1.0000 -0.5632606521
O   O5        1.0  0.68140  0.61850  0.55420  1.0000 -0.5665165409
O   O6        1.0  0.31860  0.11850  0.94580  1.0000 -0.5665165409
O   O7        1.0  0.31860  0.38150  0.44580  1.0000 -0.5665165409
O   O8        1.0  0.68140  0.88150  0.05420  1.0000 -0.5665165409
O   O9        1.0  0.35990  0.99935  0.07620  1.0000 -0.6530953124
O   O10       1.0  0.64010  0.49935  0.42380  1.0000 -0.6530953124
O   O11       1.0  0.64010  0.00065  0.92380  1.0000 -0.6530953124
O   O12       1.0  0.35990  0.50065  0.57620  1.0000 -0.6530953124
