# DDEC6 charges by PACMAN v1.1 (https://github.com/mtap-research/PACMAN-charge/)
data_1983[In][qtz]3[ION]1
_chemical_formula_sum              "In3 H12 C12 N3 O24"
_cell_length_a       9.025
_cell_length_b       9.025
_cell_length_c       11.343
_cell_angle_alpha    90
_cell_angle_beta     90
_cell_angle_gamma    120

_symmetry_space_group_name_H-M    "P 1"
_symmetry_Int_Tables_number       1

loop_
  _symmetry_equiv_pos_as_xyz
  'x, y, z'

loop_
  _atom_site_type_symbol
  _atom_site_label
  _atom_site_symmetry_multiplicity
  _atom_site_fract_x
  _atom_site_fract_y
  _atom_site_fract_z
  _atom_site_occupancy
  _atom_site_charge
In  In1       1.0  0.50000  0.50000  0.33333  1.0000 1.3789985655
In  In2       1.0  0.50000  0.00000  0.00000  1.0000 1.3789985655
In  In3       1.0  0.00000  0.50000  0.66667  1.0000 1.3789985655
H   H1        1.0  0.97210  0.89580  0.28073  1.0000 0.3295750422
H   H2        1.0  0.89580  0.97210  0.38593  1.0000 0.3295750422
H   H3        1.0  0.02790  0.10420  0.28073  1.0000 0.3295750422
H   H4        1.0  0.10420  0.02790  0.38593  1.0000 0.3295750422
H   H5        1.0  0.92370  0.02790  0.61407  1.0000 0.3295750422
H   H6        1.0  0.07630  0.10420  0.71927  1.0000 0.3295750422
H   H7        1.0  0.07630  0.97210  0.61407  1.0000 0.3295750422
H   H8        1.0  0.92370  0.89580  0.71927  1.0000 0.3295750422
H   H9        1.0  0.10420  0.07630  0.94740  1.0000 0.3295750422
H   H10       1.0  0.02790  0.92370  0.05260  1.0000 0.3295750422
H   H11       1.0  0.89580  0.92370  0.94740  1.0000 0.3295750422
H   H12       1.0  0.97210  0.07630  0.05260  1.0000 0.3295750422
C   C1        1.0  0.21095  0.42190  0.50000  1.0000 0.4528025118
C   C2        1.0  0.57810  0.78905  0.16667  1.0000 0.4528025118
C   C3        1.0  0.21095  0.78905  0.83333  1.0000 0.4528025118
C   C4        1.0  0.42190  0.21095  0.16667  1.0000 0.4528025118
C   C5        1.0  0.78905  0.57810  0.50000  1.0000 0.4528025118
C   C6        1.0  0.78905  0.21095  0.83333  1.0000 0.4528025118
C   C7        1.0  0.30975  0.61950  0.50000  1.0000 0.4754640587
C   C8        1.0  0.38050  0.69025  0.16667  1.0000 0.4754640587
C   C9        1.0  0.30975  0.69025  0.83333  1.0000 0.4754640587
C   C10       1.0  0.61950  0.30975  0.16667  1.0000 0.4754640587
C   C11       1.0  0.69025  0.38050  0.50000  1.0000 0.4754640587
C   C12       1.0  0.69025  0.30975  0.83333  1.0000 0.4754640587
N   N1        1.0  0.00000  0.00000  0.33333  1.0000 -0.7416387521
N   N2        1.0  0.00000  0.00000  0.66667  1.0000 -0.7416387521
N   N3        1.0  0.00000  0.00000  0.00000  1.0000 -0.7416387521
O   O1        1.0  0.26810  0.34680  0.43860  1.0000 -0.4636357747
O   O2        1.0  0.65320  0.92130  0.10527  1.0000 -0.4636357747
O   O3        1.0  0.07870  0.73190  0.77193  1.0000 -0.4636357747
O   O4        1.0  0.34680  0.26810  0.22807  1.0000 -0.4636357747
O   O5        1.0  0.92130  0.65320  0.56140  1.0000 -0.4636357747
O   O6        1.0  0.73190  0.07870  0.89473  1.0000 -0.4636357747
O   O7        1.0  0.73190  0.65320  0.43860  1.0000 -0.4636357747
O   O8        1.0  0.34680  0.07870  0.10527  1.0000 -0.4636357747
O   O9        1.0  0.92130  0.26810  0.77193  1.0000 -0.4636357747
O   O10       1.0  0.65320  0.73190  0.22807  1.0000 -0.4636357747
O   O11       1.0  0.07870  0.34680  0.56140  1.0000 -0.4636357747
O   O12       1.0  0.26810  0.92130  0.89473  1.0000 -0.4636357747
O   O13       1.0  0.44690  0.68830  0.44460  1.0000 -0.4894125062
O   O14       1.0  0.31170  0.75860  0.11127  1.0000 -0.4894125062
O   O15       1.0  0.24140  0.55310  0.77793  1.0000 -0.4894125062
O   O16       1.0  0.68830  0.44690  0.22207  1.0000 -0.4894125062
O   O17       1.0  0.75860  0.31170  0.55540  1.0000 -0.4894125062
O   O18       1.0  0.55310  0.24140  0.88873  1.0000 -0.4894125062
O   O19       1.0  0.55310  0.31170  0.44460  1.0000 -0.4894125062
O   O20       1.0  0.68830  0.24140  0.11127  1.0000 -0.4894125062
O   O21       1.0  0.75860  0.44690  0.77793  1.0000 -0.4894125062
O   O22       1.0  0.31170  0.55310  0.22207  1.0000 -0.4894125062
O   O23       1.0  0.24140  0.68830  0.55540  1.0000 -0.4894125062
O   O24       1.0  0.44690  0.75860  0.88873  1.0000 -0.4894125062
