# DDEC6 charges by PACMAN v1.1 (https://github.com/mtap-research/PACMAN-charge/)
data_1993[Ti][qtz]3[ION]1
_chemical_formula_sum              "Ti3 H12 C12 N3 O24"
_cell_length_a       8.935
_cell_length_b       8.935
_cell_length_c       10.878
_cell_angle_alpha    90
_cell_angle_beta     90
_cell_angle_gamma    120

_symmetry_space_group_name_H-M    "P 1"
_symmetry_Int_Tables_number       1

loop_
  _symmetry_equiv_pos_as_xyz
  'x, y, z'

loop_
  _atom_site_type_symbol
  _atom_site_label
  _atom_site_symmetry_multiplicity
  _atom_site_fract_x
  _atom_site_fract_y
  _atom_site_fract_z
  _atom_site_occupancy
  _atom_site_charge
Ti  Ti1       1.0  0.50000  0.50000  0.33333  1.0000 1.7236063304
Ti  Ti2       1.0  0.00000  0.50000  0.66667  1.0000 1.7256688299
Ti  Ti3       1.0  0.50000  0.00000  0.00000  1.0000 1.7256688299
H   H1        1.0  0.91850  0.02820  0.61607  1.0000 0.3246489885
H   H2        1.0  0.91850  0.89030  0.71727  1.0000 0.3246489885
H   H3        1.0  0.08150  0.97180  0.61607  1.0000 0.3254260542
H   H4        1.0  0.08150  0.10970  0.71727  1.0000 0.3254260542
H   H5        1.0  0.89030  0.97180  0.38393  1.0000 0.3254260542
H   H6        1.0  0.97180  0.89030  0.28273  1.0000 0.3246489885
H   H7        1.0  0.10970  0.02820  0.38393  1.0000 0.3246489885
H   H8        1.0  0.02820  0.10970  0.28273  1.0000 0.3254260542
H   H9        1.0  0.97180  0.08150  0.05060  1.0000 0.3246489885
H   H10       1.0  0.89030  0.91850  0.94940  1.0000 0.3246489885
H   H11       1.0  0.02820  0.91850  0.05060  1.0000 0.3254260542
H   H12       1.0  0.10970  0.08150  0.94940  1.0000 0.3246489885
C   C1        1.0  0.69200  0.38400  0.50000  1.0000 0.4897434535
C   C2        1.0  0.30800  0.69200  0.83333  1.0000 0.4897434535
C   C3        1.0  0.61600  0.30800  0.16667  1.0000 0.4897434535
C   C4        1.0  0.30800  0.61600  0.50000  1.0000 0.4897434535
C   C5        1.0  0.69200  0.30800  0.83333  1.0000 0.4897434535
C   C6        1.0  0.38400  0.69200  0.16667  1.0000 0.4897434535
C   C7        1.0  0.78955  0.57910  0.50000  1.0000 0.4897434535
C   C8        1.0  0.21045  0.78955  0.83333  1.0000 0.4897434535
C   C9        1.0  0.42090  0.21045  0.16667  1.0000 0.4897434535
C   C10       1.0  0.21045  0.42090  0.50000  1.0000 0.4897434535
C   C11       1.0  0.78955  0.21045  0.83333  1.0000 0.4897434535
C   C12       1.0  0.57910  0.78955  0.16667  1.0000 0.4897434535
N   N1        1.0  0.00000  0.00000  0.66667  1.0000 -0.7431604443
N   N2        1.0  0.00000  0.00000  0.33333  1.0000 -0.7431604443
N   N3        1.0  0.00000  0.00000  0.00000  1.0000 -0.7431604443
O   O1        1.0  0.55110  0.31400  0.44300  1.0000 -0.5300857204
O   O2        1.0  0.23710  0.55110  0.77633  1.0000 -0.5300857204
O   O3        1.0  0.68600  0.44890  0.22367  1.0000 -0.5300857204
O   O4        1.0  0.68600  0.23710  0.10967  1.0000 -0.5300857204
O   O5        1.0  0.23710  0.68600  0.55700  1.0000 -0.5300857204
O   O6        1.0  0.44890  0.68600  0.44300  1.0000 -0.5300857204
O   O7        1.0  0.55110  0.23710  0.89033  1.0000 -0.5300857204
O   O8        1.0  0.76290  0.44890  0.77633  1.0000 -0.5300857204
O   O9        1.0  0.31400  0.55110  0.22367  1.0000 -0.5300857204
O   O10       1.0  0.31400  0.76290  0.10967  1.0000 -0.5300857204
O   O11       1.0  0.76290  0.31400  0.55700  1.0000 -0.5300857204
O   O12       1.0  0.44890  0.76290  0.89033  1.0000 -0.5300857204
O   O13       1.0  0.92320  0.65050  0.56280  1.0000 -0.5300857204
O   O14       1.0  0.27270  0.92320  0.89613  1.0000 -0.5300857204
O   O15       1.0  0.34950  0.07680  0.10387  1.0000 -0.5300857204
O   O16       1.0  0.34950  0.27270  0.22947  1.0000 -0.5300857204
O   O17       1.0  0.27270  0.34950  0.43720  1.0000 -0.5300857204
O   O18       1.0  0.07680  0.34950  0.56280  1.0000 -0.5300857204
O   O19       1.0  0.92320  0.27270  0.77053  1.0000 -0.5300857204
O   O20       1.0  0.72730  0.07680  0.89613  1.0000 -0.5300857204
O   O21       1.0  0.65050  0.92320  0.10387  1.0000 -0.5300857204
O   O22       1.0  0.65050  0.72730  0.22947  1.0000 -0.5300857204
O   O23       1.0  0.72730  0.65050  0.43720  1.0000 -0.5300857204
O   O24       1.0  0.07680  0.72730  0.77053  1.0000 -0.5300857204
