# DDEC6 charges by PACMAN v1.1 (https://github.com/mtap-research/PACMAN-charge/)
data_1995[Ag][nan]3[ION]1
_chemical_formula_sum              "Ag6 H90 C202 S4 N18 O12 F12"
_cell_length_a       11.592
_cell_length_b       19.0992
_cell_length_c       38.7481
_cell_angle_alpha    90
_cell_angle_beta     90
_cell_angle_gamma    90

_symmetry_space_group_name_H-M    "P 1"
_symmetry_Int_Tables_number       1

loop_
  _symmetry_equiv_pos_as_xyz
  'x, y, z'

loop_
  _atom_site_type_symbol
  _atom_site_label
  _atom_site_symmetry_multiplicity
  _atom_site_fract_x
  _atom_site_fract_y
  _atom_site_fract_z
  _atom_site_occupancy
  _atom_site_charge
Ag  Ag1       1.0  0.20060  0.53410  0.25660  1.0000 0.5927777732
Ag  Ag2       1.0  0.79940  0.46590  0.25660  1.0000 0.5927777732
Ag  Ag3       1.0  0.70060  0.96590  0.75660  1.0000 0.5927777732
Ag  Ag4       1.0  0.29940  0.03410  0.75660  1.0000 0.5927777732
Ag  Ag5       1.0  0.50000  0.50000  0.29000  1.0000 0.5344507242
Ag  Ag6       1.0  0.00000  0.00000  0.79000  1.0000 0.5344507242
H   H1        1.0  0.57410  0.09890  0.45770  1.0000 0.12980998
H   H2        1.0  0.42410  0.29860  0.39750  1.0000 0.1206379295
H   H3        1.0  0.34050  0.39030  0.36420  1.0000 0.1206379295
H   H4        1.0  0.38160  0.27520  0.28160  1.0000 0.1358216047
H   H5        1.0  0.45930  0.18700  0.31380  1.0000 0.12980998
H   H6        1.0  0.65360  0.02630  0.36360  1.0000 0.12980998
H   H7        1.0  0.85910  0.86250  0.30380  1.0000 0.1206379295
H   H8        1.0  0.94550  0.76440  0.26970  1.0000 0.12980998
H   H9        1.0  0.97620  0.65600  0.36250  1.0000 0.1206379295
H   H10       1.0  0.87800  0.74420  0.38980  1.0000 0.12980998
H   H11       1.0  0.75040  0.91940  0.44910  1.0000 0.12980998
H   H12       1.0  0.71350  0.89820  0.56730  1.0000 0.1358216047
H   H13       1.0  0.74580  0.89790  0.62650  1.0000 0.1464481075
H   H14       1.0  0.62050  0.09260  0.62840  1.0000 0.12980998
H   H15       1.0  0.59860  0.09260  0.57150  1.0000 0.1358216047
H   H16       1.0  0.21100  0.72560  0.42940  1.0000 0.1206379295
H   H17       1.0  0.30750  0.62700  0.40510  1.0000 0.1206379295
H   H18       1.0  0.27080  0.71820  0.31170  1.0000 0.1206379295
H   H19       1.0  0.18090  0.82260  0.33920  1.0000 0.1206379295
H   H20       1.0  0.07000  0.90300  0.48620  1.0000 0.1358216047
H   H21       1.0  0.03810  0.89410  0.66360  1.0000 0.1206379295
H   H22       1.0  0.03970  0.89990  0.60360  1.0000 0.1206379295
H   H23       1.0  0.42590  0.90110  0.45770  1.0000 0.12980998
H   H24       1.0  0.57590  0.70140  0.39750  1.0000 0.1206379295
H   H25       1.0  0.65950  0.60970  0.36420  1.0000 0.1206379295
H   H26       1.0  0.61840  0.72480  0.28160  1.0000 0.12980998
H   H27       1.0  0.54070  0.81300  0.31380  1.0000 0.12980998
H   H28       1.0  0.34640  0.97370  0.36360  1.0000 0.12980998
H   H29       1.0  0.14090  0.13750  0.30380  1.0000 0.1206379295
H   H30       1.0  0.05450  0.23560  0.26970  1.0000 0.12980998
H   H31       1.0  0.02380  0.34400  0.36250  1.0000 0.1206379295
H   H32       1.0  0.12200  0.25580  0.38980  1.0000 0.12980998
H   H33       1.0  0.24960  0.08060  0.44910  1.0000 0.12980998
H   H34       1.0  0.28650  0.10180  0.56730  1.0000 0.1358216047
H   H35       1.0  0.25420  0.10210  0.62650  1.0000 0.1464481075
H   H36       1.0  0.37950  0.90740  0.62840  1.0000 0.12980998
H   H37       1.0  0.40140  0.90740  0.57150  1.0000 0.1358216047
H   H38       1.0  0.78900  0.27440  0.42940  1.0000 0.1206379295
H   H39       1.0  0.69250  0.37300  0.40510  1.0000 0.1206379295
H   H40       1.0  0.72920  0.28180  0.31170  1.0000 0.1206379295
H   H41       1.0  0.81910  0.17740  0.33920  1.0000 0.1206379295
H   H42       1.0  0.93000  0.09700  0.48620  1.0000 0.1358216047
H   H43       1.0  0.96190  0.10590  0.66360  1.0000 0.1206379295
H   H44       1.0  0.96030  0.10010  0.60360  1.0000 0.1206379295
H   H45       1.0  0.07410  0.40110  0.95770  1.0000 0.12980998
H   H46       1.0  0.92410  0.20140  0.89750  1.0000 0.1206379295
H   H47       1.0  0.84050  0.10970  0.86420  1.0000 0.1206379295
H   H48       1.0  0.88160  0.22480  0.78160  1.0000 0.1358216047
H   H49       1.0  0.95930  0.31300  0.81380  1.0000 0.12980998
H   H50       1.0  0.15360  0.47370  0.86360  1.0000 0.12980998
H   H51       1.0  0.35910  0.63750  0.80380  1.0000 0.1206379295
H   H52       1.0  0.44550  0.73560  0.76970  1.0000 0.12980998
H   H53       1.0  0.47620  0.84400  0.86250  1.0000 0.1206379295
H   H54       1.0  0.37800  0.75580  0.88980  1.0000 0.12980998
H   H55       1.0  0.25040  0.58060  0.94910  1.0000 0.12980998
H   H56       1.0  0.21350  0.60180  0.06730  1.0000 0.12980998
H   H57       1.0  0.24580  0.60210  0.12650  1.0000 0.1464481075
H   H58       1.0  0.12050  0.40740  0.12840  1.0000 0.12980998
H   H59       1.0  0.09860  0.40740  0.07150  1.0000 0.1358216047
H   H60       1.0  0.71100  0.77440  0.92940  1.0000 0.1206379295
H   H61       1.0  0.80750  0.87300  0.90510  1.0000 0.1206379295
H   H62       1.0  0.77080  0.78180  0.81170  1.0000 0.1206379295
H   H63       1.0  0.68090  0.67740  0.83920  1.0000 0.1206379295
H   H64       1.0  0.57000  0.59700  0.98620  1.0000 0.1358216047
H   H65       1.0  0.53810  0.60590  0.16360  1.0000 0.1206379295
H   H66       1.0  0.53970  0.60010  0.10360  1.0000 0.1206379295
H   H67       1.0  0.92590  0.59890  0.95770  1.0000 0.12980998
H   H68       1.0  0.07590  0.79860  0.89750  1.0000 0.1206379295
H   H69       1.0  0.15950  0.89030  0.86420  1.0000 0.1206379295
H   H70       1.0  0.11840  0.77520  0.78160  1.0000 0.1358216047
H   H71       1.0  0.04070  0.68700  0.81380  1.0000 0.12980998
H   H72       1.0  0.84640  0.52630  0.86360  1.0000 0.12980998
H   H73       1.0  0.64090  0.36250  0.80380  1.0000 0.1206379295
H   H74       1.0  0.55450  0.26440  0.76970  1.0000 0.12980998
H   H75       1.0  0.52380  0.15600  0.86250  1.0000 0.1206379295
H   H76       1.0  0.62200  0.24420  0.88980  1.0000 0.12980998
H   H77       1.0  0.74960  0.41940  0.94910  1.0000 0.12980998
H   H78       1.0  0.78650  0.39820  0.06730  1.0000 0.12980998
H   H79       1.0  0.75420  0.39790  0.12650  1.0000 0.1464481075
H   H80       1.0  0.87950  0.59260  0.12840  1.0000 0.12980998
H   H81       1.0  0.90140  0.59260  0.07150  1.0000 0.1358216047
H   H82       1.0  0.28900  0.22560  0.92940  1.0000 0.1206379295
H   H83       1.0  0.19250  0.12700  0.90510  1.0000 0.1206379295
H   H84       1.0  0.22920  0.21820  0.81170  1.0000 0.1206379295
H   H85       1.0  0.31910  0.32260  0.83920  1.0000 0.1206379295
H   H86       1.0  0.43000  0.40300  0.98620  1.0000 0.1358216047
H   H87       1.0  0.46190  0.39410  0.16360  1.0000 0.1206379295
H   H88       1.0  0.46030  0.39990  0.10360  1.0000 0.1206379295
H   H89       1.0  0.00000  0.00000  0.39530  1.0000 0.1358216047
H   H90       1.0  0.50000  0.50000  0.89530  1.0000 0.1358216047
C   C1        1.0  0.31060  0.77500  0.23260  1.0000 0.4470580662
C   C2        1.0  0.60750  0.06440  0.44400  1.0000 -0.1622674694
C   C3        1.0  0.60180  0.07250  0.40910  1.0000 0.1358216047
C   C4        1.0  0.54580  0.12830  0.39020  1.0000 -0.1091491809
C   C5        1.0  0.49980  0.17870  0.37400  1.0000 -0.1014028885
C   C6        1.0  0.44590  0.23270  0.35770  1.0000 0.096429489
C   C7        1.0  0.41420  0.29350  0.37390  1.0000 -0.1408555972
C   C8        1.0  0.36560  0.34910  0.35390  1.0000 -0.1216517201
C   C9        1.0  0.35800  0.33930  0.32000  1.0000 0.029945108
C   C10       1.0  0.30190  0.39570  0.30320  1.0000 0.2665115217
C   C11       1.0  0.38980  0.28080  0.30530  1.0000 -0.0901991321
C   C12       1.0  0.43530  0.22780  0.32480  1.0000 -0.1216517201
C   C13       1.0  0.65640  0.02120  0.38750  1.0000 -0.1809818899
C   C14       1.0  0.71610  0.96110  0.40240  1.0000 0.1206379295
C   C15       1.0  0.77050  0.91090  0.38230  1.0000 -0.1014028885
C   C16       1.0  0.81800  0.86730  0.36640  1.0000 -0.0901991321
C   C17       1.0  0.86710  0.80760  0.34960  1.0000 0.1206379295
C   C18       1.0  0.88100  0.82040  0.31400  1.0000 -0.1408555972
C   C19       1.0  0.93340  0.76150  0.29340  1.0000 -0.1216517201
C   C20       1.0  0.96490  0.69720  0.31430  1.0000 0.0468865627
C   C21       1.0  0.02650  0.63920  0.29580  1.0000 0.3406608658
C   C22       1.0  0.94970  0.69430  0.35010  1.0000 -0.150011093
C   C23       1.0  0.89560  0.74840  0.36650  1.0000 -0.1216517201
C   C24       1.0  0.71440  0.95710  0.43840  1.0000 -0.1872886387
C   C25       1.0  0.65830  0.01000  0.46000  1.0000 0.1206379295
C   C26       1.0  0.66400  0.00490  0.49490  1.0000 -0.1014028885
C   C27       1.0  0.66770  0.99950  0.52580  1.0000 -0.1014028885
C   C28       1.0  0.67180  0.99640  0.56390  1.0000 0.12980998
C   C29       1.0  0.70070  0.93870  0.58010  1.0000 -0.1297819417
C   C30       1.0  0.71280  0.93630  0.61560  1.0000 -0.1216517201
C   C31       1.0  0.67320  0.99420  0.63450  1.0000 0.0694845462
C   C32       1.0  0.67450  0.99070  0.67570  1.0000 0.3406608658
C   C33       1.0  0.63890  0.05230  0.61610  1.0000 -0.1408555972
C   C34       1.0  0.63070  0.05420  0.58270  1.0000 -0.1216517201
C   C35       1.0  0.03960  0.94500  0.43650  1.0000 0.12980998
C   C36       1.0  0.08770  0.88560  0.41890  1.0000 -0.0901991321
C   C37       1.0  0.12740  0.83530  0.40370  1.0000 -0.1091491809
C   C38       1.0  0.18600  0.78230  0.38810  1.0000 0.110297657
C   C39       1.0  0.22350  0.72540  0.40570  1.0000 -0.1216517201
C   C40       1.0  0.28130  0.66400  0.39160  1.0000 -0.1297819417
C   C41       1.0  0.29320  0.66680  0.35570  1.0000 0.029945108
C   C42       1.0  0.34980  0.61340  0.33580  1.0000 0.3038526321
C   C43       1.0  0.25980  0.72010  0.33550  1.0000 -0.1014028885
C   C44       1.0  0.20310  0.78410  0.35220  1.0000 -0.0901991321
C   C45       1.0  0.04190  0.94190  0.47450  1.0000 -0.171605677
C   C46       1.0  0.02400  0.93460  0.65090  1.0000 -0.1091491809
C   C47       1.0  0.02300  0.94050  0.61580  1.0000 -0.171605677
C   C48       1.0  0.68940  0.22500  0.23260  1.0000 0.4470580662
C   C49       1.0  0.39250  0.93560  0.44400  1.0000 -0.1622674694
C   C50       1.0  0.39820  0.92750  0.40910  1.0000 0.1358216047
C   C51       1.0  0.45420  0.87170  0.39020  1.0000 -0.1091491809
C   C52       1.0  0.50020  0.82130  0.37400  1.0000 -0.1014028885
C   C53       1.0  0.55410  0.76730  0.35770  1.0000 0.096429489
C   C54       1.0  0.58580  0.70650  0.37390  1.0000 -0.1408555972
C   C55       1.0  0.63440  0.65090  0.35390  1.0000 -0.1216517201
C   C56       1.0  0.64200  0.66070  0.32000  1.0000 0.029945108
C   C57       1.0  0.69810  0.60430  0.30320  1.0000 0.2665115217
C   C58       1.0  0.61020  0.71920  0.30530  1.0000 -0.0901991321
C   C59       1.0  0.56470  0.77220  0.32480  1.0000 -0.1216517201
C   C60       1.0  0.34360  0.97880  0.38750  1.0000 -0.1809818899
C   C61       1.0  0.28390  0.03890  0.40240  1.0000 0.1206379295
C   C62       1.0  0.22950  0.08910  0.38230  1.0000 -0.1014028885
C   C63       1.0  0.18200  0.13270  0.36640  1.0000 -0.0901991321
C   C64       1.0  0.13290  0.19240  0.34960  1.0000 0.1206379295
C   C65       1.0  0.11900  0.17960  0.31400  1.0000 -0.1408555972
C   C66       1.0  0.06660  0.23850  0.29340  1.0000 -0.1297819417
C   C67       1.0  0.03510  0.30280  0.31430  1.0000 0.0468865627
C   C68       1.0  0.97350  0.36080  0.29580  1.0000 0.3406608658
C   C69       1.0  0.05030  0.30570  0.35010  1.0000 -0.150011093
C   C70       1.0  0.10440  0.25160  0.36650  1.0000 -0.1216517201
C   C71       1.0  0.28560  0.04290  0.43840  1.0000 -0.1872886387
C   C72       1.0  0.34170  0.99000  0.46000  1.0000 0.1206379295
C   C73       1.0  0.33600  0.99510  0.49490  1.0000 -0.1014028885
C   C74       1.0  0.33230  0.00050  0.52580  1.0000 -0.1014028885
C   C75       1.0  0.32820  0.00360  0.56390  1.0000 0.12980998
C   C76       1.0  0.29930  0.06130  0.58010  1.0000 -0.1297819417
C   C77       1.0  0.28720  0.06370  0.61560  1.0000 -0.1216517201
C   C78       1.0  0.32680  0.00580  0.63450  1.0000 0.0694845462
C   C79       1.0  0.32550  0.00930  0.67570  1.0000 0.3406608658
C   C80       1.0  0.36110  0.94770  0.61610  1.0000 -0.1408555972
C   C81       1.0  0.36930  0.94580  0.58270  1.0000 -0.1216517201
C   C82       1.0  0.96040  0.05500  0.43650  1.0000 0.12980998
C   C83       1.0  0.91230  0.11440  0.41890  1.0000 -0.0901991321
C   C84       1.0  0.87260  0.16470  0.40370  1.0000 -0.1014028885
C   C85       1.0  0.81400  0.21770  0.38810  1.0000 0.110297657
C   C86       1.0  0.77650  0.27460  0.40570  1.0000 -0.1216517201
C   C87       1.0  0.71870  0.33600  0.39160  1.0000 -0.1297819417
C   C88       1.0  0.70680  0.33320  0.35570  1.0000 0.029945108
C   C89       1.0  0.65020  0.38660  0.33580  1.0000 0.3038526321
C   C90       1.0  0.74020  0.27990  0.33550  1.0000 -0.1014028885
C   C91       1.0  0.79690  0.21590  0.35220  1.0000 -0.0901991321
C   C92       1.0  0.95810  0.05810  0.47450  1.0000 -0.171605677
C   C93       1.0  0.97600  0.06540  0.65090  1.0000 -0.1091491809
C   C94       1.0  0.97700  0.05950  0.61580  1.0000 -0.171605677
C   C95       1.0  0.81060  0.72500  0.73260  1.0000 0.4470580662
C   C96       1.0  0.10750  0.43560  0.94400  1.0000 -0.1622674694
C   C97       1.0  0.10180  0.42750  0.90910  1.0000 0.1358216047
C   C98       1.0  0.04580  0.37170  0.89020  1.0000 -0.1091491809
C   C99       1.0  0.99980  0.32130  0.87400  1.0000 -0.1014028885
C   C100      1.0  0.94590  0.26730  0.85770  1.0000 0.096429489
C   C101      1.0  0.91420  0.20650  0.87390  1.0000 -0.1408555972
C   C102      1.0  0.86560  0.15090  0.85390  1.0000 -0.1216517201
C   C103      1.0  0.85800  0.16070  0.82000  1.0000 0.029945108
C   C104      1.0  0.80190  0.10430  0.80320  1.0000 0.2665115217
C   C105      1.0  0.88980  0.21920  0.80530  1.0000 -0.0901991321
C   C106      1.0  0.93530  0.27220  0.82480  1.0000 -0.1216517201
C   C107      1.0  0.15640  0.47880  0.88750  1.0000 -0.1809818899
C   C108      1.0  0.21610  0.53890  0.90240  1.0000 0.1206379295
C   C109      1.0  0.27050  0.58910  0.88230  1.0000 -0.1014028885
C   C110      1.0  0.31800  0.63270  0.86640  1.0000 -0.0901991321
C   C111      1.0  0.36710  0.69240  0.84960  1.0000 0.1206379295
C   C112      1.0  0.38100  0.67960  0.81400  1.0000 -0.1408555972
C   C113      1.0  0.43340  0.73850  0.79340  1.0000 -0.1216517201
C   C114      1.0  0.46490  0.80280  0.81430  1.0000 0.0468865627
C   C115      1.0  0.52650  0.86080  0.79580  1.0000 0.3406608658
C   C116      1.0  0.44970  0.80570  0.85010  1.0000 -0.150011093
C   C117      1.0  0.39560  0.75160  0.86650  1.0000 -0.1216517201
C   C118      1.0  0.21440  0.54290  0.93840  1.0000 -0.1872886387
C   C119      1.0  0.15830  0.49000  0.96000  1.0000 0.1206379295
C   C120      1.0  0.16400  0.49510  0.99490  1.0000 -0.1014028885
C   C121      1.0  0.16770  0.50050  0.02580  1.0000 -0.1014028885
C   C122      1.0  0.17180  0.50360  0.06390  1.0000 0.12980998
C   C123      1.0  0.20070  0.56130  0.08010  1.0000 -0.1297819417
C   C124      1.0  0.21280  0.56370  0.11560  1.0000 -0.1216517201
C   C125      1.0  0.17320  0.50580  0.13450  1.0000 0.0694845462
C   C126      1.0  0.17450  0.50930  0.17570  1.0000 0.3406608658
C   C127      1.0  0.13890  0.44770  0.11610  1.0000 -0.1408555972
C   C128      1.0  0.13070  0.44580  0.08270  1.0000 -0.1216517201
C   C129      1.0  0.53960  0.55500  0.93650  1.0000 0.12980998
C   C130      1.0  0.58770  0.61440  0.91890  1.0000 -0.0901991321
C   C131      1.0  0.62740  0.66470  0.90370  1.0000 -0.1091491809
C   C132      1.0  0.68600  0.71770  0.88810  1.0000 0.110297657
C   C133      1.0  0.72350  0.77460  0.90570  1.0000 -0.1216517201
C   C134      1.0  0.78130  0.83600  0.89160  1.0000 -0.1297819417
C   C135      1.0  0.79320  0.83320  0.85570  1.0000 0.029945108
C   C136      1.0  0.84980  0.88660  0.83580  1.0000 0.3038526321
C   C137      1.0  0.75980  0.77990  0.83550  1.0000 -0.1014028885
C   C138      1.0  0.70310  0.71590  0.85220  1.0000 -0.0901991321
C   C139      1.0  0.54190  0.55810  0.97450  1.0000 -0.171605677
C   C140      1.0  0.52400  0.56540  0.15090  1.0000 -0.1091491809
C   C141      1.0  0.52300  0.55950  0.11580  1.0000 -0.171605677
C   C142      1.0  0.18940  0.27500  0.73260  1.0000 0.4470580662
C   C143      1.0  0.89250  0.56440  0.94400  1.0000 -0.1622674694
C   C144      1.0  0.89820  0.57250  0.90910  1.0000 0.1358216047
C   C145      1.0  0.95420  0.62830  0.89020  1.0000 -0.1091491809
C   C146      1.0  0.00020  0.67870  0.87400  1.0000 -0.1014028885
C   C147      1.0  0.05410  0.73270  0.85770  1.0000 0.096429489
C   C148      1.0  0.08580  0.79350  0.87390  1.0000 -0.1408555972
C   C149      1.0  0.13440  0.84910  0.85390  1.0000 -0.1216517201
C   C150      1.0  0.14200  0.83930  0.82000  1.0000 0.029945108
C   C151      1.0  0.19810  0.89570  0.80320  1.0000 0.2665115217
C   C152      1.0  0.11020  0.78080  0.80530  1.0000 -0.0901991321
C   C153      1.0  0.06470  0.72780  0.82480  1.0000 -0.1216517201
C   C154      1.0  0.84360  0.52120  0.88750  1.0000 -0.1809818899
C   C155      1.0  0.78390  0.46110  0.90240  1.0000 0.1206379295
C   C156      1.0  0.72950  0.41090  0.88230  1.0000 -0.1014028885
C   C157      1.0  0.68200  0.36730  0.86640  1.0000 -0.0901991321
C   C158      1.0  0.63290  0.30760  0.84960  1.0000 0.1206379295
C   C159      1.0  0.61900  0.32040  0.81400  1.0000 -0.1408555972
C   C160      1.0  0.56660  0.26150  0.79340  1.0000 -0.1297819417
C   C161      1.0  0.53510  0.19720  0.81430  1.0000 0.0468865627
C   C162      1.0  0.47350  0.13920  0.79580  1.0000 0.3406608658
C   C163      1.0  0.55030  0.19430  0.85010  1.0000 -0.150011093
C   C164      1.0  0.60440  0.24840  0.86650  1.0000 -0.1216517201
C   C165      1.0  0.78560  0.45710  0.93840  1.0000 -0.1872886387
C   C166      1.0  0.84170  0.51000  0.96000  1.0000 0.1206379295
C   C167      1.0  0.83600  0.50490  0.99490  1.0000 -0.1014028885
C   C168      1.0  0.83230  0.49950  0.02580  1.0000 -0.1014028885
C   C169      1.0  0.82820  0.49640  0.06390  1.0000 0.12980998
C   C170      1.0  0.79930  0.43870  0.08010  1.0000 -0.1297819417
C   C171      1.0  0.78720  0.43630  0.11560  1.0000 -0.1216517201
C   C172      1.0  0.82680  0.49420  0.13450  1.0000 0.0694845462
C   C173      1.0  0.82550  0.49070  0.17570  1.0000 0.3406608658
C   C174      1.0  0.86110  0.55230  0.11610  1.0000 -0.1408555972
C   C175      1.0  0.86930  0.55420  0.08270  1.0000 -0.1216517201
C   C176      1.0  0.46040  0.44500  0.93650  1.0000 0.12980998
C   C177      1.0  0.41230  0.38560  0.91890  1.0000 -0.0901991321
C   C178      1.0  0.37260  0.33530  0.90370  1.0000 -0.1014028885
C   C179      1.0  0.31400  0.28230  0.88810  1.0000 0.110297657
C   C180      1.0  0.27650  0.22540  0.90570  1.0000 -0.1216517201
C   C181      1.0  0.21870  0.16400  0.89160  1.0000 -0.1297819417
C   C182      1.0  0.20680  0.16680  0.85570  1.0000 0.029945108
C   C183      1.0  0.15020  0.11340  0.83580  1.0000 0.3038526321
C   C184      1.0  0.24020  0.22010  0.83550  1.0000 -0.1014028885
C   C185      1.0  0.29690  0.28410  0.85220  1.0000 -0.0901991321
C   C186      1.0  0.45810  0.44190  0.97450  1.0000 -0.171605677
C   C187      1.0  0.47600  0.43460  0.15090  1.0000 -0.1091491809
C   C188      1.0  0.47700  0.44050  0.11580  1.0000 -0.171605677
C   C189      1.0  0.00000  0.00000  0.41930  1.0000 -0.1622674694
C   C190      1.0  0.00000  0.00000  0.49190  1.0000 0.1464481075
C   C191      1.0  0.00000  0.00000  0.52980  1.0000 -0.0901991321
C   C192      1.0  0.00000  0.00000  0.59610  1.0000 0.110297657
C   C193      1.0  0.00000  0.00000  0.56070  1.0000 -0.1408555972
C   C194      1.0  0.00000  0.00000  0.66410  1.0000 -0.0366014769
C   C195      1.0  0.00000  0.00000  0.69940  1.0000 0.2505422676
C   C196      1.0  0.50000  0.50000  0.91930  1.0000 -0.1622674694
C   C197      1.0  0.50000  0.50000  0.99190  1.0000 0.1464481075
C   C198      1.0  0.50000  0.50000  0.02980  1.0000 -0.0901991321
C   C199      1.0  0.50000  0.50000  0.09610  1.0000 0.110297657
C   C200      1.0  0.50000  0.50000  0.06070  1.0000 -0.1297819417
C   C201      1.0  0.50000  0.50000  0.16410  1.0000 -0.0366014769
C   C202      1.0  0.50000  0.50000  0.19940  1.0000 0.2505422676
S   S1        1.0  0.35980  0.68020  0.22530  1.0000 1.0456032897
S   S2        1.0  0.64020  0.31980  0.22530  1.0000 1.0456032897
S   S3        1.0  0.85980  0.81980  0.72530  1.0000 1.0456032897
S   S4        1.0  0.14020  0.18020  0.72530  1.0000 1.0456032897
N   N1        1.0  0.25380  0.43830  0.28490  1.0000 -0.4265319338
N   N2        1.0  0.67050  0.98790  0.70380  1.0000 -0.3717706954
N   N3        1.0  0.06410  0.59620  0.28380  1.0000 -0.3889671942
N   N4        1.0  0.39260  0.56810  0.32510  1.0000 -0.3889671942
N   N5        1.0  0.74620  0.56170  0.28490  1.0000 -0.4265319338
N   N6        1.0  0.32950  0.01210  0.70380  1.0000 -0.3717706954
N   N7        1.0  0.93590  0.40380  0.28380  1.0000 -0.3889671942
N   N8        1.0  0.60740  0.43190  0.32510  1.0000 -0.3889671942
N   N9        1.0  0.75380  0.06170  0.78490  1.0000 -0.4265319338
N   N10       1.0  0.17050  0.51210  0.20380  1.0000 -0.3717706954
N   N11       1.0  0.56410  0.90380  0.78380  1.0000 -0.3889671942
N   N12       1.0  0.89260  0.93190  0.82510  1.0000 -0.3889671942
N   N13       1.0  0.24620  0.93830  0.78490  1.0000 -0.4265319338
N   N14       1.0  0.82950  0.48790  0.20380  1.0000 -0.3717706954
N   N15       1.0  0.43590  0.09620  0.78380  1.0000 -0.3889671942
N   N16       1.0  0.10740  0.06810  0.82510  1.0000 -0.3889671942
N   N17       1.0  0.00000  0.00000  0.73330  1.0000 -0.5179096913
N   N18       1.0  0.50000  0.50000  0.23330  1.0000 -0.5179096913
O   O1        1.0  0.31660  0.64050  0.25840  1.0000 -0.5985060488
O   O2        1.0  0.30340  0.66170  0.19460  1.0000 -0.483253405
O   O3        1.0  0.48020  0.67850  0.21890  1.0000 -0.4900256252
O   O4        1.0  0.68340  0.35950  0.25840  1.0000 -0.5985060488
O   O5        1.0  0.69660  0.33830  0.19460  1.0000 -0.483253405
O   O6        1.0  0.51980  0.32150  0.21890  1.0000 -0.4900256252
O   O7        1.0  0.81660  0.85950  0.75840  1.0000 -0.5985060488
O   O8        1.0  0.80340  0.83830  0.69460  1.0000 -0.483253405
O   O9        1.0  0.98020  0.82150  0.71890  1.0000 -0.4900256252
O   O10       1.0  0.18340  0.14050  0.75840  1.0000 -0.5985060488
O   O11       1.0  0.19660  0.16170  0.69460  1.0000 -0.483253405
O   O12       1.0  0.01980  0.17850  0.71890  1.0000 -0.4900256252
F   F1        1.0  0.20420  0.76350  0.24040  1.0000 -0.171605677
F   F2        1.0  0.29550  0.79910  0.20660  1.0000 -0.1216517201
F   F3        1.0  0.36220  0.79110  0.26040  1.0000 -0.2011925807
F   F4        1.0  0.79580  0.23650  0.24040  1.0000 -0.171605677
F   F5        1.0  0.70450  0.20090  0.20660  1.0000 -0.1216517201
F   F6        1.0  0.63780  0.20890  0.26040  1.0000 -0.2011925807
F   F7        1.0  0.70420  0.73650  0.74040  1.0000 -0.171605677
F   F8        1.0  0.79550  0.70090  0.70660  1.0000 -0.1216517201
F   F9        1.0  0.86220  0.70890  0.76040  1.0000 -0.2011925807
F   F10       1.0  0.29580  0.26350  0.74040  1.0000 -0.171605677
F   F11       1.0  0.20450  0.29910  0.70660  1.0000 -0.1216517201
F   F12       1.0  0.13780  0.29110  0.76040  1.0000 -0.2011925807
