# DDEC6 charges by PACMAN v1.1 (https://github.com/mtap-research/PACMAN-charge/)
data_1996[Ti][qtz]3[ION]3
_chemical_formula_sum              "Ti3 H12 C12 N3 O24"
_cell_length_a       8.947
_cell_length_b       8.947
_cell_length_c       10.898
_cell_angle_alpha    90
_cell_angle_beta     90
_cell_angle_gamma    120

_symmetry_space_group_name_H-M    "P 1"
_symmetry_Int_Tables_number       1

loop_
  _symmetry_equiv_pos_as_xyz
  'x, y, z'

loop_
  _atom_site_type_symbol
  _atom_site_label
  _atom_site_symmetry_multiplicity
  _atom_site_fract_x
  _atom_site_fract_y
  _atom_site_fract_z
  _atom_site_occupancy
  _atom_site_charge
Ti  Ti1       1.0  0.00000  0.50000  0.83333  1.0000 1.7367236399
Ti  Ti2       1.0  0.50000  0.00000  0.50000  1.0000 1.7367236399
Ti  Ti3       1.0  0.50000  0.50000  0.16667  1.0000 1.7367236399
H   H1        1.0  0.98499  0.08970  0.45049  1.0000 0.3248242719
H   H2        1.0  0.10471  0.08970  0.54951  1.0000 0.325668032
H   H3        1.0  0.01501  0.91030  0.45049  1.0000 0.325668032
H   H4        1.0  0.89529  0.91030  0.54951  1.0000 0.325668032
H   H5        1.0  0.08970  0.10471  0.78383  1.0000 0.325668032
H   H6        1.0  0.08970  0.98499  0.88284  1.0000 0.325668032
H   H7        1.0  0.91030  0.89529  0.78383  1.0000 0.325668032
H   H8        1.0  0.91030  0.01501  0.88284  1.0000 0.325668032
H   H9        1.0  0.10471  0.01501  0.11716  1.0000 0.3248242719
H   H10       1.0  0.98499  0.89529  0.21617  1.0000 0.325668032
H   H11       1.0  0.89529  0.98499  0.11716  1.0000 0.325668032
H   H12       1.0  0.01501  0.10471  0.21617  1.0000 0.3248242719
C   C1        1.0  0.69153  0.30847  0.66667  1.0000 0.489526151
C   C2        1.0  0.38306  0.69153  0.33333  1.0000 0.489526151
C   C3        1.0  0.69153  0.38306  0.00000  1.0000 0.489526151
C   C4        1.0  0.30847  0.69153  0.66667  1.0000 0.489526151
C   C5        1.0  0.61694  0.30847  0.33333  1.0000 0.489526151
C   C6        1.0  0.30847  0.61694  0.00000  1.0000 0.489526151
C   C7        1.0  0.78948  0.21052  0.66667  1.0000 0.489526151
C   C8        1.0  0.57896  0.78948  0.33333  1.0000 0.489526151
C   C9        1.0  0.78948  0.57896  0.00000  1.0000 0.489526151
C   C10       1.0  0.21052  0.78948  0.66667  1.0000 0.489526151
C   C11       1.0  0.42104  0.21052  0.33333  1.0000 0.489526151
C   C12       1.0  0.21052  0.42104  0.00000  1.0000 0.489526151
N   N1        1.0  0.00000  0.00000  0.50000  1.0000 -0.740349354
N   N2        1.0  0.00000  0.00000  0.83333  1.0000 -0.740349354
N   N3        1.0  0.00000  0.00000  0.16667  1.0000 -0.740349354
O   O1        1.0  0.76290  0.44890  0.72371  1.0000 -0.5320384072
O   O2        1.0  0.31400  0.76290  0.39038  1.0000 -0.5320384072
O   O3        1.0  0.55110  0.23710  0.60962  1.0000 -0.5320384072
O   O4        1.0  0.55110  0.31400  0.05704  1.0000 -0.5320384072
O   O5        1.0  0.31400  0.55110  0.27629  1.0000 -0.5320384072
O   O6        1.0  0.23710  0.55110  0.72371  1.0000 -0.5320384072
O   O7        1.0  0.76290  0.31400  0.94296  1.0000 -0.5320384072
O   O8        1.0  0.68600  0.23710  0.39038  1.0000 -0.5320384072
O   O9        1.0  0.44890  0.76290  0.60962  1.0000 -0.5320384072
O   O10       1.0  0.44890  0.68600  0.05704  1.0000 -0.5320384072
O   O11       1.0  0.68600  0.44890  0.27629  1.0000 -0.5320384072
O   O12       1.0  0.23710  0.68600  0.94296  1.0000 -0.5320384072
O   O13       1.0  0.92390  0.27240  0.73001  1.0000 -0.5320384072
O   O14       1.0  0.65150  0.92390  0.39668  1.0000 -0.5320384072
O   O15       1.0  0.72760  0.07610  0.60332  1.0000 -0.5320384072
O   O16       1.0  0.72760  0.65150  0.06334  1.0000 -0.5320384072
O   O17       1.0  0.65150  0.72760  0.26999  1.0000 -0.5320384072
O   O18       1.0  0.07610  0.72760  0.73001  1.0000 -0.5320384072
O   O19       1.0  0.92390  0.65150  0.93666  1.0000 -0.5320384072
O   O20       1.0  0.34850  0.07610  0.39668  1.0000 -0.5320384072
O   O21       1.0  0.27240  0.92390  0.60332  1.0000 -0.5320384072
O   O22       1.0  0.27240  0.34850  0.06334  1.0000 -0.5320384072
O   O23       1.0  0.34850  0.27240  0.26999  1.0000 -0.5320384072
O   O24       1.0  0.07610  0.34850  0.93666  1.0000 -0.5320384072
