# DDEC6 charges by PACMAN v1.1 (https://github.com/mtap-research/PACMAN-charge/)
data_1996[Ti][qtz]3[ION]2
_chemical_formula_sum              "Ti3 H12 C12 N3 O24"
_cell_length_a       8.931
_cell_length_b       8.931
_cell_length_c       10.893
_cell_angle_alpha    90
_cell_angle_beta     90
_cell_angle_gamma    120

_symmetry_space_group_name_H-M    "P 1"
_symmetry_Int_Tables_number       1

loop_
  _symmetry_equiv_pos_as_xyz
  'x, y, z'

loop_
  _atom_site_type_symbol
  _atom_site_label
  _atom_site_symmetry_multiplicity
  _atom_site_fract_x
  _atom_site_fract_y
  _atom_site_fract_z
  _atom_site_occupancy
  _atom_site_charge
Ti  Ti1       1.0  0.00000  0.50000  0.83333  1.0000 1.7388826443
Ti  Ti2       1.0  0.50000  0.00000  0.50000  1.0000 1.7388826443
Ti  Ti3       1.0  0.50000  0.50000  0.16667  1.0000 1.7388826443
H   H1        1.0  0.97997  0.08611  0.44972  1.0000 0.3280037575
H   H2        1.0  0.10614  0.08611  0.55028  1.0000 0.3280037575
H   H3        1.0  0.02003  0.91389  0.44972  1.0000 0.3280037575
H   H4        1.0  0.89386  0.91389  0.55028  1.0000 0.3280037575
H   H5        1.0  0.08611  0.10614  0.78306  1.0000 0.3280037575
H   H6        1.0  0.08611  0.97997  0.88361  1.0000 0.3280037575
H   H7        1.0  0.91389  0.89386  0.78306  1.0000 0.3280037575
H   H8        1.0  0.91389  0.02003  0.88361  1.0000 0.3280037575
H   H9        1.0  0.10614  0.02003  0.11639  1.0000 0.3280037575
H   H10       1.0  0.97997  0.89386  0.21694  1.0000 0.3280037575
H   H11       1.0  0.89386  0.97997  0.11639  1.0000 0.3280037575
H   H12       1.0  0.02003  0.10614  0.21694  1.0000 0.3280037575
C   C1        1.0  0.69163  0.30837  0.66667  1.0000 0.4919825329
C   C2        1.0  0.38326  0.69163  0.33333  1.0000 0.4919825329
C   C3        1.0  0.69163  0.38326  0.00000  1.0000 0.4919825329
C   C4        1.0  0.30837  0.69163  0.66667  1.0000 0.4919825329
C   C5        1.0  0.61674  0.30837  0.33333  1.0000 0.4919825329
C   C6        1.0  0.30837  0.61674  0.00000  1.0000 0.4919825329
C   C7        1.0  0.78975  0.21025  0.66667  1.0000 0.4919825329
C   C8        1.0  0.57950  0.78975  0.33333  1.0000 0.4919825329
C   C9        1.0  0.78975  0.57950  0.00000  1.0000 0.4919825329
C   C10       1.0  0.21025  0.78975  0.66667  1.0000 0.4919825329
C   C11       1.0  0.42050  0.21025  0.33333  1.0000 0.4919825329
C   C12       1.0  0.21025  0.42050  0.00000  1.0000 0.4919825329
N   N1        1.0  0.00000  0.00000  0.50000  1.0000 -0.7439114021
N   N2        1.0  0.00000  0.00000  0.83333  1.0000 -0.7439114021
N   N3        1.0  0.00000  0.00000  0.16667  1.0000 -0.7439114021
O   O1        1.0  0.76287  0.44938  0.72385  1.0000 -0.5343645505
O   O2        1.0  0.31349  0.76287  0.39052  1.0000 -0.5343645505
O   O3        1.0  0.55062  0.23713  0.60948  1.0000 -0.5343645505
O   O4        1.0  0.55062  0.31349  0.05718  1.0000 -0.5343645505
O   O5        1.0  0.31349  0.55062  0.27615  1.0000 -0.5343645505
O   O6        1.0  0.23713  0.55062  0.72385  1.0000 -0.5343645505
O   O7        1.0  0.76287  0.31349  0.94282  1.0000 -0.5343645505
O   O8        1.0  0.68651  0.23713  0.39052  1.0000 -0.5343645505
O   O9        1.0  0.44938  0.76287  0.60948  1.0000 -0.5343645505
O   O10       1.0  0.44938  0.68651  0.05718  1.0000 -0.5343645505
O   O11       1.0  0.68651  0.44938  0.27615  1.0000 -0.5343645505
O   O12       1.0  0.23713  0.68651  0.94282  1.0000 -0.5343645505
O   O13       1.0  0.92462  0.27273  0.72991  1.0000 -0.5343645505
O   O14       1.0  0.65189  0.92462  0.39658  1.0000 -0.5343645505
O   O15       1.0  0.72727  0.07538  0.60342  1.0000 -0.5343645505
O   O16       1.0  0.72727  0.65189  0.06324  1.0000 -0.5343645505
O   O17       1.0  0.65189  0.72727  0.27009  1.0000 -0.5343645505
O   O18       1.0  0.07538  0.72727  0.72991  1.0000 -0.5343645505
O   O19       1.0  0.92462  0.65189  0.93676  1.0000 -0.5343645505
O   O20       1.0  0.34811  0.07538  0.39658  1.0000 -0.5343645505
O   O21       1.0  0.27273  0.92462  0.60342  1.0000 -0.5343645505
O   O22       1.0  0.27273  0.34811  0.06324  1.0000 -0.5343645505
O   O23       1.0  0.34811  0.27273  0.27009  1.0000 -0.5343645505
O   O24       1.0  0.07538  0.34811  0.93676  1.0000 -0.5343645505
