# DDEC6 charges by PACMAN v1.1 (https://github.com/mtap-research/PACMAN-charge/)
data_1997[Ag][nan]3[ION]1
_chemical_formula_sum              "Ag16 B16 H320 C384 N64 F64"
_cell_length_a       10.292
_cell_length_b       29.887
_cell_length_c       38.593
_cell_angle_alpha    90
_cell_angle_beta     90
_cell_angle_gamma    90

_symmetry_space_group_name_H-M    "P 1"
_symmetry_Int_Tables_number       1

loop_
  _symmetry_equiv_pos_as_xyz
  'x, y, z'

loop_
  _atom_site_type_symbol
  _atom_site_label
  _atom_site_symmetry_multiplicity
  _atom_site_fract_x
  _atom_site_fract_y
  _atom_site_fract_z
  _atom_site_occupancy
  _atom_site_charge
Ag  Ag1       1.0  0.87522  0.87498  0.98759  1.0000 0.2562882712
Ag  Ag2       1.0  0.87521  0.37496  0.48759  1.0000 0.2562882712
Ag  Ag3       1.0  0.37522  0.87498  0.48759  1.0000 0.2562882712
Ag  Ag4       1.0  0.37522  0.37497  0.98758  1.0000 0.2529643635
Ag  Ag5       1.0  0.87522  0.87502  0.76241  1.0000 0.2562882712
Ag  Ag6       1.0  0.87521  0.37504  0.26241  1.0000 0.2562882712
Ag  Ag7       1.0  0.37522  0.87502  0.26241  1.0000 0.2562882712
Ag  Ag8       1.0  0.37521  0.37503  0.76240  1.0000 0.2562882712
Ag  Ag9       1.0  0.12501  0.12501  0.01239  1.0000 0.2529643635
Ag  Ag10      1.0  0.12501  0.62501  0.51243  1.0000 0.2562882712
Ag  Ag11      1.0  0.62501  0.12501  0.51239  1.0000 0.2529643635
Ag  Ag12      1.0  0.62522  0.62498  0.01241  1.0000 0.2562882712
Ag  Ag13      1.0  0.12501  0.12499  0.23757  1.0000 0.2562882712
Ag  Ag14      1.0  0.12522  0.62502  0.73759  1.0000 0.2562882712
Ag  Ag15      1.0  0.62501  0.12499  0.73757  1.0000 0.2562882712
Ag  Ag16      1.0  0.62501  0.62499  0.23761  1.0000 0.2529643635
B   B1        1.0  0.41009  0.69474  0.38294  1.0000 1.0623228958
B   B2        1.0  0.91008  0.69476  0.88295  1.0000 1.0685426603
B   B3        1.0  0.83991  0.55526  0.38294  1.0000 1.0623228958
B   B4        1.0  0.33991  0.19474  0.86706  1.0000 1.0623228958
B   B5        1.0  0.83991  0.19474  0.36706  1.0000 1.0623228958
B   B6        1.0  0.41008  0.55524  0.86705  1.0000 1.0685426603
B   B7        1.0  0.41009  0.05526  0.36706  1.0000 1.0623228958
B   B8        1.0  0.91009  0.05526  0.86706  1.0000 1.0623228958
B   B9        1.0  0.66008  0.44476  0.11705  1.0000 1.0685426603
B   B10       1.0  0.66008  0.94476  0.61705  1.0000 1.0685426603
B   B11       1.0  0.16008  0.44476  0.61705  1.0000 1.0685426603
B   B12       1.0  0.16008  0.94476  0.11705  1.0000 1.0685426603
B   B13       1.0  0.66008  0.80524  0.13295  1.0000 1.0685426603
B   B14       1.0  0.66008  0.30524  0.63295  1.0000 1.0685426603
B   B15       1.0  0.16008  0.80524  0.63295  1.0000 1.0685426603
B   B16       1.0  0.16008  0.30524  0.13295  1.0000 1.0685426603
H   H1        1.0  0.11124  0.67100  0.03651  1.0000 0.1119242812
H   H2        1.0  0.91371  0.65086  0.00326  1.0000 0.0898440091
H   H3        1.0  0.21193  0.67560  0.09410  1.0000 0.070218816
H   H4        1.0  0.09687  0.81933  0.25010  1.0000 0.0607470063
H   H5        1.0  0.99247  0.77344  0.20491  1.0000 0.1193320875
H   H6        1.0  0.90174  0.78562  0.10474  1.0000 0.1401249175
H   H7        1.0  0.81657  0.83241  0.06015  1.0000 0.1008943395
H   H8        1.0  0.99566  0.75160  0.14522  1.0000 0.0898440091
H   H9        1.0  0.67993  0.66569  0.09079  1.0000 0.0898440091
H   H10       1.0  0.86619  0.68535  0.12726  1.0000 0.1193320875
H   H11       1.0  0.11128  0.17097  0.53655  1.0000 0.1119242812
H   H12       1.0  0.91363  0.15066  0.50334  1.0000 0.0816494327
H   H13       1.0  0.21194  0.17560  0.59411  1.0000 0.070218816
H   H14       1.0  0.09700  0.31926  0.75014  1.0000 0.0607470063
H   H15       1.0  0.99248  0.27344  0.70491  1.0000 0.1193320875
H   H16       1.0  0.90174  0.28562  0.60475  1.0000 0.1401249175
H   H17       1.0  0.81658  0.33240  0.56015  1.0000 0.1008943395
H   H18       1.0  0.99566  0.25160  0.64522  1.0000 0.0898440091
H   H19       1.0  0.67991  0.16570  0.59083  1.0000 0.0898440091
H   H20       1.0  0.86618  0.18536  0.62729  1.0000 0.1308184199
H   H21       1.0  0.61123  0.67100  0.53652  1.0000 0.1119242812
H   H22       1.0  0.41371  0.65088  0.50326  1.0000 0.0898440091
H   H23       1.0  0.71193  0.67560  0.59410  1.0000 0.070218816
H   H24       1.0  0.59687  0.81933  0.75010  1.0000 0.0607470063
H   H25       1.0  0.49248  0.77343  0.70491  1.0000 0.1193320875
H   H26       1.0  0.40174  0.78562  0.60474  1.0000 0.1401249175
H   H27       1.0  0.31657  0.83241  0.56015  1.0000 0.1008943395
H   H28       1.0  0.49566  0.75160  0.64522  1.0000 0.0898440091
H   H29       1.0  0.17993  0.66569  0.59079  1.0000 0.0898440091
H   H30       1.0  0.36618  0.68535  0.62726  1.0000 0.1193320875
H   H31       1.0  0.61128  0.17097  0.03655  1.0000 0.1119242812
H   H32       1.0  0.41363  0.15066  0.00334  1.0000 0.0816494327
H   H33       1.0  0.71194  0.17560  0.09411  1.0000 0.070218816
H   H34       1.0  0.59700  0.31926  0.25014  1.0000 0.0607470063
H   H35       1.0  0.49248  0.27344  0.20491  1.0000 0.1193320875
H   H36       1.0  0.40174  0.28562  0.10475  1.0000 0.1401249175
H   H37       1.0  0.31658  0.33240  0.06015  1.0000 0.1008943395
H   H38       1.0  0.49566  0.25160  0.14522  1.0000 0.0898440091
H   H39       1.0  0.17991  0.16570  0.09083  1.0000 0.0898440091
H   H40       1.0  0.36618  0.18536  0.12729  1.0000 0.1308184199
H   H41       1.0  0.63872  0.07900  0.03657  1.0000 0.1119242812
H   H42       1.0  0.83634  0.09934  0.00336  1.0000 0.0816494327
H   H43       1.0  0.53777  0.07437  0.09406  1.0000 0.0816494327
H   H44       1.0  0.65340  0.93080  0.25019  1.0000 0.0607470063
H   H45       1.0  0.75742  0.97699  0.20534  1.0000 0.1119242812
H   H46       1.0  0.85140  0.96536  0.10413  1.0000 0.1308184199
H   H47       1.0  0.93480  0.91772  0.06000  1.0000 0.1008943395
H   H48       1.0  0.75415  0.99899  0.14513  1.0000 0.0898440091
H   H49       1.0  0.06996  0.08405  0.09080  1.0000 0.0898440091
H   H50       1.0  0.88406  0.06480  0.12729  1.0000 0.1193320875
H   H51       1.0  0.63877  0.57898  0.53654  1.0000 0.1119242812
H   H52       1.0  0.83625  0.59911  0.50328  1.0000 0.0898440091
H   H53       1.0  0.53777  0.57437  0.59405  1.0000 0.0816494327
H   H54       1.0  0.65340  0.43080  0.75019  1.0000 0.0607470063
H   H55       1.0  0.75742  0.47699  0.70534  1.0000 0.1119242812
H   H56       1.0  0.85140  0.46536  0.60413  1.0000 0.1308184199
H   H57       1.0  0.93481  0.41772  0.56000  1.0000 0.1008943395
H   H58       1.0  0.75415  0.49899  0.64513  1.0000 0.0816494327
H   H59       1.0  0.06992  0.58406  0.59077  1.0000 0.0816494327
H   H60       1.0  0.88406  0.56480  0.62726  1.0000 0.1193320875
H   H61       1.0  0.13872  0.07900  0.53657  1.0000 0.1119242812
H   H62       1.0  0.33634  0.09934  0.50336  1.0000 0.0816494327
H   H63       1.0  0.03777  0.07437  0.59406  1.0000 0.0816494327
H   H64       1.0  0.15340  0.93080  0.75019  1.0000 0.0607470063
H   H65       1.0  0.25742  0.97699  0.70534  1.0000 0.1119242812
H   H66       1.0  0.35140  0.96536  0.60413  1.0000 0.1308184199
H   H67       1.0  0.43480  0.91772  0.56000  1.0000 0.1008943395
H   H68       1.0  0.25415  0.99899  0.64513  1.0000 0.0898440091
H   H69       1.0  0.56996  0.08405  0.59080  1.0000 0.0898440091
H   H70       1.0  0.38406  0.06480  0.62729  1.0000 0.1193320875
H   H71       1.0  0.13874  0.57900  0.03657  1.0000 0.1119242812
H   H72       1.0  0.33634  0.59932  0.00336  1.0000 0.0816494327
H   H73       1.0  0.03778  0.57437  0.09406  1.0000 0.0816494327
H   H74       1.0  0.15352  0.43072  0.25015  1.0000 0.0607470063
H   H75       1.0  0.25743  0.47699  0.20534  1.0000 0.1119242812
H   H76       1.0  0.35140  0.46536  0.10413  1.0000 0.1308184199
H   H77       1.0  0.43481  0.41772  0.06000  1.0000 0.1008943395
H   H78       1.0  0.25415  0.49899  0.14513  1.0000 0.0816494327
H   H79       1.0  0.56997  0.58405  0.09080  1.0000 0.0816494327
H   H80       1.0  0.38407  0.56479  0.12729  1.0000 0.1193320875
H   H81       1.0  0.63874  0.67100  0.71342  1.0000 0.1119242812
H   H82       1.0  0.83634  0.65068  0.74664  1.0000 0.0816494327
H   H83       1.0  0.53777  0.67563  0.65594  1.0000 0.0816494327
H   H84       1.0  0.65340  0.81920  0.49981  1.0000 0.0607470063
H   H85       1.0  0.75742  0.77301  0.54466  1.0000 0.1119242812
H   H86       1.0  0.85140  0.78464  0.64587  1.0000 0.1308184199
H   H87       1.0  0.93480  0.83228  0.69000  1.0000 0.1008943395
H   H88       1.0  0.75415  0.75101  0.60487  1.0000 0.0816494327
H   H89       1.0  0.06996  0.66595  0.65920  1.0000 0.0816494327
H   H90       1.0  0.88407  0.68520  0.62271  1.0000 0.1193320875
H   H91       1.0  0.63877  0.17102  0.21346  1.0000 0.1119242812
H   H92       1.0  0.83625  0.15089  0.24672  1.0000 0.0898440091
H   H93       1.0  0.53778  0.17563  0.15595  1.0000 0.0816494327
H   H94       1.0  0.65352  0.31928  0.99985  1.0000 0.0607470063
H   H95       1.0  0.75743  0.27301  0.04466  1.0000 0.1119242812
H   H96       1.0  0.85140  0.28464  0.14587  1.0000 0.1308184199
H   H97       1.0  0.93481  0.33228  0.19000  1.0000 0.1008943395
H   H98       1.0  0.75415  0.25101  0.10487  1.0000 0.0816494327
H   H99       1.0  0.06992  0.16594  0.15923  1.0000 0.0898440091
H   H100      1.0  0.88406  0.18520  0.12274  1.0000 0.1193320875
H   H101      1.0  0.13872  0.67100  0.21343  1.0000 0.1119242812
H   H102      1.0  0.33634  0.65066  0.24664  1.0000 0.0816494327
H   H103      1.0  0.03777  0.67563  0.15594  1.0000 0.0816494327
H   H104      1.0  0.15340  0.81921  0.99981  1.0000 0.0607470063
H   H105      1.0  0.25742  0.77301  0.04466  1.0000 0.1119242812
H   H106      1.0  0.35140  0.78464  0.14587  1.0000 0.1308184199
H   H107      1.0  0.43480  0.83228  0.19000  1.0000 0.1008943395
H   H108      1.0  0.25415  0.75101  0.10487  1.0000 0.0898440091
H   H109      1.0  0.56996  0.66595  0.15920  1.0000 0.0816494327
H   H110      1.0  0.38406  0.68521  0.12271  1.0000 0.1193320875
H   H111      1.0  0.13877  0.17102  0.71346  1.0000 0.1119242812
H   H112      1.0  0.33625  0.15089  0.74672  1.0000 0.0898440091
H   H113      1.0  0.03778  0.17563  0.65595  1.0000 0.0816494327
H   H114      1.0  0.15352  0.31928  0.49985  1.0000 0.0607470063
H   H115      1.0  0.25743  0.27301  0.54466  1.0000 0.1119242812
H   H116      1.0  0.35140  0.28464  0.64587  1.0000 0.1308184199
H   H117      1.0  0.43481  0.33228  0.69000  1.0000 0.1008943395
H   H118      1.0  0.25415  0.25101  0.60487  1.0000 0.0898440091
H   H119      1.0  0.56992  0.16594  0.65923  1.0000 0.0816494327
H   H120      1.0  0.38406  0.18520  0.62274  1.0000 0.1193320875
H   H121      1.0  0.11123  0.07900  0.71348  1.0000 0.1119242812
H   H122      1.0  0.91371  0.09912  0.74674  1.0000 0.0898440091
H   H123      1.0  0.21193  0.07440  0.65590  1.0000 0.070218816
H   H124      1.0  0.09687  0.93067  0.49990  1.0000 0.0607470063
H   H125      1.0  0.99247  0.97656  0.54509  1.0000 0.1193320875
H   H126      1.0  0.90173  0.96438  0.64526  1.0000 0.1401249175
H   H127      1.0  0.81657  0.91759  0.68985  1.0000 0.1008943395
H   H128      1.0  0.99566  0.99840  0.60478  1.0000 0.0898440091
H   H129      1.0  0.67993  0.08431  0.65921  1.0000 0.0898440091
H   H130      1.0  0.86618  0.06465  0.62274  1.0000 0.1193320875
H   H131      1.0  0.11127  0.57903  0.21345  1.0000 0.1119242812
H   H132      1.0  0.91363  0.59934  0.24666  1.0000 0.0816494327
H   H133      1.0  0.21193  0.57440  0.15589  1.0000 0.070218816
H   H134      1.0  0.09687  0.43066  0.99990  1.0000 0.0607470063
H   H135      1.0  0.99248  0.47656  0.04509  1.0000 0.1193320875
H   H136      1.0  0.90174  0.46438  0.14525  1.0000 0.1401249175
H   H137      1.0  0.81658  0.41760  0.18985  1.0000 0.1008943395
H   H138      1.0  0.99566  0.49840  0.10478  1.0000 0.0898440091
H   H139      1.0  0.67991  0.58430  0.15917  1.0000 0.0898440091
H   H140      1.0  0.86618  0.56464  0.12272  1.0000 0.1308184199
H   H141      1.0  0.61123  0.07900  0.21348  1.0000 0.1119242812
H   H142      1.0  0.41371  0.09912  0.24674  1.0000 0.0898440091
H   H143      1.0  0.71193  0.07440  0.15590  1.0000 0.070218816
H   H144      1.0  0.59687  0.93067  0.99990  1.0000 0.0607470063
H   H145      1.0  0.49247  0.97656  0.04509  1.0000 0.1193320875
H   H146      1.0  0.40173  0.96438  0.14526  1.0000 0.1401249175
H   H147      1.0  0.31657  0.91759  0.18985  1.0000 0.1008943395
H   H148      1.0  0.49566  0.99840  0.10478  1.0000 0.0898440091
H   H149      1.0  0.17993  0.08431  0.15921  1.0000 0.0898440091
H   H150      1.0  0.36618  0.06465  0.12274  1.0000 0.1193320875
H   H151      1.0  0.61124  0.57900  0.71348  1.0000 0.1119242812
H   H152      1.0  0.41371  0.59914  0.74674  1.0000 0.0898440091
H   H153      1.0  0.71194  0.57440  0.65590  1.0000 0.070218816
H   H154      1.0  0.59700  0.43074  0.49986  1.0000 0.0607470063
H   H155      1.0  0.49249  0.47656  0.54509  1.0000 0.1193320875
H   H156      1.0  0.40174  0.46438  0.64525  1.0000 0.1401249175
H   H157      1.0  0.31657  0.41759  0.68985  1.0000 0.1008943395
H   H158      1.0  0.49566  0.49840  0.60478  1.0000 0.0898440091
H   H159      1.0  0.17994  0.58431  0.65921  1.0000 0.0898440091
H   H160      1.0  0.36619  0.56465  0.62274  1.0000 0.1308184199
H   H161      1.0  0.88873  0.32903  0.96344  1.0000 0.1119242812
H   H162      1.0  0.08636  0.34933  0.99666  1.0000 0.0816494327
H   H163      1.0  0.78808  0.32438  0.90589  1.0000 0.070218816
H   H164      1.0  0.90303  0.18074  0.74989  1.0000 0.0607470063
H   H165      1.0  0.00759  0.22656  0.79508  1.0000 0.1193320875
H   H166      1.0  0.09825  0.21434  0.89523  1.0000 0.1401249175
H   H167      1.0  0.18339  0.16752  0.93982  1.0000 0.1008943395
H   H168      1.0  0.00431  0.24837  0.85477  1.0000 0.0898440091
H   H169      1.0  0.32009  0.33431  0.90917  1.0000 0.0898440091
H   H170      1.0  0.13383  0.31464  0.87271  1.0000 0.1308184199
H   H171      1.0  0.88874  0.82900  0.46342  1.0000 0.1119242812
H   H172      1.0  0.08634  0.84932  0.49664  1.0000 0.0816494327
H   H173      1.0  0.78776  0.82439  0.40594  1.0000 0.0816494327
H   H174      1.0  0.90335  0.68079  0.24978  1.0000 0.0607470063
H   H175      1.0  0.00735  0.72700  0.29466  1.0000 0.1119242812
H   H176      1.0  0.10145  0.71542  0.39588  1.0000 0.1308184199
H   H177      1.0  0.18486  0.66779  0.44003  1.0000 0.1008943395
H   H178      1.0  0.00416  0.74903  0.35488  1.0000 0.0816494327
H   H179      1.0  0.31997  0.83405  0.40920  1.0000 0.0816494327
H   H180      1.0  0.13407  0.81479  0.37271  1.0000 0.1193320875
H   H181      1.0  0.38874  0.32902  0.46344  1.0000 0.1119242812
H   H182      1.0  0.58636  0.34932  0.49666  1.0000 0.0816494327
H   H183      1.0  0.28808  0.32438  0.40588  1.0000 0.070218816
H   H184      1.0  0.40303  0.18074  0.24989  1.0000 0.0607470063
H   H185      1.0  0.50759  0.22656  0.29508  1.0000 0.1193320875
H   H186      1.0  0.59825  0.21434  0.39523  1.0000 0.1401249175
H   H187      1.0  0.68339  0.16752  0.43982  1.0000 0.1008943395
H   H188      1.0  0.50431  0.24837  0.35477  1.0000 0.0898440091
H   H189      1.0  0.82009  0.33430  0.40917  1.0000 0.0898440091
H   H190      1.0  0.63383  0.31464  0.37271  1.0000 0.1308184199
H   H191      1.0  0.38874  0.82900  0.96342  1.0000 0.1119242812
H   H192      1.0  0.58634  0.84932  0.99664  1.0000 0.0816494327
H   H193      1.0  0.28777  0.82437  0.90594  1.0000 0.0816494327
H   H194      1.0  0.40340  0.68079  0.74981  1.0000 0.0607470063
H   H195      1.0  0.50742  0.72699  0.79466  1.0000 0.1119242812
H   H196      1.0  0.60140  0.71536  0.89587  1.0000 0.1308184199
H   H197      1.0  0.68480  0.66772  0.94000  1.0000 0.1008943395
H   H198      1.0  0.50415  0.74899  0.85487  1.0000 0.0816494327
H   H199      1.0  0.81996  0.83405  0.90920  1.0000 0.0816494327
H   H200      1.0  0.63407  0.81479  0.87271  1.0000 0.1193320875
H   H201      1.0  0.36124  0.92100  0.96349  1.0000 0.1119242812
H   H202      1.0  0.16371  0.90086  0.99674  1.0000 0.0898440091
H   H203      1.0  0.46192  0.92562  0.90590  1.0000 0.070218816
H   H204      1.0  0.34685  0.06933  0.74992  1.0000 0.0607470063
H   H205      1.0  0.24241  0.02344  0.79509  1.0000 0.1193320875
H   H206      1.0  0.15175  0.03566  0.89524  1.0000 0.1401249175
H   H207      1.0  0.06660  0.08248  0.93982  1.0000 0.1008943395
H   H208      1.0  0.24569  0.00163  0.85478  1.0000 0.0898440091
H   H209      1.0  0.92993  0.91569  0.90921  1.0000 0.0898440091
H   H210      1.0  0.11619  0.93535  0.87274  1.0000 0.1308184199
H   H211      1.0  0.36124  0.42102  0.46347  1.0000 0.1119242812
H   H212      1.0  0.16374  0.40087  0.49672  1.0000 0.0898440091
H   H213      1.0  0.46224  0.42561  0.40595  1.0000 0.0816494327
H   H214      1.0  0.34652  0.56928  0.24981  1.0000 0.0607470063
H   H215      1.0  0.24265  0.52300  0.29466  1.0000 0.1119242812
H   H216      1.0  0.14855  0.53459  0.39588  1.0000 0.1308184199
H   H217      1.0  0.06513  0.58221  0.44003  1.0000 0.1008943395
H   H218      1.0  0.24584  0.50097  0.35488  1.0000 0.0816494327
H   H219      1.0  0.93008  0.41594  0.40923  1.0000 0.0898440091
H   H220      1.0  0.11594  0.43520  0.37274  1.0000 0.1193320875
H   H221      1.0  0.86124  0.92100  0.46349  1.0000 0.1119242812
H   H222      1.0  0.66371  0.90086  0.49674  1.0000 0.0898440091
H   H223      1.0  0.96192  0.92562  0.40590  1.0000 0.070218816
H   H224      1.0  0.84685  0.06933  0.24992  1.0000 0.0607470063
H   H225      1.0  0.74241  0.02344  0.29509  1.0000 0.1193320875
H   H226      1.0  0.65175  0.03566  0.39524  1.0000 0.1401249175
H   H227      1.0  0.56660  0.08248  0.43982  1.0000 0.1008943395
H   H228      1.0  0.74569  0.00163  0.35478  1.0000 0.0898440091
H   H229      1.0  0.42993  0.91569  0.40921  1.0000 0.0898440091
H   H230      1.0  0.61619  0.93535  0.37274  1.0000 0.1308184199
H   H231      1.0  0.86125  0.42099  0.96349  1.0000 0.1119242812
H   H232      1.0  0.66371  0.40086  0.99674  1.0000 0.0898440091
H   H233      1.0  0.96193  0.42560  0.90590  1.0000 0.070218816
H   H234      1.0  0.84687  0.56933  0.74990  1.0000 0.0607470063
H   H235      1.0  0.74248  0.52343  0.79509  1.0000 0.1193320875
H   H236      1.0  0.65174  0.53562  0.89526  1.0000 0.1401249175
H   H237      1.0  0.56657  0.58241  0.93985  1.0000 0.1008943395
H   H238      1.0  0.74566  0.50160  0.85478  1.0000 0.0898440091
H   H239      1.0  0.42994  0.41568  0.90920  1.0000 0.0816494327
H   H240      1.0  0.61619  0.43535  0.87274  1.0000 0.1193320875
H   H241      1.0  0.36124  0.32898  0.28653  1.0000 0.1119242812
H   H242      1.0  0.16374  0.34913  0.25328  1.0000 0.0898440091
H   H243      1.0  0.46224  0.32439  0.34405  1.0000 0.0816494327
H   H244      1.0  0.34652  0.18072  0.50019  1.0000 0.0607470063
H   H245      1.0  0.24265  0.22700  0.45534  1.0000 0.1119242812
H   H246      1.0  0.14855  0.21541  0.35412  1.0000 0.1308184199
H   H247      1.0  0.06513  0.16779  0.30997  1.0000 0.1008943395
H   H248      1.0  0.24584  0.24903  0.39512  1.0000 0.0816494327
H   H249      1.0  0.93008  0.33406  0.34077  1.0000 0.0898440091
H   H250      1.0  0.11594  0.31480  0.37726  1.0000 0.1193320875
H   H251      1.0  0.36124  0.82900  0.78651  1.0000 0.1119242812
H   H252      1.0  0.16371  0.84914  0.75326  1.0000 0.0898440091
H   H253      1.0  0.46193  0.82440  0.84410  1.0000 0.070218816
H   H254      1.0  0.34687  0.68067  0.00010  1.0000 0.0607470063
H   H255      1.0  0.24248  0.72657  0.95491  1.0000 0.1193320875
H   H256      1.0  0.15174  0.71438  0.85474  1.0000 0.1401249175
H   H257      1.0  0.06657  0.66759  0.81015  1.0000 0.1008943395
H   H258      1.0  0.24566  0.74840  0.89522  1.0000 0.0898440091
H   H259      1.0  0.92993  0.83431  0.84079  1.0000 0.0898440091
H   H260      1.0  0.11619  0.81465  0.87726  1.0000 0.1193320875
H   H261      1.0  0.86124  0.32897  0.78653  1.0000 0.1119242812
H   H262      1.0  0.66374  0.34913  0.75328  1.0000 0.0898440091
H   H263      1.0  0.96223  0.32439  0.84405  1.0000 0.0816494327
H   H264      1.0  0.84652  0.18072  0.00019  1.0000 0.0607470063
H   H265      1.0  0.74265  0.22700  0.95534  1.0000 0.1119242812
H   H266      1.0  0.64854  0.21542  0.85412  1.0000 0.1308184199
H   H267      1.0  0.56513  0.16779  0.80997  1.0000 0.1008943395
H   H268      1.0  0.74584  0.24903  0.89512  1.0000 0.0816494327
H   H269      1.0  0.43007  0.33405  0.84077  1.0000 0.0898440091
H   H270      1.0  0.61595  0.31480  0.87726  1.0000 0.1193320875
H   H271      1.0  0.86124  0.82900  0.28651  1.0000 0.1119242812
H   H272      1.0  0.66371  0.84914  0.25326  1.0000 0.0898440091
H   H273      1.0  0.96192  0.82438  0.34410  1.0000 0.070218816
H   H274      1.0  0.84685  0.68067  0.50008  1.0000 0.0607470063
H   H275      1.0  0.74241  0.72656  0.45491  1.0000 0.1193320875
H   H276      1.0  0.65175  0.71434  0.35476  1.0000 0.1401249175
H   H277      1.0  0.56660  0.66752  0.31018  1.0000 0.1008943395
H   H278      1.0  0.74569  0.74837  0.39522  1.0000 0.0898440091
H   H279      1.0  0.42993  0.83431  0.34079  1.0000 0.0898440091
H   H280      1.0  0.61619  0.81465  0.37726  1.0000 0.1308184199
H   H281      1.0  0.88874  0.92100  0.28658  1.0000 0.1119242812
H   H282      1.0  0.08634  0.90068  0.25336  1.0000 0.0816494327
H   H283      1.0  0.78776  0.92561  0.34406  1.0000 0.0816494327
H   H284      1.0  0.90335  0.06921  0.50022  1.0000 0.0607470063
H   H285      1.0  0.00735  0.02300  0.45534  1.0000 0.1119242812
H   H286      1.0  0.10145  0.03458  0.35412  1.0000 0.1308184199
H   H287      1.0  0.18486  0.08221  0.30997  1.0000 0.1008943395
H   H288      1.0  0.00416  0.00097  0.39512  1.0000 0.0816494327
H   H289      1.0  0.31997  0.91595  0.34080  1.0000 0.0816494327
H   H290      1.0  0.13407  0.93521  0.37729  1.0000 0.1193320875
H   H291      1.0  0.88874  0.42101  0.78657  1.0000 0.1119242812
H   H292      1.0  0.08633  0.40069  0.75336  1.0000 0.0816494327
H   H293      1.0  0.78777  0.42563  0.84406  1.0000 0.0816494327
H   H294      1.0  0.90340  0.56921  0.00019  1.0000 0.0607470063
H   H295      1.0  0.00743  0.52301  0.95534  1.0000 0.1119242812
H   H296      1.0  0.10140  0.53464  0.85413  1.0000 0.1308184199
H   H297      1.0  0.18481  0.58228  0.81000  1.0000 0.1008943395
H   H298      1.0  0.00415  0.50101  0.89513  1.0000 0.0816494327
H   H299      1.0  0.31997  0.41596  0.84080  1.0000 0.0898440091
H   H300      1.0  0.13407  0.43521  0.87729  1.0000 0.1193320875
H   H301      1.0  0.38874  0.92100  0.78658  1.0000 0.1119242812
H   H302      1.0  0.58634  0.90068  0.75336  1.0000 0.0816494327
H   H303      1.0  0.28776  0.92561  0.84406  1.0000 0.0816494327
H   H304      1.0  0.40335  0.06921  0.00022  1.0000 0.0607470063
H   H305      1.0  0.50735  0.02300  0.95534  1.0000 0.1119242812
H   H306      1.0  0.60145  0.03458  0.85412  1.0000 0.1308184199
H   H307      1.0  0.68486  0.08221  0.80997  1.0000 0.1008943395
H   H308      1.0  0.50416  0.00097  0.89512  1.0000 0.0816494327
H   H309      1.0  0.81997  0.91595  0.84080  1.0000 0.0816494327
H   H310      1.0  0.63407  0.93521  0.87729  1.0000 0.1193320875
H   H311      1.0  0.38874  0.42098  0.28656  1.0000 0.1119242812
H   H312      1.0  0.58636  0.40068  0.25334  1.0000 0.0816494327
H   H313      1.0  0.28808  0.42562  0.34412  1.0000 0.070218816
H   H314      1.0  0.40303  0.56926  0.50011  1.0000 0.0607470063
H   H315      1.0  0.50759  0.52344  0.45492  1.0000 0.1193320875
H   H316      1.0  0.59825  0.53566  0.35477  1.0000 0.1401249175
H   H317      1.0  0.68339  0.58248  0.31018  1.0000 0.1008943395
H   H318      1.0  0.50431  0.50163  0.39523  1.0000 0.0898440091
H   H319      1.0  0.82009  0.41570  0.34083  1.0000 0.0898440091
H   H320      1.0  0.63383  0.43536  0.37729  1.0000 0.1308184199
C   C1        1.0  0.00797  0.67832  0.08536  1.0000 0.1308184199
C   C2        1.0  0.01819  0.66901  0.04995  1.0000 -0.1826364849
C   C3        1.0  0.90746  0.65766  0.03102  1.0000 0.0816494327
C   C4        1.0  0.12746  0.69293  0.10496  1.0000 -0.0780436267
C   C5        1.0  0.10043  0.81141  0.02358  1.0000 0.070218816
C   C6        1.0  0.15830  0.78484  0.04889  1.0000 -0.1899575581
C   C7        1.0  0.08909  0.77451  0.07918  1.0000 0.1401249175
C   C8        1.0  0.96331  0.79157  0.08217  1.0000 -0.1624338933
C   C9        1.0  0.91363  0.81862  0.05609  1.0000 0.1008943395
C   C10       1.0  0.14891  0.74513  0.10604  1.0000 -0.0732886268
C   C11       1.0  0.88367  0.67675  0.10019  1.0000 -0.1696337842
C   C12       1.0  0.77742  0.66547  0.07957  1.0000 0.0898440091
C   C13       1.0  0.00796  0.17833  0.58539  1.0000 0.1401249175
C   C14       1.0  0.01819  0.16900  0.54998  1.0000 -0.1826364849
C   C15       1.0  0.90742  0.15762  0.53108  1.0000 0.0816494327
C   C16       1.0  0.12748  0.19292  0.60498  1.0000 -0.0780436267
C   C17       1.0  0.10046  0.31142  0.52358  1.0000 0.070218816
C   C18       1.0  0.15830  0.28483  0.54889  1.0000 -0.1965226306
C   C19       1.0  0.08908  0.27450  0.57918  1.0000 0.1401249175
C   C20       1.0  0.96331  0.29157  0.58217  1.0000 -0.1624338933
C   C21       1.0  0.91362  0.31861  0.55609  1.0000 0.1008943395
C   C22       1.0  0.14892  0.24513  0.60604  1.0000 -0.0732886268
C   C23       1.0  0.88366  0.17676  0.60022  1.0000 -0.1696337842
C   C24       1.0  0.77739  0.16549  0.57961  1.0000 0.0898440091
C   C25       1.0  0.50796  0.67833  0.58536  1.0000 0.1308184199
C   C26       1.0  0.51818  0.66902  0.54995  1.0000 -0.1826364849
C   C27       1.0  0.40745  0.65768  0.53102  1.0000 0.0816494327
C   C28       1.0  0.62746  0.69293  0.60496  1.0000 -0.0780436267
C   C29       1.0  0.60043  0.81141  0.52358  1.0000 0.070218816
C   C30       1.0  0.65830  0.78484  0.54889  1.0000 -0.1899575581
C   C31       1.0  0.58908  0.77451  0.57918  1.0000 0.1401249175
C   C32       1.0  0.46331  0.79157  0.58217  1.0000 -0.1624338933
C   C33       1.0  0.41363  0.81862  0.55609  1.0000 0.1008943395
C   C34       1.0  0.64891  0.74513  0.60604  1.0000 -0.0732886268
C   C35       1.0  0.38366  0.67675  0.60019  1.0000 -0.1696337842
C   C36       1.0  0.27742  0.66547  0.57957  1.0000 0.0898440091
C   C37       1.0  0.50796  0.17833  0.08539  1.0000 0.1401249175
C   C38       1.0  0.51819  0.16900  0.04998  1.0000 -0.1826364849
C   C39       1.0  0.40742  0.15762  0.03108  1.0000 0.0816494327
C   C40       1.0  0.62748  0.19292  0.10498  1.0000 -0.0780436267
C   C41       1.0  0.60046  0.31142  0.02358  1.0000 0.070218816
C   C42       1.0  0.65830  0.28483  0.04889  1.0000 -0.1965226306
C   C43       1.0  0.58908  0.27450  0.07918  1.0000 0.1401249175
C   C44       1.0  0.46331  0.29157  0.08217  1.0000 -0.1624338933
C   C45       1.0  0.41362  0.31861  0.05609  1.0000 0.1008943395
C   C46       1.0  0.64892  0.24513  0.10604  1.0000 -0.0732886268
C   C47       1.0  0.38366  0.17676  0.10022  1.0000 -0.1696337842
C   C48       1.0  0.27739  0.16549  0.07961  1.0000 0.0898440091
C   C49       1.0  0.74195  0.07161  0.08538  1.0000 0.1308184199
C   C50       1.0  0.73182  0.08096  0.04998  1.0000 -0.1826364849
C   C51       1.0  0.84254  0.09236  0.03109  1.0000 0.0816494327
C   C52       1.0  0.62221  0.05701  0.10493  1.0000 -0.0780436267
C   C53       1.0  0.64955  0.93843  0.02372  1.0000 0.0607470063
C   C54       1.0  0.59193  0.96495  0.04906  1.0000 -0.1899575581
C   C55       1.0  0.66136  0.97539  0.07926  1.0000 0.1401249175
C   C56       1.0  0.78755  0.95830  0.08212  1.0000 -0.1624338933
C   C57       1.0  0.83711  0.93115  0.05608  1.0000 0.1008943395
C   C58       1.0  0.60076  0.00475  0.10607  1.0000 -0.0780436267
C   C59       1.0  0.86625  0.07327  0.10020  1.0000 -0.1696337842
C   C60       1.0  0.97261  0.08451  0.07957  1.0000 0.0898440091
C   C61       1.0  0.74195  0.57161  0.58536  1.0000 0.1308184199
C   C62       1.0  0.73183  0.58095  0.54995  1.0000 -0.1826364849
C   C63       1.0  0.84251  0.59231  0.53103  1.0000 0.0816494327
C   C64       1.0  0.62222  0.55702  0.60492  1.0000 -0.0780436267
C   C65       1.0  0.64958  0.43843  0.52371  1.0000 0.0607470063
C   C66       1.0  0.59193  0.46494  0.54906  1.0000 -0.1899575581
C   C67       1.0  0.66136  0.47538  0.57927  1.0000 0.1401249175
C   C68       1.0  0.78755  0.45830  0.58212  1.0000 -0.1624338933
C   C69       1.0  0.83711  0.43114  0.55608  1.0000 0.1008943395
C   C70       1.0  0.60077  0.50475  0.60606  1.0000 -0.0780436267
C   C71       1.0  0.86625  0.57328  0.60017  1.0000 -0.1696337842
C   C72       1.0  0.97258  0.58453  0.57953  1.0000 0.0898440091
C   C73       1.0  0.24195  0.07161  0.58538  1.0000 0.1308184199
C   C74       1.0  0.23182  0.08096  0.54998  1.0000 -0.1826364849
C   C75       1.0  0.34254  0.09236  0.53109  1.0000 0.0816494327
C   C76       1.0  0.12221  0.05701  0.60493  1.0000 -0.0780436267
C   C77       1.0  0.14955  0.93843  0.52372  1.0000 0.0607470063
C   C78       1.0  0.09193  0.96495  0.54906  1.0000 -0.1899575581
C   C79       1.0  0.16136  0.97539  0.57926  1.0000 0.1401249175
C   C80       1.0  0.28755  0.95830  0.58212  1.0000 -0.1624338933
C   C81       1.0  0.33711  0.93115  0.55608  1.0000 0.1008943395
C   C82       1.0  0.10076  0.00475  0.60607  1.0000 -0.0780436267
C   C83       1.0  0.36625  0.07327  0.60020  1.0000 -0.1696337842
C   C84       1.0  0.47261  0.08451  0.57957  1.0000 0.0898440091
C   C85       1.0  0.24197  0.57160  0.08538  1.0000 0.1308184199
C   C86       1.0  0.23184  0.58095  0.04998  1.0000 -0.1826364849
C   C87       1.0  0.34256  0.59235  0.03109  1.0000 0.0816494327
C   C88       1.0  0.12222  0.55701  0.10493  1.0000 -0.0780436267
C   C89       1.0  0.14955  0.43842  0.02372  1.0000 0.0607470063
C   C90       1.0  0.09193  0.46495  0.04906  1.0000 -0.1899575581
C   C91       1.0  0.16136  0.47538  0.07926  1.0000 0.1401249175
C   C92       1.0  0.28755  0.45830  0.08212  1.0000 -0.1624338933
C   C93       1.0  0.33711  0.43115  0.05608  1.0000 0.1008943395
C   C94       1.0  0.10076  0.50475  0.10607  1.0000 -0.0780436267
C   C95       1.0  0.36626  0.57327  0.10020  1.0000 -0.1696337842
C   C96       1.0  0.47261  0.58451  0.07957  1.0000 0.0898440091
C   C97       1.0  0.74196  0.67840  0.66462  1.0000 0.1308184199
C   C98       1.0  0.73183  0.66905  0.70002  1.0000 -0.1826364849
C   C99       1.0  0.84256  0.65765  0.71891  1.0000 0.0816494327
C   C100      1.0  0.62221  0.69299  0.64507  1.0000 -0.0780436267
C   C101      1.0  0.64955  0.81158  0.72628  1.0000 0.0607470063
C   C102      1.0  0.59193  0.78505  0.70094  1.0000 -0.1899575581
C   C103      1.0  0.66136  0.77461  0.67074  1.0000 0.1401249175
C   C104      1.0  0.78755  0.79170  0.66788  1.0000 -0.1624338933
C   C105      1.0  0.83711  0.81885  0.69392  1.0000 0.1008943395
C   C106      1.0  0.60076  0.74525  0.64393  1.0000 -0.0780436267
C   C107      1.0  0.86626  0.67673  0.64980  1.0000 -0.1696337842
C   C108      1.0  0.97261  0.66549  0.67043  1.0000 0.0898440091
C   C109      1.0  0.74196  0.17839  0.16464  1.0000 0.1308184199
C   C110      1.0  0.73184  0.16905  0.20005  1.0000 -0.1826364849
C   C111      1.0  0.84251  0.15769  0.21897  1.0000 0.0816494327
C   C112      1.0  0.62223  0.19299  0.14509  1.0000 -0.0780436267
C   C113      1.0  0.64958  0.31157  0.22629  1.0000 0.0607470063
C   C114      1.0  0.59193  0.28506  0.20094  1.0000 -0.1899575581
C   C115      1.0  0.66136  0.27463  0.17074  1.0000 0.1401249175
C   C116      1.0  0.78755  0.29170  0.16788  1.0000 -0.1624338933
C   C117      1.0  0.83711  0.31886  0.19392  1.0000 0.1008943395
C   C118      1.0  0.60077  0.24525  0.14394  1.0000 -0.0780436267
C   C119      1.0  0.86626  0.17672  0.14983  1.0000 -0.1696337842
C   C120      1.0  0.97258  0.16547  0.17047  1.0000 0.0898440091
C   C121      1.0  0.24195  0.67839  0.16462  1.0000 0.1308184199
C   C122      1.0  0.23182  0.66904  0.20002  1.0000 -0.1826364849
C   C123      1.0  0.34254  0.65764  0.21891  1.0000 0.0816494327
C   C124      1.0  0.12221  0.69299  0.14507  1.0000 -0.0780436267
C   C125      1.0  0.14955  0.81157  0.22628  1.0000 0.0607470063
C   C126      1.0  0.09193  0.78505  0.20094  1.0000 -0.1899575581
C   C127      1.0  0.16136  0.77461  0.17074  1.0000 0.1401249175
C   C128      1.0  0.28755  0.79170  0.16788  1.0000 -0.1624338933
C   C129      1.0  0.33711  0.81885  0.19392  1.0000 0.1008943395
C   C130      1.0  0.10076  0.74525  0.14393  1.0000 -0.0780436267
C   C131      1.0  0.36625  0.67673  0.14980  1.0000 -0.1696337842
C   C132      1.0  0.47261  0.66549  0.17043  1.0000 0.0898440091
C   C133      1.0  0.24196  0.17839  0.66464  1.0000 0.1308184199
C   C134      1.0  0.23184  0.16905  0.70005  1.0000 -0.1826364849
C   C135      1.0  0.34251  0.15769  0.71897  1.0000 0.0816494327
C   C136      1.0  0.12223  0.19299  0.64509  1.0000 -0.0780436267
C   C137      1.0  0.14958  0.31157  0.72629  1.0000 0.0607470063
C   C138      1.0  0.09193  0.28506  0.70094  1.0000 -0.1899575581
C   C139      1.0  0.16136  0.27463  0.67074  1.0000 0.1401249175
C   C140      1.0  0.28755  0.29170  0.66788  1.0000 -0.1624338933
C   C141      1.0  0.33711  0.31886  0.69392  1.0000 0.1008943395
C   C142      1.0  0.10077  0.24525  0.64394  1.0000 -0.0780436267
C   C143      1.0  0.36626  0.17672  0.64983  1.0000 -0.1696337842
C   C144      1.0  0.47258  0.16547  0.67047  1.0000 0.0898440091
C   C145      1.0  0.00796  0.07167  0.66464  1.0000 0.1308184199
C   C146      1.0  0.01818  0.08098  0.70005  1.0000 -0.1826364849
C   C147      1.0  0.90745  0.09232  0.71898  1.0000 0.0816494327
C   C148      1.0  0.12746  0.05707  0.64504  1.0000 -0.0780436267
C   C149      1.0  0.10043  0.93859  0.72642  1.0000 0.070218816
C   C150      1.0  0.15830  0.96516  0.70111  1.0000 -0.1899575581
C   C151      1.0  0.08908  0.97549  0.67082  1.0000 0.1401249175
C   C152      1.0  0.96331  0.95843  0.66783  1.0000 -0.1624338933
C   C153      1.0  0.91363  0.93138  0.69391  1.0000 0.1008943395
C   C154      1.0  0.14891  0.00487  0.64396  1.0000 -0.0732886268
C   C155      1.0  0.88366  0.07325  0.64981  1.0000 -0.1696337842
C   C156      1.0  0.77742  0.08453  0.67043  1.0000 0.0898440091
C   C157      1.0  0.00796  0.57167  0.16462  1.0000 0.1401249175
C   C158      1.0  0.01819  0.58100  0.20002  1.0000 -0.1826364849
C   C159      1.0  0.90741  0.59238  0.21892  1.0000 0.0816494327
C   C160      1.0  0.12747  0.55707  0.14503  1.0000 -0.0780436267
C   C161      1.0  0.10046  0.43858  0.22642  1.0000 0.070218816
C   C162      1.0  0.15830  0.46517  0.20111  1.0000 -0.1965226306
C   C163      1.0  0.08908  0.47549  0.17082  1.0000 0.1401249175
C   C164      1.0  0.96331  0.45843  0.16783  1.0000 -0.1624338933
C   C165      1.0  0.91362  0.43139  0.19391  1.0000 0.1008943395
C   C166      1.0  0.14891  0.50487  0.14396  1.0000 -0.0732886268
C   C167      1.0  0.88365  0.57324  0.14978  1.0000 -0.1696337842
C   C168      1.0  0.77739  0.58451  0.17039  1.0000 0.0898440091
C   C169      1.0  0.50796  0.07167  0.16464  1.0000 0.1308184199
C   C170      1.0  0.51818  0.08098  0.20005  1.0000 -0.1826364849
C   C171      1.0  0.40745  0.09232  0.21898  1.0000 0.0816494327
C   C172      1.0  0.62746  0.05707  0.14504  1.0000 -0.0780436267
C   C173      1.0  0.60043  0.93859  0.22642  1.0000 0.070218816
C   C174      1.0  0.65830  0.96516  0.20111  1.0000 -0.1899575581
C   C175      1.0  0.58908  0.97549  0.17082  1.0000 0.1401249175
C   C176      1.0  0.46331  0.95843  0.16783  1.0000 -0.1624338933
C   C177      1.0  0.41363  0.93138  0.19391  1.0000 0.1008943395
C   C178      1.0  0.64891  0.00487  0.14396  1.0000 -0.0732886268
C   C179      1.0  0.38366  0.07325  0.14981  1.0000 -0.1696337842
C   C180      1.0  0.27742  0.08453  0.17043  1.0000 0.0898440091
C   C181      1.0  0.50798  0.57168  0.66464  1.0000 0.1308184199
C   C182      1.0  0.51820  0.58099  0.70005  1.0000 -0.1826364849
C   C183      1.0  0.40747  0.59233  0.71898  1.0000 0.0816494327
C   C184      1.0  0.62747  0.55708  0.64504  1.0000 -0.0780436267
C   C185      1.0  0.60044  0.43859  0.72642  1.0000 0.070218816
C   C186      1.0  0.65830  0.46516  0.70111  1.0000 -0.1899575581
C   C187      1.0  0.58908  0.47549  0.67082  1.0000 0.1401249175
C   C188      1.0  0.46331  0.45843  0.66783  1.0000 -0.1624338933
C   C189      1.0  0.41363  0.43138  0.69391  1.0000 0.1008943395
C   C190      1.0  0.64891  0.50487  0.64396  1.0000 -0.0732886268
C   C191      1.0  0.38367  0.57325  0.64981  1.0000 -0.1696337842
C   C192      1.0  0.27743  0.58453  0.67043  1.0000 0.0898440091
C   C193      1.0  0.99205  0.32167  0.91461  1.0000 0.1401249175
C   C194      1.0  0.98182  0.33099  0.95001  1.0000 -0.1826364849
C   C195      1.0  0.09259  0.34238  0.96892  1.0000 0.0816494327
C   C196      1.0  0.87254  0.30706  0.89503  1.0000 -0.0780436267
C   C197      1.0  0.89939  0.18843  0.97638  1.0000 0.070218816
C   C198      1.0  0.84157  0.21502  0.95105  1.0000 -0.1965226306
C   C199      1.0  0.91085  0.22542  0.92078  1.0000 0.1401249175
C   C200      1.0  0.03663  0.20838  0.91780  1.0000 -0.1624338933
C   C201      1.0  0.08631  0.18131  0.94388  1.0000 0.1008943395
C   C202      1.0  0.85110  0.25486  0.89394  1.0000 -0.0732886268
C   C203      1.0  0.11635  0.32324  0.89978  1.0000 -0.1696337842
C   C204      1.0  0.22261  0.33452  0.92039  1.0000 0.0898440091
C   C205      1.0  0.99195  0.82161  0.41461  1.0000 0.1308184199
C   C206      1.0  0.98183  0.83096  0.45001  1.0000 -0.1826364849
C   C207      1.0  0.09256  0.84235  0.46891  1.0000 0.0816494327
C   C208      1.0  0.87219  0.80703  0.39506  1.0000 -0.0780436267
C   C209      1.0  0.89973  0.68857  0.47632  1.0000 0.070218816
C   C210      1.0  0.84204  0.71510  0.45099  1.0000 -0.1899575581
C   C211      1.0  0.91145  0.72546  0.42077  1.0000 0.1401249175
C   C212      1.0  0.03762  0.70837  0.41789  1.0000 -0.1624338933
C   C213      1.0  0.08717  0.68123  0.44396  1.0000 0.1008943395
C   C214      1.0  0.85076  0.75477  0.39395  1.0000 -0.0780436267
C   C215      1.0  0.11626  0.82327  0.39980  1.0000 -0.1696337842
C   C216      1.0  0.22261  0.83451  0.42043  1.0000 0.0898440091
C   C217      1.0  0.49205  0.32166  0.41461  1.0000 0.1401249175
C   C218      1.0  0.48182  0.33098  0.45001  1.0000 -0.1826364849
C   C219      1.0  0.59259  0.34236  0.46892  1.0000 0.0816494327
C   C220      1.0  0.37254  0.30706  0.39503  1.0000 -0.0780436267
C   C221      1.0  0.39939  0.18843  0.47638  1.0000 0.0607470063
C   C222      1.0  0.34157  0.21502  0.45105  1.0000 -0.1965226306
C   C223      1.0  0.41085  0.22542  0.42078  1.0000 0.1401249175
C   C224      1.0  0.53663  0.20838  0.41780  1.0000 -0.1624338933
C   C225      1.0  0.58631  0.18131  0.44388  1.0000 0.1008943395
C   C226      1.0  0.35110  0.25486  0.39394  1.0000 -0.0732886268
C   C227      1.0  0.61635  0.32324  0.39978  1.0000 -0.1696337842
C   C228      1.0  0.72261  0.33451  0.42039  1.0000 0.0898440091
C   C229      1.0  0.49196  0.82160  0.91462  1.0000 0.1308184199
C   C230      1.0  0.48183  0.83095  0.95002  1.0000 -0.1826364849
C   C231      1.0  0.59255  0.84235  0.96891  1.0000 0.0816494327
C   C232      1.0  0.37221  0.80701  0.89506  1.0000 -0.0780436267
C   C233      1.0  0.39955  0.68842  0.97628  1.0000 0.0607470063
C   C234      1.0  0.34193  0.71495  0.95094  1.0000 -0.1899575581
C   C235      1.0  0.41136  0.72539  0.92074  1.0000 0.1401249175
C   C236      1.0  0.53755  0.70830  0.91788  1.0000 -0.1624338933
C   C237      1.0  0.58711  0.68115  0.94392  1.0000 0.1008943395
C   C238      1.0  0.35076  0.75475  0.89393  1.0000 -0.0780436267
C   C239      1.0  0.61626  0.82327  0.89980  1.0000 -0.1696337842
C   C240      1.0  0.72261  0.83451  0.92043  1.0000 0.0898440091
C   C241      1.0  0.25796  0.92833  0.91464  1.0000 0.1308184199
C   C242      1.0  0.26819  0.91901  0.95005  1.0000 -0.1826364849
C   C243      1.0  0.15746  0.90766  0.96898  1.0000 0.0816494327
C   C244      1.0  0.37744  0.94294  0.89505  1.0000 -0.0780436267
C   C245      1.0  0.35058  0.06156  0.97639  1.0000 0.070218816
C   C246      1.0  0.40843  0.03499  0.95105  1.0000 -0.1965226306
C   C247      1.0  0.33915  0.02459  0.92078  1.0000 0.1401249175
C   C248      1.0  0.21337  0.04163  0.91780  1.0000 -0.1624338933
C   C249      1.0  0.16370  0.06870  0.94388  1.0000 0.1008943395
C   C250      1.0  0.39890  0.99515  0.89395  1.0000 -0.0732886268
C   C251      1.0  0.13366  0.92675  0.89981  1.0000 -0.1696337842
C   C252      1.0  0.02742  0.91547  0.92043  1.0000 0.0898440091
C   C253      1.0  0.25806  0.42838  0.41464  1.0000 0.1308184199
C   C254      1.0  0.26817  0.41904  0.45006  1.0000 -0.1826364849
C   C255      1.0  0.15750  0.40768  0.46897  1.0000 0.0816494327
C   C256      1.0  0.37779  0.44297  0.39508  1.0000 -0.0780436267
C   C257      1.0  0.35024  0.56142  0.47633  1.0000 0.070218816
C   C258      1.0  0.40796  0.53491  0.45100  1.0000 -0.1899575581
C   C259      1.0  0.33856  0.52455  0.42077  1.0000 0.1401249175
C   C260      1.0  0.21238  0.54164  0.41789  1.0000 -0.1624338933
C   C261      1.0  0.16283  0.56878  0.44396  1.0000 0.1008943395
C   C262      1.0  0.39923  0.49523  0.39396  1.0000 -0.0780436267
C   C263      1.0  0.13375  0.42672  0.39983  1.0000 -0.1696337842
C   C264      1.0  0.02742  0.41547  0.42047  1.0000 0.0898440091
C   C265      1.0  0.75796  0.92833  0.41464  1.0000 0.1308184199
C   C266      1.0  0.76819  0.91901  0.45005  1.0000 -0.1826364849
C   C267      1.0  0.65746  0.90767  0.46898  1.0000 0.0816494327
C   C268      1.0  0.87744  0.94294  0.39505  1.0000 -0.0780436267
C   C269      1.0  0.85058  0.06156  0.47639  1.0000 0.070218816
C   C270      1.0  0.90843  0.03499  0.45105  1.0000 -0.1965226306
C   C271      1.0  0.83915  0.02459  0.42078  1.0000 0.1401249175
C   C272      1.0  0.71337  0.04163  0.41780  1.0000 -0.1624338933
C   C273      1.0  0.66370  0.06870  0.44388  1.0000 0.1008943395
C   C274      1.0  0.89890  0.99515  0.39395  1.0000 -0.0732886268
C   C275      1.0  0.63366  0.92675  0.39981  1.0000 -0.1696337842
C   C276      1.0  0.52742  0.91547  0.42043  1.0000 0.0898440091
C   C277      1.0  0.75797  0.42832  0.91464  1.0000 0.1308184199
C   C278      1.0  0.76819  0.41900  0.95005  1.0000 -0.1826364849
C   C279      1.0  0.65747  0.40765  0.96898  1.0000 0.0816494327
C   C280      1.0  0.87746  0.44293  0.89505  1.0000 -0.0780436267
C   C281      1.0  0.85043  0.56141  0.97642  1.0000 0.070218816
C   C282      1.0  0.90830  0.53484  0.95111  1.0000 -0.1899575581
C   C283      1.0  0.83909  0.52451  0.92082  1.0000 0.1401249175
C   C284      1.0  0.71331  0.54157  0.91783  1.0000 -0.1624338933
C   C285      1.0  0.66363  0.56862  0.94391  1.0000 0.1008943395
C   C286      1.0  0.89891  0.49513  0.89396  1.0000 -0.0732886268
C   C287      1.0  0.63367  0.42674  0.89981  1.0000 -0.1696337842
C   C288      1.0  0.52742  0.41546  0.92043  1.0000 0.0898440091
C   C289      1.0  0.25806  0.32162  0.33536  1.0000 0.1308184199
C   C290      1.0  0.26817  0.33096  0.29994  1.0000 -0.1826364849
C   C291      1.0  0.15750  0.34232  0.28103  1.0000 0.0816494327
C   C292      1.0  0.37779  0.30703  0.35492  1.0000 -0.0780436267
C   C293      1.0  0.35024  0.18858  0.27367  1.0000 0.070218816
C   C294      1.0  0.40796  0.21509  0.29900  1.0000 -0.1899575581
C   C295      1.0  0.33856  0.22545  0.32923  1.0000 0.1401249175
C   C296      1.0  0.21238  0.20836  0.33211  1.0000 -0.1624338933
C   C297      1.0  0.16283  0.18122  0.30604  1.0000 0.1008943395
C   C298      1.0  0.39923  0.25477  0.35604  1.0000 -0.0780436267
C   C299      1.0  0.13375  0.32328  0.35017  1.0000 -0.1696337842
C   C300      1.0  0.02742  0.33453  0.32953  1.0000 0.0898440091
C   C301      1.0  0.25797  0.82168  0.83536  1.0000 0.1308184199
C   C302      1.0  0.26819  0.83099  0.79995  1.0000 -0.1826364849
C   C303      1.0  0.15746  0.84233  0.78102  1.0000 0.0816494327
C   C304      1.0  0.37746  0.80707  0.85496  1.0000 -0.0780436267
C   C305      1.0  0.35043  0.68859  0.77358  1.0000 0.070218816
C   C306      1.0  0.40830  0.71516  0.79889  1.0000 -0.1899575581
C   C307      1.0  0.33909  0.72549  0.82918  1.0000 0.1401249175
C   C308      1.0  0.21331  0.70843  0.83217  1.0000 -0.1624338933
C   C309      1.0  0.16363  0.68138  0.80609  1.0000 0.1008943395
C   C310      1.0  0.39891  0.75487  0.85604  1.0000 -0.0732886268
C   C311      1.0  0.13366  0.82325  0.85019  1.0000 -0.1696337842
C   C312      1.0  0.02742  0.83453  0.82957  1.0000 0.0898440091
C   C313      1.0  0.75806  0.32162  0.83536  1.0000 0.1308184199
C   C314      1.0  0.76817  0.33095  0.79994  1.0000 -0.1826364849
C   C315      1.0  0.65750  0.34231  0.78103  1.0000 0.0816494327
C   C316      1.0  0.87780  0.30703  0.85492  1.0000 -0.0780436267
C   C317      1.0  0.85024  0.18858  0.77367  1.0000 0.070218816
C   C318      1.0  0.90796  0.21509  0.79900  1.0000 -0.1899575581
C   C319      1.0  0.83856  0.22545  0.82923  1.0000 0.1401249175
C   C320      1.0  0.71238  0.20836  0.83211  1.0000 -0.1624338933
C   C321      1.0  0.66283  0.18122  0.80604  1.0000 0.1008943395
C   C322      1.0  0.89923  0.25477  0.85604  1.0000 -0.0780436267
C   C323      1.0  0.63375  0.32328  0.85017  1.0000 -0.1696337842
C   C324      1.0  0.52741  0.33452  0.82953  1.0000 0.0898440091
C   C325      1.0  0.75796  0.82167  0.33536  1.0000 0.1308184199
C   C326      1.0  0.76819  0.83099  0.29995  1.0000 -0.1826364849
C   C327      1.0  0.65746  0.84233  0.28102  1.0000 0.0816494327
C   C328      1.0  0.87744  0.80706  0.35495  1.0000 -0.0780436267
C   C329      1.0  0.85058  0.68844  0.27361  1.0000 0.070218816
C   C330      1.0  0.90843  0.71501  0.29895  1.0000 -0.1965226306
C   C331      1.0  0.83915  0.72541  0.32922  1.0000 0.1401249175
C   C332      1.0  0.71337  0.70837  0.33220  1.0000 -0.1624338933
C   C333      1.0  0.66370  0.68130  0.30612  1.0000 0.1008943395
C   C334      1.0  0.89890  0.75485  0.35605  1.0000 -0.0732886268
C   C335      1.0  0.63366  0.82325  0.35019  1.0000 -0.1696337842
C   C336      1.0  0.52742  0.83453  0.32957  1.0000 0.0898440091
C   C337      1.0  0.99195  0.92839  0.33539  1.0000 0.1308184199
C   C338      1.0  0.98183  0.91904  0.29999  1.0000 -0.1826364849
C   C339      1.0  0.09256  0.90765  0.28109  1.0000 0.0816494327
C   C340      1.0  0.87219  0.94297  0.35494  1.0000 -0.0780436267
C   C341      1.0  0.89973  0.06143  0.27368  1.0000 0.070218816
C   C342      1.0  0.84204  0.03490  0.29901  1.0000 -0.1899575581
C   C343      1.0  0.91145  0.02454  0.32923  1.0000 0.1401249175
C   C344      1.0  0.03762  0.04163  0.33211  1.0000 -0.1624338933
C   C345      1.0  0.08717  0.06877  0.30604  1.0000 0.1008943395
C   C346      1.0  0.85076  0.99523  0.35605  1.0000 -0.0780436267
C   C347      1.0  0.11626  0.92673  0.35020  1.0000 -0.1696337842
C   C348      1.0  0.22261  0.91549  0.32957  1.0000 0.0898440091
C   C349      1.0  0.99196  0.42840  0.83538  1.0000 0.1308184199
C   C350      1.0  0.98183  0.41906  0.79998  1.0000 -0.1826364849
C   C351      1.0  0.09256  0.40766  0.78109  1.0000 0.0816494327
C   C352      1.0  0.87221  0.44299  0.85494  1.0000 -0.0780436267
C   C353      1.0  0.89955  0.56158  0.77372  1.0000 0.0607470063
C   C354      1.0  0.84193  0.53505  0.79906  1.0000 -0.1899575581
C   C355      1.0  0.91136  0.52461  0.82926  1.0000 0.1401249175
C   C356      1.0  0.03755  0.54170  0.83212  1.0000 -0.1624338933
C   C357      1.0  0.08711  0.56885  0.80608  1.0000 0.1008943395
C   C358      1.0  0.85076  0.49525  0.85607  1.0000 -0.0780436267
C   C359      1.0  0.11626  0.42673  0.85020  1.0000 -0.1696337842
C   C360      1.0  0.22261  0.41550  0.82957  1.0000 0.0898440091
C   C361      1.0  0.49195  0.92839  0.83539  1.0000 0.1308184199
C   C362      1.0  0.48183  0.91904  0.79999  1.0000 -0.1826364849
C   C363      1.0  0.59256  0.90765  0.78109  1.0000 0.0816494327
C   C364      1.0  0.37219  0.94297  0.85494  1.0000 -0.0780436267
C   C365      1.0  0.39973  0.06143  0.77368  1.0000 0.070218816
C   C366      1.0  0.34204  0.03490  0.79901  1.0000 -0.1899575581
C   C367      1.0  0.41145  0.02454  0.82923  1.0000 0.1401249175
C   C368      1.0  0.53762  0.04163  0.83211  1.0000 -0.1624338933
C   C369      1.0  0.58717  0.06877  0.80604  1.0000 0.1008943395
C   C370      1.0  0.35076  0.99523  0.85605  1.0000 -0.0780436267
C   C371      1.0  0.61626  0.92673  0.85020  1.0000 -0.1696337842
C   C372      1.0  0.72261  0.91549  0.82957  1.0000 0.0898440091
C   C373      1.0  0.49205  0.42834  0.33539  1.0000 0.1401249175
C   C374      1.0  0.48182  0.41902  0.29999  1.0000 -0.1826364849
C   C375      1.0  0.59259  0.40764  0.28108  1.0000 0.0816494327
C   C376      1.0  0.37254  0.44294  0.35497  1.0000 -0.0780436267
C   C377      1.0  0.39939  0.56157  0.27362  1.0000 0.0607470063
C   C378      1.0  0.34157  0.53498  0.29895  1.0000 -0.1965226306
C   C379      1.0  0.41085  0.52458  0.32922  1.0000 0.1401249175
C   C380      1.0  0.53663  0.54162  0.33220  1.0000 -0.1624338933
C   C381      1.0  0.58631  0.56869  0.30612  1.0000 0.1008943395
C   C382      1.0  0.35110  0.49514  0.35606  1.0000 -0.0732886268
C   C383      1.0  0.61635  0.42676  0.35022  1.0000 -0.1696337842
C   C384      1.0  0.72261  0.41549  0.32961  1.0000 0.0898440091
N   N1        1.0  0.97967  0.82877  0.02701  1.0000 -0.2196463974
N   N2        1.0  0.78895  0.65455  0.04575  1.0000 -0.2196463974
N   N3        1.0  0.97967  0.32876  0.52701  1.0000 -0.2196463974
N   N4        1.0  0.78889  0.15455  0.54580  1.0000 -0.2196463974
N   N5        1.0  0.47967  0.82877  0.52701  1.0000 -0.2196463974
N   N6        1.0  0.28894  0.65456  0.54575  1.0000 -0.2196463974
N   N7        1.0  0.47967  0.32876  0.02701  1.0000 -0.2196463974
N   N8        1.0  0.28889  0.15455  0.04580  1.0000 -0.2196463974
N   N9        1.0  0.77055  0.92098  0.02714  1.0000 -0.2196463974
N   N10       1.0  0.96113  0.09547  0.04580  1.0000 -0.2196463974
N   N11       1.0  0.77055  0.42097  0.52714  1.0000 -0.2196463974
N   N12       1.0  0.96108  0.59546  0.54576  1.0000 -0.2196463974
N   N13       1.0  0.27055  0.92098  0.52714  1.0000 -0.2196463974
N   N14       1.0  0.46113  0.09547  0.54580  1.0000 -0.2196463974
N   N15       1.0  0.27055  0.42098  0.02714  1.0000 -0.2196463974
N   N16       1.0  0.46114  0.59546  0.04580  1.0000 -0.2196463974
N   N17       1.0  0.77055  0.82902  0.72286  1.0000 -0.2196463974
N   N18       1.0  0.96113  0.65454  0.70420  1.0000 -0.2196463974
N   N19       1.0  0.77055  0.32903  0.22286  1.0000 -0.2196463974
N   N20       1.0  0.96108  0.15454  0.20424  1.0000 -0.2196463974
N   N21       1.0  0.27055  0.82902  0.22286  1.0000 -0.2196463974
N   N22       1.0  0.46113  0.65453  0.20420  1.0000 -0.2196463974
N   N23       1.0  0.27055  0.32903  0.72286  1.0000 -0.2196463974
N   N24       1.0  0.46108  0.15454  0.70424  1.0000 -0.2196463974
N   N25       1.0  0.97967  0.92123  0.72299  1.0000 -0.2196463974
N   N26       1.0  0.78894  0.09544  0.70425  1.0000 -0.2196463974
N   N27       1.0  0.97967  0.42124  0.22299  1.0000 -0.2196463974
N   N28       1.0  0.78889  0.59545  0.20420  1.0000 -0.2196463974
N   N29       1.0  0.47967  0.92123  0.22299  1.0000 -0.2196463974
N   N30       1.0  0.28894  0.09544  0.20425  1.0000 -0.2196463974
N   N31       1.0  0.47967  0.42123  0.72299  1.0000 -0.2196463974
N   N32       1.0  0.28895  0.59545  0.70425  1.0000 -0.2196463974
N   N33       1.0  0.02024  0.17108  0.97293  1.0000 -0.2196463974
N   N34       1.0  0.21111  0.34547  0.95420  1.0000 -0.2196463974
N   N35       1.0  0.02065  0.67113  0.47291  1.0000 -0.2196463974
N   N36       1.0  0.21113  0.84546  0.45420  1.0000 -0.2196463974
N   N37       1.0  0.52024  0.17108  0.47293  1.0000 -0.2196463974
N   N38       1.0  0.71111  0.34545  0.45420  1.0000 -0.2196463974
N   N39       1.0  0.52055  0.67098  0.97286  1.0000 -0.2196463974
N   N40       1.0  0.71113  0.84546  0.95420  1.0000 -0.2196463974
N   N41       1.0  0.22977  0.07893  0.97293  1.0000 -0.2196463974
N   N42       1.0  0.03895  0.90455  0.95425  1.0000 -0.2196463974
N   N43       1.0  0.22936  0.57888  0.47291  1.0000 -0.2196463974
N   N44       1.0  0.03892  0.40454  0.45424  1.0000 -0.2196463974
N   N45       1.0  0.72976  0.07893  0.47293  1.0000 -0.2196463974
N   N46       1.0  0.53895  0.90455  0.45425  1.0000 -0.2196463974
N   N47       1.0  0.72967  0.57877  0.97299  1.0000 -0.2196463974
N   N48       1.0  0.53895  0.40454  0.95424  1.0000 -0.2196463974
N   N49       1.0  0.22936  0.17112  0.27709  1.0000 -0.2196463974
N   N50       1.0  0.03892  0.34546  0.29576  1.0000 -0.2196463974
N   N51       1.0  0.22967  0.67123  0.77701  1.0000 -0.2196463974
N   N52       1.0  0.03895  0.84545  0.79575  1.0000 -0.2196463974
N   N53       1.0  0.72936  0.17112  0.77709  1.0000 -0.2196463974
N   N54       1.0  0.53892  0.34544  0.79576  1.0000 -0.2196463974
N   N55       1.0  0.72976  0.67107  0.27707  1.0000 -0.2196463974
N   N56       1.0  0.53895  0.84545  0.29575  1.0000 -0.2196463974
N   N57       1.0  0.02065  0.07887  0.27709  1.0000 -0.2196463974
N   N58       1.0  0.21113  0.90454  0.29580  1.0000 -0.2196463974
N   N59       1.0  0.02055  0.57902  0.77714  1.0000 -0.2196463974
N   N60       1.0  0.21114  0.40455  0.79580  1.0000 -0.2196463974
N   N61       1.0  0.52065  0.07887  0.77709  1.0000 -0.2196463974
N   N62       1.0  0.71114  0.90454  0.79580  1.0000 -0.2196463974
N   N63       1.0  0.52024  0.57892  0.27707  1.0000 -0.2196463974
N   N64       1.0  0.71111  0.40455  0.29580  1.0000 -0.2196463974
F   F1        1.0  0.36132  0.66512  0.40856  1.0000 -0.4740496721
F   F2        1.0  0.42983  0.67164  0.35122  1.0000 -0.4740496721
F   F3        1.0  0.53287  0.71290  0.39389  1.0000 -0.4763601688
F   F4        1.0  0.32018  0.73045  0.37827  1.0000 -0.4867283989
F   F5        1.0  0.86143  0.66511  0.90856  1.0000 -0.4763601688
F   F6        1.0  0.92985  0.67168  0.85123  1.0000 -0.4740496721
F   F7        1.0  0.03285  0.71294  0.89390  1.0000 -0.4763601688
F   F8        1.0  0.82015  0.73045  0.87828  1.0000 -0.4867283989
F   F9        1.0  0.88868  0.58488  0.40856  1.0000 -0.4740496721
F   F10       1.0  0.82017  0.57836  0.35122  1.0000 -0.4740496721
F   F11       1.0  0.71713  0.53710  0.39389  1.0000 -0.4763601688
F   F12       1.0  0.92982  0.51955  0.37826  1.0000 -0.4867283989
F   F13       1.0  0.38868  0.16512  0.84144  1.0000 -0.4740496721
F   F14       1.0  0.32017  0.17164  0.89878  1.0000 -0.4740496721
F   F15       1.0  0.21713  0.21290  0.85611  1.0000 -0.4763601688
F   F16       1.0  0.42982  0.23045  0.87174  1.0000 -0.4867283989
F   F17       1.0  0.88868  0.16512  0.34144  1.0000 -0.4740496721
F   F18       1.0  0.82017  0.17164  0.39878  1.0000 -0.4740496721
F   F19       1.0  0.71713  0.21290  0.35611  1.0000 -0.4763601688
F   F20       1.0  0.92982  0.23045  0.37174  1.0000 -0.4867283989
F   F21       1.0  0.36143  0.58489  0.84144  1.0000 -0.4763601688
F   F22       1.0  0.42985  0.57832  0.89877  1.0000 -0.4740496721
F   F23       1.0  0.53285  0.53706  0.85610  1.0000 -0.4763601688
F   F24       1.0  0.32015  0.51955  0.87172  1.0000 -0.4867283989
F   F25       1.0  0.36132  0.08488  0.34144  1.0000 -0.4740496721
F   F26       1.0  0.42983  0.07836  0.39878  1.0000 -0.4740496721
F   F27       1.0  0.53287  0.03710  0.35611  1.0000 -0.4763601688
F   F28       1.0  0.32018  0.01955  0.37173  1.0000 -0.4867283989
F   F29       1.0  0.86132  0.08488  0.84144  1.0000 -0.4740496721
F   F30       1.0  0.92983  0.07836  0.89878  1.0000 -0.4763601688
F   F31       1.0  0.03287  0.03710  0.85611  1.0000 -0.4763601688
F   F32       1.0  0.82018  0.01955  0.87173  1.0000 -0.4867283989
F   F33       1.0  0.61143  0.41511  0.09144  1.0000 -0.4763601688
F   F34       1.0  0.67985  0.42168  0.14877  1.0000 -0.4740496721
F   F35       1.0  0.78285  0.46294  0.10610  1.0000 -0.4763601688
F   F36       1.0  0.57016  0.48045  0.12172  1.0000 -0.4867283989
F   F37       1.0  0.61143  0.91511  0.59144  1.0000 -0.4763601688
F   F38       1.0  0.67986  0.92168  0.64877  1.0000 -0.4740496721
F   F39       1.0  0.78285  0.96294  0.60610  1.0000 -0.4763601688
F   F40       1.0  0.57015  0.98045  0.62172  1.0000 -0.4867283989
F   F41       1.0  0.11143  0.41511  0.59144  1.0000 -0.4763601688
F   F42       1.0  0.17985  0.42168  0.64877  1.0000 -0.4740496721
F   F43       1.0  0.28285  0.46294  0.60610  1.0000 -0.4763601688
F   F44       1.0  0.07015  0.48045  0.62172  1.0000 -0.4867283989
F   F45       1.0  0.11143  0.91511  0.09144  1.0000 -0.4763601688
F   F46       1.0  0.17986  0.92168  0.14877  1.0000 -0.4740496721
F   F47       1.0  0.28285  0.96294  0.10610  1.0000 -0.4763601688
F   F48       1.0  0.07015  0.98045  0.12172  1.0000 -0.4867283989
F   F49       1.0  0.61143  0.83489  0.15856  1.0000 -0.4763601688
F   F50       1.0  0.67986  0.82832  0.10123  1.0000 -0.4740496721
F   F51       1.0  0.78285  0.78706  0.14390  1.0000 -0.4763601688
F   F52       1.0  0.57015  0.76955  0.12828  1.0000 -0.4867283989
F   F53       1.0  0.61143  0.33489  0.65856  1.0000 -0.4763601688
F   F54       1.0  0.67985  0.32832  0.60123  1.0000 -0.4740496721
F   F55       1.0  0.78285  0.28706  0.64390  1.0000 -0.4763601688
F   F56       1.0  0.57016  0.26955  0.62827  1.0000 -0.4867283989
F   F57       1.0  0.11143  0.83489  0.65856  1.0000 -0.4763601688
F   F58       1.0  0.17985  0.82832  0.60123  1.0000 -0.4740496721
F   F59       1.0  0.28285  0.78706  0.64390  1.0000 -0.4763601688
F   F60       1.0  0.07015  0.76955  0.62828  1.0000 -0.4867283989
F   F61       1.0  0.11143  0.33489  0.15856  1.0000 -0.4763601688
F   F62       1.0  0.17985  0.32832  0.10123  1.0000 -0.4740496721
F   F63       1.0  0.28285  0.28706  0.14390  1.0000 -0.4763601688
F   F64       1.0  0.07016  0.26955  0.12827  1.0000 -0.4867283989
