# DDEC6 charges by PACMAN v1.1 (https://github.com/mtap-research/PACMAN-charge/)
data_1997[Cu][dia]3[ION]1
_chemical_formula_sum              "Cu2 H32 C40 N8 Cl2 O8"
_cell_length_a       14.5286
_cell_length_b       14.5286
_cell_length_c       13.416
_cell_angle_alpha    84.8443
_cell_angle_beta     95.1557
_cell_angle_gamma    38.5423

_symmetry_space_group_name_H-M    "P 1"
_symmetry_Int_Tables_number       1

loop_
  _symmetry_equiv_pos_as_xyz
  'x, y, z'

loop_
  _atom_site_type_symbol
  _atom_site_label
  _atom_site_symmetry_multiplicity
  _atom_site_fract_x
  _atom_site_fract_y
  _atom_site_fract_z
  _atom_site_occupancy
  _atom_site_charge
Cu  Cu1       1.0  0.06193  0.70913  0.77460  1.0000 0.7716087213
Cu  Cu2       1.0  0.29087  0.93807  0.27460  1.0000 0.7716087213
H   H1        1.0  0.53480  0.31480  0.08080  1.0000 0.1303774024
H   H2        1.0  0.68520  0.46520  0.58080  1.0000 0.1303774024
H   H3        1.0  0.81700  0.31020  0.96640  1.0000 0.1303774024
H   H4        1.0  0.68980  0.18300  0.46640  1.0000 0.1303774024
H   H5        1.0  0.73000  0.13080  0.23770  1.0000 0.1382368798
H   H6        1.0  0.86920  0.27000  0.73770  1.0000 0.1382368798
H   H7        1.0  0.89460  0.02260  0.22880  1.0000 0.1382368798
H   H8        1.0  0.97740  0.10540  0.72880  1.0000 0.1382368798
H   H9        1.0  0.80940  0.15780  0.27820  1.0000 0.1382368798
H   H10       1.0  0.84220  0.19060  0.77820  1.0000 0.1382368798
H   H11       1.0  0.45250  0.63330  0.82790  1.0000 0.1382368798
H   H12       1.0  0.36670  0.54750  0.32790  1.0000 0.1382368798
H   H13       1.0  0.51350  0.51190  0.77060  1.0000 0.1303774024
H   H14       1.0  0.48810  0.48650  0.27060  1.0000 0.1303774024
H   H15       1.0  0.61160  0.51980  0.80540  1.0000 0.1382368798
H   H16       1.0  0.48020  0.38840  0.30540  1.0000 0.1382368798
H   H17       1.0  0.77830  0.65850  0.90320  1.0000 0.1303774024
H   H18       1.0  0.34150  0.22170  0.40320  1.0000 0.1303774024
H   H19       1.0  0.56100  0.99840  0.12960  1.0000 0.1303774024
H   H20       1.0  0.00160  0.43900  0.62960  1.0000 0.1303774024
H   H21       1.0  0.63750  0.63170  0.94820  1.0000 0.1382368798
H   H22       1.0  0.36830  0.36250  0.44820  1.0000 0.1382368798
H   H23       1.0  0.60870  0.64750  0.05770  1.0000 0.1303774024
H   H24       1.0  0.35250  0.39130  0.55770  1.0000 0.1303774024
H   H25       1.0  0.47700  0.78160  0.96100  1.0000 0.1382368798
H   H26       1.0  0.21840  0.52300  0.46100  1.0000 0.1382368798
H   H27       1.0  0.81440  0.92960  0.01810  1.0000 0.1303774024
H   H28       1.0  0.07040  0.18560  0.51810  1.0000 0.1303774024
H   H29       1.0  0.65250  0.06950  0.03440  1.0000 0.1382368798
H   H30       1.0  0.93050  0.34750  0.53440  1.0000 0.1382368798
H   H31       1.0  0.78710  0.92850  0.12710  1.0000 0.1382368798
H   H32       1.0  0.07150  0.21290  0.62710  1.0000 0.1382368798
C   C1        1.0  0.38060  0.51060  0.90400  1.0000 0.3216987139
C   C2        1.0  0.48940  0.61940  0.40400  1.0000 0.3216987139
C   C3        1.0  0.52950  0.41750  0.96570  1.0000 -0.0302202657
C   C4        1.0  0.58250  0.47050  0.46570  1.0000 -0.0302202657
C   C5        1.0  0.59250  0.31650  0.06100  1.0000 -0.1607797557
C   C6        1.0  0.68350  0.40750  0.56100  1.0000 -0.1607797557
C   C7        1.0  0.73610  0.22210  0.12600  1.0000 0.1197859979
C   C8        1.0  0.77790  0.26390  0.62600  1.0000 0.1197859979
C   C9        1.0  0.81220  0.23620  0.08600  1.0000 -0.0350639002
C   C10       1.0  0.76380  0.18780  0.58600  1.0000 -0.0350639002
C   C11       1.0  0.75590  0.32790  0.98750  1.0000 -0.1762825439
C   C12       1.0  0.67210  0.24410  0.48750  1.0000 -0.1762825439
C   C13       1.0  0.61430  0.41830  0.92850  1.0000 0.1197859979
C   C14       1.0  0.58170  0.38570  0.42850  1.0000 0.1197859979
C   C15       1.0  0.95920  0.14320  0.14690  1.0000 0.2853904477
C   C16       1.0  0.85680  0.04080  0.64690  1.0000 0.2853904477
C   C17       1.0  0.80190  0.12190  0.22800  1.0000 -0.4465691337
C   C18       1.0  0.87810  0.19810  0.72800  1.0000 -0.4465691337
C   C19       1.0  0.55100  0.52300  0.82300  1.0000 -0.4383455405
C   C20       1.0  0.47700  0.44900  0.32300  1.0000 -0.4383455405
C   C21       1.0  0.86430  0.76230  0.91300  1.0000 0.3216987139
C   C22       1.0  0.23770  0.13570  0.41300  1.0000 0.3216987139
C   C23       1.0  0.76140  0.79940  0.96700  1.0000 -0.0302202657
C   C24       1.0  0.20060  0.23860  0.46700  1.0000 -0.0302202657
C   C25       1.0  0.72690  0.73290  0.95220  1.0000 -0.1607797557
C   C26       1.0  0.26710  0.27310  0.45220  1.0000 -0.1607797557
C   C27       1.0  0.62930  0.76330  0.00320  1.0000 0.1303774024
C   C28       1.0  0.23670  0.37070  0.50320  1.0000 0.1303774024
C   C29       1.0  0.56440  0.86840  0.06440  1.0000 0.0104869435
C   C30       1.0  0.13160  0.43560  0.56440  1.0000 0.0104869435
C   C31       1.0  0.60230  0.92630  0.08060  1.0000 -0.1607797557
C   C32       1.0  0.07370  0.39770  0.58060  1.0000 -0.1607797557
C   C33       1.0  0.70790  0.88990  0.03200  1.0000 0.1534496879
C   C34       1.0  0.11010  0.29210  0.53200  1.0000 0.1534496879
C   C35       1.0  0.46010  0.90410  0.12380  1.0000 0.339296948
C   C36       1.0  0.09590  0.53990  0.62380  1.0000 0.339296948
C   C37       1.0  0.57720  0.70720  0.98600  1.0000 -0.4305930624
C   C38       1.0  0.29280  0.42280  0.48600  1.0000 -0.4305930624
C   C39       1.0  0.74360  0.96160  0.04900  1.0000 -0.4383455405
C   C40       1.0  0.03840  0.25640  0.54900  1.0000 -0.4383455405
N   N1        1.0  0.26640  0.58240  0.85810  1.0000 -0.3901800403
N   N2        1.0  0.41760  0.73360  0.35810  1.0000 -0.3901800403
N   N3        1.0  0.08110  0.06710  0.19810  1.0000 -0.4224600682
N   N4        1.0  0.93290  0.91890  0.69810  1.0000 -0.4224600682
N   N5        1.0  0.94510  0.73510  0.87090  1.0000 -0.3840005884
N   N6        1.0  0.26490  0.05490  0.37090  1.0000 -0.3840005884
N   N7        1.0  0.39190  0.92190  0.17330  1.0000 -0.3901800403
N   N8        1.0  0.07810  0.60810  0.67330  1.0000 -0.3901800403
Cl  Cl1       1.0  0.70760  0.63840  0.69100  1.0000 1.2163519969
Cl  Cl2       1.0  0.36160  0.29240  0.19100  1.0000 1.2163519969
O   O1        1.0  0.77960  0.66760  0.70430  1.0000 -0.4600568006
O   O2        1.0  0.70950  0.60950  0.59200  1.0000 -0.4767513538
O   O3        1.0  0.80150  0.49750  0.76300  1.0000 -0.4767513538
O   O4        1.0  0.57000  0.74600  0.71490  1.0000 -0.4383455405
O   O5        1.0  0.33240  0.22040  0.20430  1.0000 -0.4600568006
O   O6        1.0  0.39050  0.29050  0.09200  1.0000 -0.4767513538
O   O7        1.0  0.50250  0.19850  0.26300  1.0000 -0.4767513538
O   O8        1.0  0.25400  0.43000  0.21490  1.0000 -0.4383455405
