# DDEC6 charges by PACMAN v1.1 (https://github.com/mtap-research/PACMAN-charge/)
data_1998[Ag][pcl]3[ION]1
_chemical_formula_sum              "Ag8 P2 H64 C64 N32 F12"
_cell_length_a       13.3964
_cell_length_b       13.3964
_cell_length_c       16.8985
_cell_angle_alpha    90
_cell_angle_beta     90
_cell_angle_gamma    109.298

_symmetry_space_group_name_H-M    "P 1"
_symmetry_Int_Tables_number       1

loop_
  _symmetry_equiv_pos_as_xyz
  'x, y, z'

loop_
  _atom_site_type_symbol
  _atom_site_label
  _atom_site_symmetry_multiplicity
  _atom_site_fract_x
  _atom_site_fract_y
  _atom_site_fract_z
  _atom_site_occupancy
  _atom_site_charge
Ag  Ag1       1.0  0.15327  0.43571  0.45340  1.0000 0.2223623924
Ag  Ag2       1.0  0.84673  0.56429  0.95340  1.0000 0.2223623924
Ag  Ag3       1.0  0.56429  0.84673  0.95340  1.0000 0.2223623924
Ag  Ag4       1.0  0.43571  0.15327  0.45340  1.0000 0.2223623924
Ag  Ag5       1.0  0.82002  0.11358  0.24010  1.0000 0.2399565361
Ag  Ag6       1.0  0.17998  0.88642  0.74010  1.0000 0.2399565361
Ag  Ag7       1.0  0.88642  0.17998  0.74010  1.0000 0.2399565361
Ag  Ag8       1.0  0.11358  0.82002  0.24010  1.0000 0.2399565361
P   P1        1.0  0.05240  0.05240  0.52170  1.0000 1.5228253126
P   P2        1.0  0.94760  0.94760  0.02170  1.0000 1.5228253126
H   H1        1.0  0.25450  0.42770  0.27710  1.0000 0.0830256381
H   H2        1.0  0.74550  0.57230  0.77710  1.0000 0.0830256381
H   H3        1.0  0.57230  0.74550  0.77710  1.0000 0.0830256381
H   H4        1.0  0.42770  0.25450  0.27710  1.0000 0.0830256381
H   H5        1.0  0.20960  0.34340  0.15430  1.0000 0.1287391258
H   H6        1.0  0.79040  0.65660  0.65430  1.0000 0.1287391258
H   H7        1.0  0.65660  0.79040  0.65430  1.0000 0.1287391258
H   H8        1.0  0.34340  0.20960  0.15430  1.0000 0.1287391258
H   H9        1.0  0.04940  0.20840  0.14450  1.0000 0.1013211048
H   H10       1.0  0.95060  0.79160  0.64450  1.0000 0.1013211048
H   H11       1.0  0.79160  0.95060  0.64450  1.0000 0.1013211048
H   H12       1.0  0.20840  0.04940  0.14450  1.0000 0.1013211048
H   H13       1.0  0.98260  0.25900  0.36150  1.0000 0.1013211048
H   H14       1.0  0.01740  0.74100  0.86150  1.0000 0.1013211048
H   H15       1.0  0.74100  0.01740  0.86150  1.0000 0.1013211048
H   H16       1.0  0.25900  0.98260  0.36150  1.0000 0.1013211048
H   H17       1.0  0.90670  0.45670  0.46130  1.0000 0.0899960748
H   H18       1.0  0.09330  0.54330  0.96130  1.0000 0.0899960748
H   H19       1.0  0.54330  0.09330  0.96130  1.0000 0.0899960748
H   H20       1.0  0.45670  0.90670  0.46130  1.0000 0.0899960748
H   H21       1.0  0.76300  0.42480  0.54760  1.0000 0.1287391258
H   H22       1.0  0.23700  0.57520  0.04760  1.0000 0.1287391258
H   H23       1.0  0.57520  0.23700  0.04760  1.0000 0.1287391258
H   H24       1.0  0.42480  0.76300  0.54760  1.0000 0.1287391258
H   H25       1.0  0.75570  0.31830  0.65800  1.0000 0.0899960748
H   H26       1.0  0.24430  0.68170  0.15800  1.0000 0.0899960748
H   H27       1.0  0.68170  0.24430  0.15800  1.0000 0.0899960748
H   H28       1.0  0.31830  0.75570  0.65800  1.0000 0.0899960748
H   H29       1.0  0.01870  0.27790  0.59340  1.0000 0.1013211048
H   H30       1.0  0.98130  0.72210  0.09340  1.0000 0.1013211048
H   H31       1.0  0.72210  0.98130  0.09340  1.0000 0.1013211048
H   H32       1.0  0.27790  0.01870  0.59340  1.0000 0.1013211048
H   H33       1.0  0.10960  0.61380  0.55830  1.0000 0.0899960748
H   H34       1.0  0.89040  0.38620  0.05830  1.0000 0.0899960748
H   H35       1.0  0.38620  0.89040  0.05830  1.0000 0.0899960748
H   H36       1.0  0.61380  0.10960  0.55830  1.0000 0.0899960748
H   H37       1.0  0.07640  0.77420  0.55010  1.0000 0.1363563135
H   H38       1.0  0.92360  0.22580  0.05010  1.0000 0.1363563135
H   H39       1.0  0.22580  0.92360  0.05010  1.0000 0.1363563135
H   H40       1.0  0.77420  0.07640  0.55010  1.0000 0.1363563135
H   H41       1.0  0.07950  0.84790  0.42480  1.0000 0.1013211048
H   H42       1.0  0.92050  0.15210  0.92480  1.0000 0.1013211048
H   H43       1.0  0.15210  0.92050  0.92480  1.0000 0.1013211048
H   H44       1.0  0.84790  0.07950  0.42480  1.0000 0.1013211048
H   H45       1.0  0.17110  0.62630  0.33250  1.0000 0.0899960748
H   H46       1.0  0.82890  0.37370  0.83250  1.0000 0.0899960748
H   H47       1.0  0.37370  0.82890  0.83250  1.0000 0.0899960748
H   H48       1.0  0.62630  0.17110  0.33250  1.0000 0.0899960748
H   H49       1.0  0.26940  0.45340  0.62300  1.0000 0.0899960748
H   H50       1.0  0.73060  0.54660  0.12300  1.0000 0.0899960748
H   H51       1.0  0.54660  0.73060  0.12300  1.0000 0.0899960748
H   H52       1.0  0.45340  0.26940  0.62300  1.0000 0.0899960748
H   H53       1.0  0.38690  0.38690  0.69000  1.0000 0.1287391258
H   H54       1.0  0.61310  0.61310  0.19000  1.0000 0.1287391258
H   H55       1.0  0.28370  0.28370  0.43780  1.0000 0.1013211048
H   H56       1.0  0.71630  0.71630  0.93780  1.0000 0.1013211048
H   H57       1.0  0.70060  0.88340  0.32330  1.0000 0.1013211048
H   H58       1.0  0.29940  0.11660  0.82330  1.0000 0.1013211048
H   H59       1.0  0.11660  0.29940  0.82330  1.0000 0.1013211048
H   H60       1.0  0.88340  0.70060  0.32330  1.0000 0.1013211048
H   H61       1.0  0.72240  0.72240  0.35530  1.0000 0.1287391258
H   H62       1.0  0.27760  0.27760  0.85530  1.0000 0.1287391258
H   H63       1.0  0.98710  0.98710  0.23850  1.0000 0.1013211048
H   H64       1.0  0.01290  0.01290  0.73850  1.0000 0.1013211048
C   C1        1.0  0.18740  0.37460  0.27070  1.0000 0.0740317058
C   C2        1.0  0.81260  0.62540  0.77070  1.0000 0.0740317058
C   C3        1.0  0.62540  0.81260  0.77070  1.0000 0.0740317058
C   C4        1.0  0.37460  0.18740  0.27070  1.0000 0.0740317058
C   C5        1.0  0.16260  0.32420  0.19810  1.0000 -0.2199578414
C   C6        1.0  0.83740  0.67580  0.69810  1.0000 -0.2199578414
C   C7        1.0  0.67580  0.83740  0.69810  1.0000 -0.2199578414
C   C8        1.0  0.32420  0.16260  0.19810  1.0000 -0.2199578414
C   C9        1.0  0.06750  0.24630  0.19280  1.0000 0.0899960748
C   C10       1.0  0.93250  0.75370  0.69280  1.0000 0.0899960748
C   C11       1.0  0.75370  0.93250  0.69280  1.0000 0.0899960748
C   C12       1.0  0.24630  0.06750  0.19280  1.0000 0.0899960748
C   C13       1.0  0.03090  0.27590  0.31840  1.0000 0.1592361003
C   C14       1.0  0.96910  0.72410  0.81840  1.0000 0.1592361003
C   C15       1.0  0.72410  0.96910  0.81840  1.0000 0.1592361003
C   C16       1.0  0.27590  0.03090  0.31840  1.0000 0.1592361003
C   C17       1.0  0.90220  0.41340  0.50660  1.0000 0.0740317058
C   C18       1.0  0.09780  0.58660  0.00660  1.0000 0.0740317058
C   C19       1.0  0.58660  0.09780  0.00660  1.0000 0.0740317058
C   C20       1.0  0.41340  0.90220  0.50660  1.0000 0.0740317058
C   C21       1.0  0.81700  0.39480  0.55710  1.0000 -0.2199578414
C   C22       1.0  0.18300  0.60520  0.05710  1.0000 -0.2199578414
C   C23       1.0  0.60520  0.18300  0.05710  1.0000 -0.2199578414
C   C24       1.0  0.39480  0.81700  0.55710  1.0000 -0.2199578414
C   C25       1.0  0.81300  0.33080  0.62200  1.0000 0.0603283539
C   C26       1.0  0.18700  0.66920  0.12200  1.0000 0.0603283539
C   C27       1.0  0.66920  0.18700  0.12200  1.0000 0.0603283539
C   C28       1.0  0.33080  0.81300  0.62200  1.0000 0.0603283539
C   C29       1.0  0.96550  0.30910  0.58410  1.0000 0.1705609182
C   C30       1.0  0.03450  0.69090  0.08410  1.0000 0.1705609182
C   C31       1.0  0.69090  0.03450  0.08410  1.0000 0.1705609182
C   C32       1.0  0.30910  0.96550  0.58410  1.0000 0.1705609182
C   C33       1.0  0.11450  0.64810  0.50850  1.0000 0.0740317058
C   C34       1.0  0.88550  0.35190  0.00850  1.0000 0.0740317058
C   C35       1.0  0.35190  0.88550  0.00850  1.0000 0.0740317058
C   C36       1.0  0.64810  0.11450  0.50850  1.0000 0.0740317058
C   C37       1.0  0.09280  0.74140  0.50430  1.0000 -0.1990379696
C   C38       1.0  0.90720  0.25860  0.00430  1.0000 -0.1990379696
C   C39       1.0  0.25860  0.90720  0.00430  1.0000 -0.1990379696
C   C40       1.0  0.74140  0.09280  0.50430  1.0000 -0.1990379696
C   C41       1.0  0.09630  0.78470  0.43010  1.0000 0.1013211048
C   C42       1.0  0.90370  0.21530  0.93010  1.0000 0.1013211048
C   C43       1.0  0.21530  0.90370  0.93010  1.0000 0.1013211048
C   C44       1.0  0.78470  0.09630  0.43010  1.0000 0.1013211048
C   C45       1.0  0.14730  0.65470  0.37740  1.0000 0.1287391258
C   C46       1.0  0.85270  0.34530  0.87740  1.0000 0.1287391258
C   C47       1.0  0.34530  0.85270  0.87740  1.0000 0.1287391258
C   C48       1.0  0.65470  0.14730  0.37740  1.0000 0.1287391258
C   C49       1.0  0.29590  0.40430  0.59740  1.0000 0.0830256381
C   C50       1.0  0.70410  0.59570  0.09740  1.0000 0.0830256381
C   C51       1.0  0.59570  0.70410  0.09740  1.0000 0.0830256381
C   C52       1.0  0.40430  0.29590  0.59740  1.0000 0.0830256381
C   C53       1.0  0.36590  0.36590  0.63720  1.0000 -0.2096346498
C   C54       1.0  0.63410  0.63410  0.13720  1.0000 -0.2096346498
C   C55       1.0  0.30540  0.30540  0.49030  1.0000 0.1705609182
C   C56       1.0  0.69460  0.69460  0.99030  1.0000 0.1705609182
C   C57       1.0  0.76500  0.87220  0.31000  1.0000 0.0830256381
C   C58       1.0  0.23500  0.12780  0.81000  1.0000 0.0830256381
C   C59       1.0  0.12780  0.23500  0.81000  1.0000 0.0830256381
C   C60       1.0  0.87220  0.76500  0.31000  1.0000 0.0830256381
C   C61       1.0  0.77690  0.77690  0.32960  1.0000 -0.1990379696
C   C62       1.0  0.22310  0.22310  0.82960  1.0000 -0.1990379696
C   C63       1.0  0.93040  0.93040  0.25970  1.0000 0.1948022365
C   C64       1.0  0.06960  0.06960  0.75970  1.0000 0.1956241697
N   N1        1.0  0.12200  0.35160  0.33050  1.0000 -0.2388545707
N   N2        1.0  0.87800  0.64840  0.83050  1.0000 -0.2388545707
N   N3        1.0  0.64840  0.87800  0.83050  1.0000 -0.2388545707
N   N4        1.0  0.35160  0.12200  0.33050  1.0000 -0.2388545707
N   N5        1.0  0.99910  0.22030  0.25160  1.0000 -0.2388545707
N   N6        1.0  0.00090  0.77970  0.75160  1.0000 -0.2388545707
N   N7        1.0  0.77970  0.00090  0.75160  1.0000 -0.2388545707
N   N8        1.0  0.22030  0.99910  0.25160  1.0000 -0.2388545707
N   N9        1.0  0.97940  0.37120  0.52020  1.0000 -0.2631139487
N   N10       1.0  0.02060  0.62880  0.02020  1.0000 -0.2631139487
N   N11       1.0  0.62880  0.02060  0.02020  1.0000 -0.2631139487
N   N12       1.0  0.37120  0.97940  0.52020  1.0000 -0.2631139487
N   N13       1.0  0.88710  0.28550  0.63610  1.0000 -0.2337023794
N   N14       1.0  0.11290  0.71450  0.13610  1.0000 -0.2337023794
N   N15       1.0  0.71450  0.11290  0.13610  1.0000 -0.2337023794
N   N16       1.0  0.28550  0.88710  0.63610  1.0000 -0.2337023794
N   N17       1.0  0.14190  0.60450  0.44530  1.0000 -0.2388545707
N   N18       1.0  0.85810  0.39550  0.94530  1.0000 -0.2388545707
N   N19       1.0  0.39550  0.85810  0.94530  1.0000 -0.2388545707
N   N20       1.0  0.60450  0.14190  0.44530  1.0000 -0.2388545707
N   N21       1.0  0.12180  0.74280  0.36670  1.0000 -0.2388545707
N   N22       1.0  0.87820  0.25720  0.86670  1.0000 -0.2388545707
N   N23       1.0  0.25720  0.87820  0.86670  1.0000 -0.2388545707
N   N24       1.0  0.74280  0.12180  0.36670  1.0000 -0.2388545707
N   N25       1.0  0.26530  0.37370  0.52430  1.0000 -0.2199578414
N   N26       1.0  0.73470  0.62630  0.02430  1.0000 -0.2199578414
N   N27       1.0  0.62630  0.73470  0.02430  1.0000 -0.2199578414
N   N28       1.0  0.37370  0.26530  0.52430  1.0000 -0.2199578414
N   N29       1.0  0.84050  0.95010  0.27280  1.0000 -0.2388545707
N   N30       1.0  0.15950  0.04990  0.77280  1.0000 -0.2388545707
N   N31       1.0  0.04990  0.15950  0.77280  1.0000 -0.2388545707
N   N32       1.0  0.95010  0.84050  0.27280  1.0000 -0.2388545707
F   F1        1.0  0.13070  0.13070  0.58280  1.0000 -0.4713720212
F   F2        1.0  0.97370  0.97370  0.46090  1.0000 -0.4713720212
F   F3        1.0  0.04750  0.15150  0.47130  1.0000 -0.4713720212
F   F4        1.0  0.15150  0.04750  0.47130  1.0000 -0.4713720212
F   F5        1.0  0.95350  0.05710  0.57370  1.0000 -0.4713720212
F   F6        1.0  0.05710  0.95350  0.57370  1.0000 -0.4713720212
F   F7        1.0  0.86930  0.86930  0.08280  1.0000 -0.4713720212
F   F8        1.0  0.02630  0.02630  0.96090  1.0000 -0.4713720212
F   F9        1.0  0.95250  0.84850  0.97130  1.0000 -0.4713720212
F   F10       1.0  0.84850  0.95250  0.97130  1.0000 -0.4713720212
F   F11       1.0  0.04650  0.94290  0.07370  1.0000 -0.4713720212
F   F12       1.0  0.94290  0.04650  0.07370  1.0000 -0.4713720212
