# DDEC6 charges by PACMAN v1.1 (https://github.com/mtap-research/PACMAN-charge/)
data_2000[Cd][nan]3[ION]1
_chemical_formula_sum              "Cd24 H176 C264 N44 Cl4 O104"
_cell_length_a       19.0382
_cell_length_b       23.8341
_cell_length_c       26.9534
_cell_angle_alpha    90
_cell_angle_beta     126.86
_cell_angle_gamma    90

_symmetry_space_group_name_H-M    "P 1"
_symmetry_Int_Tables_number       1

loop_
  _symmetry_equiv_pos_as_xyz
  'x, y, z'

loop_
  _atom_site_type_symbol
  _atom_site_label
  _atom_site_symmetry_multiplicity
  _atom_site_fract_x
  _atom_site_fract_y
  _atom_site_fract_z
  _atom_site_occupancy
  _atom_site_charge
Cd  Cd1       1.0  0.45695  0.24277  0.24425  1.0000 0.9069829585
Cd  Cd2       1.0  0.45695  0.25723  0.74425  1.0000 0.9069829585
Cd  Cd3       1.0  0.54305  0.75723  0.75575  1.0000 0.9069829585
Cd  Cd4       1.0  0.54305  0.74277  0.25575  1.0000 0.9069829585
Cd  Cd5       1.0  0.10369  0.38309  0.33411  1.0000 0.9009434061
Cd  Cd6       1.0  0.10369  0.11691  0.83411  1.0000 0.9009434061
Cd  Cd7       1.0  0.89631  0.61691  0.66589  1.0000 0.9009434061
Cd  Cd8       1.0  0.89631  0.88309  0.16589  1.0000 0.9009434061
Cd  Cd9       1.0  0.83072  0.38240  0.15993  1.0000 0.9009434061
Cd  Cd10      1.0  0.83072  0.11760  0.65993  1.0000 0.9009434061
Cd  Cd11      1.0  0.16928  0.61760  0.84007  1.0000 0.9009434061
Cd  Cd12      1.0  0.16928  0.88240  0.34007  1.0000 0.9009434061
Cd  Cd13      1.0  0.60412  0.36378  0.33440  1.0000 0.9009434061
Cd  Cd14      1.0  0.60412  0.13622  0.83440  1.0000 0.9009434061
Cd  Cd15      1.0  0.39588  0.63622  0.66560  1.0000 0.9009434061
Cd  Cd16      1.0  0.39588  0.86378  0.16560  1.0000 0.9009434061
Cd  Cd17      1.0  0.96575  0.51004  0.25337  1.0000 0.9925536515
Cd  Cd18      1.0  0.96575  0.98996  0.75337  1.0000 0.9925536515
Cd  Cd19      1.0  0.03425  0.48996  0.74663  1.0000 0.9925536515
Cd  Cd20      1.0  0.03425  0.01004  0.24663  1.0000 0.9925536515
Cd  Cd21      1.0  0.33160  0.37649  0.16072  1.0000 0.9009434061
Cd  Cd22      1.0  0.33160  0.12351  0.66072  1.0000 0.9009434061
Cd  Cd23      1.0  0.66840  0.62351  0.83928  1.0000 0.9009434061
Cd  Cd24      1.0  0.66840  0.87649  0.33928  1.0000 0.9009434061
H   H1        1.0  0.02840  0.34780  0.12060  1.0000 0.1374015106
H   H2        1.0  0.02840  0.15220  0.62060  1.0000 0.1313174401
H   H3        1.0  0.97160  0.65220  0.87940  1.0000 0.1313174401
H   H4        1.0  0.97160  0.84780  0.37940  1.0000 0.1313174401
H   H5        1.0  0.26540  0.46410  0.21380  1.0000 0.1017545056
H   H6        1.0  0.26540  0.03590  0.71380  1.0000 0.1017545056
H   H7        1.0  0.73460  0.53590  0.78620  1.0000 0.1017545056
H   H8        1.0  0.73460  0.96410  0.28620  1.0000 0.1017545056
H   H9        1.0  0.27180  0.28670  0.26010  1.0000 0.1313174401
H   H10       1.0  0.27180  0.21330  0.76010  1.0000 0.1313174401
H   H11       1.0  0.72820  0.71330  0.73990  1.0000 0.1313174401
H   H12       1.0  0.72820  0.78670  0.23990  1.0000 0.1313174401
H   H13       1.0  0.90470  0.33130  0.37170  1.0000 0.1313174401
H   H14       1.0  0.90470  0.16870  0.87170  1.0000 0.1313174401
H   H15       1.0  0.09530  0.66870  0.62830  1.0000 0.1313174401
H   H16       1.0  0.09530  0.83130  0.12830  1.0000 0.1313174401
H   H17       1.0  0.13360  0.33680  0.10750  1.0000 0.1017545056
H   H18       1.0  0.13360  0.16320  0.60750  1.0000 0.1017545056
H   H19       1.0  0.86640  0.66320  0.89250  1.0000 0.1017545056
H   H20       1.0  0.86640  0.83680  0.39250  1.0000 0.1017545056
H   H21       1.0  0.40890  0.41560  0.37700  1.0000 0.1374015106
H   H22       1.0  0.40890  0.08440  0.87700  1.0000 0.1374015106
H   H23       1.0  0.59110  0.58440  0.62300  1.0000 0.1374015106
H   H24       1.0  0.59110  0.91560  0.12300  1.0000 0.1374015106
H   H25       1.0  0.29710  0.42720  0.38530  1.0000 0.1085990994
H   H26       1.0  0.29710  0.07280  0.88530  1.0000 0.1085990994
H   H27       1.0  0.70290  0.57280  0.61470  1.0000 0.1085990994
H   H28       1.0  0.70290  0.92720  0.11470  1.0000 0.1085990994
H   H29       1.0  0.77650  0.46630  0.26570  1.0000 0.1374015106
H   H30       1.0  0.77650  0.03370  0.76570  1.0000 0.1374015106
H   H31       1.0  0.22350  0.53370  0.73430  1.0000 0.1374015106
H   H32       1.0  0.22350  0.96630  0.23430  1.0000 0.1374015106
H   H33       1.0  0.79120  0.31680  0.37780  1.0000 0.1017545056
H   H34       1.0  0.79120  0.18320  0.87780  1.0000 0.1017545056
H   H35       1.0  0.20880  0.68320  0.62220  1.0000 0.1017545056
H   H36       1.0  0.20880  0.81680  0.12220  1.0000 0.1017545056
H   H37       1.0  0.67250  0.45090  0.28120  1.0000 0.1017545056
H   H38       1.0  0.67250  0.04910  0.78120  1.0000 0.1017545056
H   H39       1.0  0.32750  0.54910  0.71880  1.0000 0.1017545056
H   H40       1.0  0.32750  0.95090  0.21880  1.0000 0.1017545056
H   H41       1.0  0.85240  0.19930  0.17250  1.0000 0.1313174401
H   H42       1.0  0.85240  0.30070  0.67250  1.0000 0.1313174401
H   H43       1.0  0.14760  0.80070  0.82750  1.0000 0.1313174401
H   H44       1.0  0.14760  0.69930  0.32750  1.0000 0.1313174401
H   H45       1.0  0.16930  0.29960  0.27690  1.0000 0.1085990994
H   H46       1.0  0.16930  0.20040  0.77690  1.0000 0.1085990994
H   H47       1.0  0.83070  0.70040  0.72310  1.0000 0.1085990994
H   H48       1.0  0.83070  0.79960  0.22310  1.0000 0.1085990994
H   H49       1.0  0.16470  0.47710  0.23460  1.0000 0.1313174401
H   H50       1.0  0.16470  0.02290  0.73460  1.0000 0.1313174401
H   H51       1.0  0.83530  0.52290  0.76540  1.0000 0.1313174401
H   H52       1.0  0.83530  0.97710  0.26540  1.0000 0.1313174401
H   H53       1.0  0.13600  0.26730  0.99080  1.0000 0.1313174401
H   H54       1.0  0.13600  0.23270  0.49080  1.0000 0.1313174401
H   H55       1.0  0.86400  0.73270  0.00920  1.0000 0.1313174401
H   H56       1.0  0.86400  0.76730  0.50920  1.0000 0.1313174401
H   H57       1.0  0.60780  0.53930  0.33540  1.0000 0.1374015106
H   H58       1.0  0.60780  0.96070  0.83540  1.0000 0.1374015106
H   H59       1.0  0.39220  0.46070  0.66460  1.0000 0.1374015106
H   H60       1.0  0.39220  0.03930  0.16460  1.0000 0.1374015106
H   H61       1.0  0.11300  0.12030  0.32330  1.0000 0.1085990994
H   H62       1.0  0.11300  0.37970  0.82330  1.0000 0.1085990994
H   H63       1.0  0.88700  0.87970  0.67670  1.0000 0.1085990994
H   H64       1.0  0.88700  0.62030  0.17670  1.0000 0.1085990994
H   H65       1.0  0.35750  0.18140  0.05870  1.0000 0.1374015106
H   H66       1.0  0.35750  0.31860  0.55870  1.0000 0.1374015106
H   H67       1.0  0.64250  0.81860  0.94130  1.0000 0.1374015106
H   H68       1.0  0.64250  0.68140  0.44130  1.0000 0.1374015106
H   H69       1.0  0.87080  0.10450  0.17650  1.0000 0.1085990994
H   H70       1.0  0.87080  0.39550  0.67650  1.0000 0.1085990994
H   H71       1.0  0.12920  0.89550  0.82350  1.0000 0.1085990994
H   H72       1.0  0.12920  0.60450  0.32350  1.0000 0.1085990994
H   H73       1.0  0.10070  0.21490  0.31980  1.0000 0.1313174401
H   H74       1.0  0.10070  0.28510  0.81980  1.0000 0.1313174401
H   H75       1.0  0.89930  0.78510  0.68020  1.0000 0.1313174401
H   H76       1.0  0.89930  0.71490  0.18020  1.0000 0.1313174401
H   H77       1.0  0.31070  0.48790  0.49280  1.0000 0.1313174401
H   H78       1.0  0.31070  0.01210  0.99280  1.0000 0.1313174401
H   H79       1.0  0.68930  0.51210  0.50720  1.0000 0.1313174401
H   H80       1.0  0.68930  0.98790  0.00720  1.0000 0.1313174401
H   H81       1.0  0.88910  0.57290  0.07360  1.0000 0.1374015106
H   H82       1.0  0.88910  0.92710  0.57360  1.0000 0.1374015106
H   H83       1.0  0.11090  0.42710  0.92640  1.0000 0.1374015106
H   H84       1.0  0.11090  0.07290  0.42640  1.0000 0.1374015106
H   H85       1.0  0.66420  0.48640  0.99160  1.0000 0.1313174401
H   H86       1.0  0.66420  0.01360  0.49160  1.0000 0.1313174401
H   H87       1.0  0.33580  0.51360  0.00840  1.0000 0.1313174401
H   H88       1.0  0.33580  0.98640  0.50840  1.0000 0.1313174401
H   H89       1.0  0.39920  0.53740  0.58390  1.0000 0.1085990994
H   H90       1.0  0.39920  0.96260  0.08390  1.0000 0.1085990994
H   H91       1.0  0.60080  0.46260  0.41610  1.0000 0.1085990994
H   H92       1.0  0.60080  0.03740  0.91610  1.0000 0.1085990994
H   H93       1.0  0.11500  0.59380  0.43950  1.0000 0.1498362163
H   H94       1.0  0.11500  0.90620  0.93950  1.0000 0.1498362163
H   H95       1.0  0.88500  0.40620  0.56050  1.0000 0.1498362163
H   H96       1.0  0.88500  0.09380  0.06050  1.0000 0.1498362163
H   H97       1.0  0.20710  0.64160  0.53060  1.0000 0.092726541
H   H98       1.0  0.20710  0.85840  0.03060  1.0000 0.092726541
H   H99       1.0  0.79290  0.35840  0.46940  1.0000 0.092726541
H   H100      1.0  0.79290  0.14160  0.96940  1.0000 0.092726541
H   H101      1.0  0.83740  0.61120  0.98040  1.0000 0.1017545056
H   H102      1.0  0.83740  0.88880  0.48040  1.0000 0.1017545056
H   H103      1.0  0.16260  0.38880  0.01960  1.0000 0.1017545056
H   H104      1.0  0.16260  0.11120  0.51960  1.0000 0.1017545056
H   H105      1.0  0.61860  0.52880  0.89810  1.0000 0.1017545056
H   H106      1.0  0.61860  0.97120  0.39810  1.0000 0.1017545056
H   H107      1.0  0.38140  0.47120  0.10190  1.0000 0.1017545056
H   H108      1.0  0.38140  0.02880  0.60190  1.0000 0.1017545056
H   H109      1.0  0.07090  0.21620  0.90150  1.0000 0.1085990994
H   H110      1.0  0.07090  0.28380  0.40150  1.0000 0.1085990994
H   H111      1.0  0.92910  0.78380  0.09850  1.0000 0.1085990994
H   H112      1.0  0.92910  0.71620  0.59850  1.0000 0.1085990994
H   H113      1.0  0.28760  0.13640  0.96640  1.0000 0.1017545056
H   H114      1.0  0.28760  0.36360  0.46640  1.0000 0.1017545056
H   H115      1.0  0.71240  0.86360  0.03360  1.0000 0.1017545056
H   H116      1.0  0.71240  0.63640  0.53360  1.0000 0.1017545056
H   H117      1.0  0.36170  0.55500  0.18380  1.0000 0.1374015106
H   H118      1.0  0.36170  0.94500  0.68380  1.0000 0.1374015106
H   H119      1.0  0.63830  0.44500  0.81620  1.0000 0.1374015106
H   H120      1.0  0.63830  0.05500  0.31620  1.0000 0.1374015106
H   H121      1.0  0.61820  0.63520  0.33760  1.0000 0.1017545056
H   H122      1.0  0.61820  0.86480  0.83760  1.0000 0.1017545056
H   H123      1.0  0.38180  0.36480  0.66240  1.0000 0.1017545056
H   H124      1.0  0.38180  0.13520  0.16240  1.0000 0.1017545056
H   H125      1.0  0.38020  0.64900  0.18890  1.0000 0.1085990994
H   H126      1.0  0.38020  0.85100  0.68890  1.0000 0.1085990994
H   H127      1.0  0.61980  0.35100  0.81110  1.0000 0.1085990994
H   H128      1.0  0.61980  0.14900  0.31110  1.0000 0.1085990994
H   H129      1.0  0.57470  0.16090  0.42840  1.0000 0.1313174401
H   H130      1.0  0.57470  0.33910  0.92840  1.0000 0.1313174401
H   H131      1.0  0.42530  0.83910  0.57160  1.0000 0.1313174401
H   H132      1.0  0.42530  0.66090  0.07160  1.0000 0.1313174401
H   H133      1.0  0.65200  0.11820  0.52430  1.0000 0.1017545056
H   H134      1.0  0.65200  0.38180  0.02430  1.0000 0.1017545056
H   H135      1.0  0.34800  0.88180  0.47570  1.0000 0.1017545056
H   H136      1.0  0.34800  0.61820  0.97570  1.0000 0.1017545056
H   H137      1.0  0.85830  0.20940  0.58300  1.0000 0.1017545056
H   H138      1.0  0.85830  0.29060  0.08300  1.0000 0.1017545056
H   H139      1.0  0.14170  0.79060  0.41700  1.0000 0.1017545056
H   H140      1.0  0.14170  0.70940  0.91700  1.0000 0.1017545056
H   H141      1.0  0.78610  0.25570  0.49020  1.0000 0.1209693628
H   H142      1.0  0.78610  0.24430  0.99020  1.0000 0.1209693628
H   H143      1.0  0.21390  0.74430  0.50980  1.0000 0.1209693628
H   H144      1.0  0.21390  0.75570  0.00980  1.0000 0.1209693628
H   H145      1.0  0.52980  0.41210  0.12280  1.0000 0.1313174401
H   H146      1.0  0.52980  0.08790  0.62280  1.0000 0.1313174401
H   H147      1.0  0.47020  0.58790  0.87720  1.0000 0.1313174401
H   H148      1.0  0.47020  0.91210  0.37720  1.0000 0.1313174401
H   H149      1.0  0.76170  0.29100  0.20940  1.0000 0.1085990994
H   H150      1.0  0.76170  0.20900  0.70940  1.0000 0.1085990994
H   H151      1.0  0.23830  0.70900  0.79060  1.0000 0.1085990994
H   H152      1.0  0.23830  0.79100  0.29060  1.0000 0.1085990994
H   H153      1.0  0.63880  0.42660  0.11320  1.0000 0.1085990994
H   H154      1.0  0.63880  0.07340  0.61320  1.0000 0.1085990994
H   H155      1.0  0.36120  0.57340  0.88680  1.0000 0.1085990994
H   H156      1.0  0.36120  0.92660  0.38680  1.0000 0.1085990994
H   H157      1.0  0.66080  0.27660  0.22750  1.0000 0.1374015106
H   H158      1.0  0.66080  0.22340  0.72750  1.0000 0.1374015106
H   H159      1.0  0.33920  0.72340  0.77250  1.0000 0.1374015106
H   H160      1.0  0.33920  0.77660  0.27250  1.0000 0.1374015106
H   H161      1.0  0.86800  0.67290  0.35520  1.0000 0.1085990994
H   H162      1.0  0.86800  0.82710  0.85520  1.0000 0.1085990994
H   H163      1.0  0.13200  0.32710  0.64480  1.0000 0.1085990994
H   H164      1.0  0.13200  0.17290  0.14480  1.0000 0.1085990994
H   H165      1.0  0.75320  0.73110  0.33580  1.0000 0.1017545056
H   H166      1.0  0.75320  0.76890  0.83580  1.0000 0.1017545056
H   H167      1.0  0.24680  0.26890  0.66420  1.0000 0.1017545056
H   H168      1.0  0.24680  0.23110  0.16420  1.0000 0.1017545056
H   H169      1.0  0.58570  0.64530  0.18920  1.0000 0.1017545056
H   H170      1.0  0.58570  0.85470  0.68920  1.0000 0.1017545056
H   H171      1.0  0.41430  0.35470  0.81080  1.0000 0.1017545056
H   H172      1.0  0.41430  0.14530  0.31080  1.0000 0.1017545056
H   H173      1.0  0.70230  0.58970  0.20230  1.0000 0.1374015106
H   H174      1.0  0.70230  0.91030  0.70230  1.0000 0.1374015106
H   H175      1.0  0.29770  0.41030  0.79770  1.0000 0.1374015106
H   H176      1.0  0.29770  0.08970  0.29770  1.0000 0.1374015106
C   C1        1.0  0.35160  0.35000  0.31540  1.0000 0.0283344611
C   C2        1.0  0.35160  0.15000  0.81540  1.0000 0.0283344611
C   C3        1.0  0.64840  0.65000  0.68460  1.0000 0.0283344611
C   C4        1.0  0.64840  0.85000  0.18460  1.0000 0.0283344611
C   C5        1.0  0.85170  0.39860  0.31510  1.0000 0.0099808567
C   C6        1.0  0.85170  0.10140  0.81510  1.0000 0.0099808567
C   C7        1.0  0.14830  0.60140  0.68490  1.0000 0.0099808567
C   C8        1.0  0.14830  0.89860  0.18490  1.0000 0.0099808567
C   C9        1.0  0.07740  0.37120  0.14140  1.0000 -0.1523248998
C   C10       1.0  0.07740  0.12880  0.64140  1.0000 -0.1523248998
C   C11       1.0  0.92260  0.62880  0.85860  1.0000 -0.1523248998
C   C12       1.0  0.92260  0.87120  0.35860  1.0000 -0.1523248998
C   C13       1.0  0.29810  0.26010  0.09660  1.0000 0.560624242
C   C14       1.0  0.29810  0.23990  0.59660  1.0000 0.560624242
C   C15       1.0  0.70190  0.73990  0.90340  1.0000 0.560624242
C   C16       1.0  0.70190  0.76010  0.40340  1.0000 0.560624242
C   C17       1.0  0.21810  0.43950  0.19620  1.0000 0.0783427136
C   C18       1.0  0.21810  0.06050  0.69620  1.0000 0.0783427136
C   C19       1.0  0.78190  0.56050  0.80380  1.0000 0.0783427136
C   C20       1.0  0.78190  0.93950  0.30380  1.0000 0.0783427136
C   C21       1.0  0.27870  0.31540  0.28610  1.0000 -0.1523248998
C   C22       1.0  0.27870  0.18460  0.78610  1.0000 -0.1523248998
C   C23       1.0  0.72130  0.68460  0.71390  1.0000 -0.1523248998
C   C24       1.0  0.72130  0.81540  0.21390  1.0000 -0.1523248998
C   C25       1.0  0.85630  0.35520  0.35090  1.0000 -0.1601466708
C   C26       1.0  0.85630  0.14480  0.85090  1.0000 -0.1601466708
C   C27       1.0  0.14370  0.64480  0.64910  1.0000 -0.1601466708
C   C28       1.0  0.14370  0.85520  0.14910  1.0000 -0.1601466708
C   C29       1.0  0.08630  0.41300  0.18110  1.0000 0.0196774909
C   C30       1.0  0.08630  0.08700  0.68110  1.0000 0.0196774909
C   C31       1.0  0.91370  0.58700  0.81890  1.0000 0.0196774909
C   C32       1.0  0.91370  0.91300  0.31890  1.0000 0.0196774909
C   C33       1.0  0.14020  0.36540  0.13350  1.0000 0.0362463763
C   C34       1.0  0.14020  0.13460  0.63350  1.0000 0.0362463763
C   C35       1.0  0.85980  0.63460  0.86650  1.0000 0.0362463763
C   C36       1.0  0.85980  0.86540  0.36650  1.0000 0.0362463763
C   C37       1.0  0.35980  0.39250  0.35520  1.0000 -0.1681573665
C   C38       1.0  0.35980  0.10750  0.85520  1.0000 -0.1681573665
C   C39       1.0  0.64020  0.60750  0.64480  1.0000 -0.1681573665
C   C40       1.0  0.64020  0.89250  0.14480  1.0000 -0.1681573665
C   C41       1.0  0.91800  0.40650  0.30400  1.0000 0.578611661
C   C42       1.0  0.91800  0.09350  0.80400  1.0000 0.578611661
C   C43       1.0  0.08200  0.59350  0.69600  1.0000 0.578611661
C   C44       1.0  0.08200  0.90650  0.19600  1.0000 0.578611661
C   C45       1.0  0.29330  0.39840  0.36050  1.0000 0.0494839902
C   C46       1.0  0.29330  0.10160  0.86050  1.0000 0.0494839902
C   C47       1.0  0.70670  0.60160  0.63950  1.0000 0.0494839902
C   C48       1.0  0.70670  0.89840  0.13950  1.0000 0.0494839902
C   C49       1.0  0.41960  0.34340  0.30390  1.0000 0.568658522
C   C50       1.0  0.41960  0.15660  0.80390  1.0000 0.568658522
C   C51       1.0  0.58040  0.65660  0.69610  1.0000 0.568658522
C   C52       1.0  0.58040  0.84340  0.19610  1.0000 0.568658522
C   C53       1.0  0.96580  0.28150  0.24150  1.0000 0.578611661
C   C54       1.0  0.96580  0.21850  0.74150  1.0000 0.578611661
C   C55       1.0  0.03420  0.71850  0.75850  1.0000 0.578611661
C   C56       1.0  0.03420  0.78150  0.25850  1.0000 0.578611661
C   C57       1.0  0.78120  0.43570  0.28890  1.0000 -0.1523248998
C   C58       1.0  0.78120  0.06430  0.78890  1.0000 -0.1523248998
C   C59       1.0  0.21880  0.56430  0.71110  1.0000 -0.1523248998
C   C60       1.0  0.21880  0.93570  0.21110  1.0000 -0.1523248998
C   C61       1.0  0.02110  0.41830  0.19470  1.0000 0.578611661
C   C62       1.0  0.02110  0.08170  0.69470  1.0000 0.578611661
C   C63       1.0  0.97890  0.58170  0.80530  1.0000 0.578611661
C   C64       1.0  0.97890  0.91830  0.30530  1.0000 0.578611661
C   C65       1.0  0.48320  0.53570  0.25770  1.0000 0.0196774909
C   C66       1.0  0.48320  0.96430  0.75770  1.0000 0.0196774909
C   C67       1.0  0.51680  0.46430  0.74230  1.0000 0.0196774909
C   C68       1.0  0.51680  0.03570  0.24230  1.0000 0.0196774909
C   C69       1.0  0.14340  0.50120  0.39700  1.0000 0.568658522
C   C70       1.0  0.14340  0.99880  0.89700  1.0000 0.568658522
C   C71       1.0  0.85660  0.49880  0.60300  1.0000 0.568658522
C   C72       1.0  0.85660  0.00120  0.10300  1.0000 0.568658522
C   C73       1.0  0.25450  0.22970  0.03650  1.0000 0.0196774909
C   C74       1.0  0.25450  0.27030  0.53650  1.0000 0.0196774909
C   C75       1.0  0.74550  0.77030  0.96350  1.0000 0.0196774909
C   C76       1.0  0.74550  0.72970  0.46350  1.0000 0.0196774909
C   C77       1.0  0.47490  0.47310  0.25390  1.0000 0.568658522
C   C78       1.0  0.47490  0.02690  0.75390  1.0000 0.568658522
C   C79       1.0  0.52510  0.52690  0.74610  1.0000 0.568658522
C   C80       1.0  0.52510  0.97310  0.24610  1.0000 0.568658522
C   C81       1.0  0.81440  0.49990  0.10460  1.0000 0.578611661
C   C82       1.0  0.81440  0.00010  0.60460  1.0000 0.578611661
C   C83       1.0  0.18560  0.50010  0.89540  1.0000 0.578611661
C   C84       1.0  0.18560  0.99990  0.39540  1.0000 0.578611661
C   C85       1.0  0.51820  0.33660  0.19210  1.0000 0.568658522
C   C86       1.0  0.51820  0.16340  0.69210  1.0000 0.568658522
C   C87       1.0  0.48180  0.66340  0.80790  1.0000 0.568658522
C   C88       1.0  0.48180  0.83660  0.30790  1.0000 0.568658522
C   C89       1.0  0.78870  0.34760  0.35560  1.0000 0.0494839902
C   C90       1.0  0.78870  0.15240  0.85560  1.0000 0.0494839902
C   C91       1.0  0.21130  0.65240  0.64440  1.0000 0.0494839902
C   C92       1.0  0.21130  0.84760  0.14440  1.0000 0.0494839902
C   C93       1.0  0.71870  0.42560  0.29820  1.0000 0.0709289234
C   C94       1.0  0.71870  0.07440  0.79820  1.0000 0.0709289234
C   C95       1.0  0.28130  0.57440  0.70180  1.0000 0.0709289234
C   C96       1.0  0.28130  0.92560  0.20180  1.0000 0.0709289234
C   C97       1.0  0.90660  0.18370  0.20320  1.0000 -0.1681573665
C   C98       1.0  0.90660  0.31630  0.70320  1.0000 -0.1681573665
C   C99       1.0  0.09340  0.81630  0.79680  1.0000 -0.1681573665
C   C100      1.0  0.09340  0.68370  0.29680  1.0000 -0.1681573665
C   C101      1.0  0.21730  0.32370  0.29600  1.0000 0.0709289234
C   C102      1.0  0.21730  0.17630  0.79600  1.0000 0.0709289234
C   C103      1.0  0.78270  0.67630  0.70400  1.0000 0.0709289234
C   C104      1.0  0.78270  0.82370  0.20400  1.0000 0.0709289234
C   C105      1.0  0.15710  0.44820  0.20850  1.0000 -0.1601466708
C   C106      1.0  0.15710  0.05180  0.70850  1.0000 -0.1601466708
C   C107      1.0  0.84290  0.55180  0.79150  1.0000 -0.1601466708
C   C108      1.0  0.84290  0.94820  0.29150  1.0000 -0.1601466708
C   C109      1.0  0.78240  0.52460  0.04290  1.0000 0.0283344611
C   C110      1.0  0.78240  0.97540  0.54290  1.0000 0.0283344611
C   C111      1.0  0.21760  0.47540  0.95710  1.0000 0.0283344611
C   C112      1.0  0.21760  0.02460  0.45710  1.0000 0.0283344611
C   C113      1.0  0.97500  0.21770  0.24560  1.0000 0.0196774909
C   C114      1.0  0.97500  0.28230  0.74560  1.0000 0.0196774909
C   C115      1.0  0.02500  0.78230  0.75440  1.0000 0.0196774909
C   C116      1.0  0.02500  0.71770  0.25440  1.0000 0.0196774909
C   C117      1.0  0.16800  0.24010  0.98750  1.0000 -0.1601466708
C   C118      1.0  0.16800  0.25990  0.48750  1.0000 -0.1601466708
C   C119      1.0  0.83200  0.75990  0.01250  1.0000 -0.1681573665
C   C120      1.0  0.83200  0.74010  0.51250  1.0000 -0.1681573665
C   C121      1.0  0.20270  0.53480  0.45600  1.0000 0.0283344611
C   C122      1.0  0.20270  0.96520  0.95600  1.0000 0.0283344611
C   C123      1.0  0.79730  0.46520  0.54400  1.0000 0.0283344611
C   C124      1.0  0.79730  0.03480  0.04400  1.0000 0.0283344611
C   C125      1.0  0.67140  0.21430  0.44860  1.0000 0.0196774909
C   C126      1.0  0.67140  0.28570  0.94860  1.0000 0.0196774909
C   C127      1.0  0.32860  0.78570  0.55140  1.0000 0.0196774909
C   C128      1.0  0.32860  0.71430  0.05140  1.0000 0.0196774909
C   C129      1.0  0.56040  0.56080  0.30470  1.0000 -0.1777595309
C   C130      1.0  0.56040  0.93920  0.80470  1.0000 -0.1777595309
C   C131      1.0  0.43960  0.43920  0.69530  1.0000 -0.1777595309
C   C132      1.0  0.43960  0.06080  0.19530  1.0000 -0.1777595309
C   C133      1.0  0.05990  0.13650  0.29150  1.0000 0.0620589969
C   C134      1.0  0.05990  0.36350  0.79150  1.0000 0.0620589969
C   C135      1.0  0.94010  0.86350  0.70850  1.0000 0.0620589969
C   C136      1.0  0.94010  0.63650  0.20850  1.0000 0.0620589969
C   C137      1.0  0.29900  0.18960  0.02720  1.0000 -0.1601466708
C   C138      1.0  0.29900  0.31040  0.52720  1.0000 -0.1601466708
C   C139      1.0  0.70100  0.81040  0.97280  1.0000 -0.1601466708
C   C140      1.0  0.70100  0.68960  0.47280  1.0000 -0.1601466708
C   C141      1.0  0.62350  0.24370  0.38730  1.0000 0.560624242
C   C142      1.0  0.62350  0.25630  0.88730  1.0000 0.560624242
C   C143      1.0  0.37650  0.75630  0.61270  1.0000 0.560624242
C   C144      1.0  0.37650  0.74370  0.11270  1.0000 0.560624242
C   C145      1.0  0.91800  0.12690  0.20590  1.0000 0.0783427136
C   C146      1.0  0.91800  0.37310  0.70590  1.0000 0.0783427136
C   C147      1.0  0.08200  0.87310  0.79410  1.0000 0.0783427136
C   C148      1.0  0.08200  0.62690  0.29410  1.0000 0.0783427136
C   C149      1.0  0.05280  0.19310  0.29030  1.0000 -0.1601466708
C   C150      1.0  0.05280  0.30690  0.79030  1.0000 -0.1601466708
C   C151      1.0  0.94720  0.80690  0.70970  1.0000 -0.1601466708
C   C152      1.0  0.94720  0.69310  0.20970  1.0000 -0.1601466708
C   C153      1.0  0.28820  0.51890  0.49990  1.0000 -0.1681573665
C   C154      1.0  0.28820  0.98110  0.99990  1.0000 -0.1681573665
C   C155      1.0  0.71180  0.48110  0.50010  1.0000 -0.1681573665
C   C156      1.0  0.71180  0.01890  0.00010  1.0000 -0.1681573665
C   C157      1.0  0.83370  0.56300  0.03850  1.0000 -0.1601466708
C   C158      1.0  0.83370  0.93700  0.53850  1.0000 -0.1601466708
C   C159      1.0  0.16630  0.43700  0.96150  1.0000 -0.1601466708
C   C160      1.0  0.16630  0.06300  0.46150  1.0000 -0.1601466708
C   C161      1.0  0.70060  0.51150  0.99040  1.0000 -0.1777595309
C   C162      1.0  0.70060  0.98850  0.49040  1.0000 -0.1777595309
C   C163      1.0  0.29940  0.48850  0.00960  1.0000 -0.1777595309
C   C164      1.0  0.29940  0.01150  0.50960  1.0000 -0.1777595309
C   C165      1.0  0.34140  0.54870  0.55490  1.0000 0.0709289234
C   C166      1.0  0.34140  0.95130  0.05490  1.0000 0.0709289234
C   C167      1.0  0.65860  0.45130  0.44510  1.0000 0.0709289234
C   C168      1.0  0.65860  0.04870  0.94510  1.0000 0.0709289234
C   C169      1.0  0.17250  0.58160  0.46830  1.0000 -0.1523248998
C   C170      1.0  0.17250  0.91840  0.96830  1.0000 -0.1523248998
C   C171      1.0  0.82750  0.41840  0.53170  1.0000 -0.1523248998
C   C172      1.0  0.82750  0.08160  0.03170  1.0000 -0.1523248998
C   C173      1.0  0.22800  0.60980  0.52330  1.0000 0.0709289234
C   C174      1.0  0.22800  0.89020  0.02330  1.0000 0.0709289234
C   C175      1.0  0.77200  0.39020  0.47670  1.0000 0.0709289234
C   C176      1.0  0.77200  0.10980  0.97670  1.0000 0.0709289234
C   C177      1.0  0.80220  0.58600  0.98260  1.0000 0.0620589969
C   C178      1.0  0.80220  0.91400  0.48260  1.0000 0.0620589969
C   C179      1.0  0.19780  0.41400  0.01740  1.0000 0.0620589969
C   C180      1.0  0.19780  0.08600  0.51740  1.0000 0.0620589969
C   C181      1.0  0.67360  0.53770  0.93420  1.0000 0.092726541
C   C182      1.0  0.67360  0.96230  0.43420  1.0000 0.092726541
C   C183      1.0  0.32640  0.46230  0.06580  1.0000 0.092726541
C   C184      1.0  0.32640  0.03770  0.56580  1.0000 0.092726541
C   C185      1.0  0.12970  0.20960  0.93370  1.0000 0.0709289234
C   C186      1.0  0.12970  0.29040  0.43370  1.0000 0.0709289234
C   C187      1.0  0.87030  0.79040  0.06630  1.0000 0.0709289234
C   C188      1.0  0.87030  0.70960  0.56630  1.0000 0.0709289234
C   C189      1.0  0.25630  0.16240  0.97180  1.0000 0.0620589969
C   C190      1.0  0.25630  0.33760  0.47180  1.0000 0.0620589969
C   C191      1.0  0.74370  0.83760  0.02820  1.0000 0.0620589969
C   C192      1.0  0.74370  0.66240  0.52820  1.0000 0.0620589969
C   C193      1.0  0.41560  0.57030  0.21520  1.0000 -0.1681573665
C   C194      1.0  0.41560  0.92970  0.71520  1.0000 -0.1681573665
C   C195      1.0  0.58440  0.42970  0.78480  1.0000 -0.1681573665
C   C196      1.0  0.58440  0.07030  0.28480  1.0000 -0.1681573665
C   C197      1.0  0.56600  0.61860  0.30530  1.0000 0.0709289234
C   C198      1.0  0.56600  0.88140  0.80530  1.0000 0.0709289234
C   C199      1.0  0.43400  0.38140  0.69470  1.0000 0.0709289234
C   C200      1.0  0.43400  0.11860  0.19470  1.0000 0.0709289234
C   C201      1.0  0.42710  0.62670  0.21880  1.0000 0.0620589969
C   C202      1.0  0.42710  0.87330  0.71880  1.0000 0.0620589969
C   C203      1.0  0.57290  0.37330  0.78120  1.0000 0.0620589969
C   C204      1.0  0.57290  0.12670  0.28120  1.0000 0.0620589969
C   C205      1.0  0.63180  0.17200  0.45950  1.0000 -0.1681573665
C   C206      1.0  0.63180  0.32800  0.95950  1.0000 -0.1681573665
C   C207      1.0  0.36820  0.82800  0.54050  1.0000 -0.1681573665
C   C208      1.0  0.36820  0.67200  0.04050  1.0000 -0.1681573665
C   C209      1.0  0.67880  0.14660  0.51750  1.0000 0.0783427136
C   C210      1.0  0.67880  0.35340  0.01750  1.0000 0.0783427136
C   C211      1.0  0.32120  0.85340  0.48250  1.0000 0.0783427136
C   C212      1.0  0.32120  0.64660  0.98250  1.0000 0.0783427136
C   C213      1.0  0.79980  0.20050  0.55190  1.0000 0.0783427136
C   C214      1.0  0.79980  0.29950  0.05190  1.0000 0.0783427136
C   C215      1.0  0.20020  0.79950  0.44810  1.0000 0.0783427136
C   C216      1.0  0.20020  0.70050  0.94810  1.0000 0.0783427136
C   C217      1.0  0.75720  0.22800  0.49600  1.0000 -0.1523248998
C   C218      1.0  0.75720  0.27200  0.99600  1.0000 -0.1523248998
C   C219      1.0  0.24280  0.77200  0.50400  1.0000 -0.1523248998
C   C220      1.0  0.24280  0.72800  0.00400  1.0000 -0.1601466708
C   C221      1.0  0.57750  0.38780  0.14210  1.0000 -0.1601466708
C   C222      1.0  0.57750  0.11220  0.64210  1.0000 -0.1601466708
C   C223      1.0  0.42250  0.61220  0.85790  1.0000 -0.1681573665
C   C224      1.0  0.42250  0.88780  0.35790  1.0000 -0.1601466708
C   C225      1.0  0.71550  0.31630  0.19320  1.0000 0.0783427136
C   C226      1.0  0.71550  0.18370  0.69320  1.0000 0.0783427136
C   C227      1.0  0.28450  0.68370  0.80680  1.0000 0.0783427136
C   C228      1.0  0.28450  0.81630  0.30680  1.0000 0.0783427136
C   C229      1.0  0.64220  0.39570  0.13570  1.0000 0.0494839902
C   C230      1.0  0.64220  0.10430  0.63570  1.0000 0.0494839902
C   C231      1.0  0.35780  0.60430  0.86430  1.0000 0.0494839902
C   C232      1.0  0.35780  0.89570  0.36430  1.0000 0.0494839902
C   C233      1.0  0.58230  0.34320  0.17760  1.0000 0.0196774909
C   C234      1.0  0.58230  0.15680  0.67760  1.0000 0.0196774909
C   C235      1.0  0.41770  0.65680  0.82240  1.0000 0.0196774909
C   C236      1.0  0.41770  0.84320  0.32240  1.0000 0.0196774909
C   C237      1.0  0.65450  0.30690  0.20340  1.0000 -0.1601466708
C   C238      1.0  0.65450  0.19310  0.70340  1.0000 -0.1601466708
C   C239      1.0  0.34550  0.69310  0.79660  1.0000 -0.1601466708
C   C240      1.0  0.34550  0.80690  0.29660  1.0000 -0.1601466708
C   C241      1.0  0.86930  0.58990  0.29620  1.0000 0.568658522
C   C242      1.0  0.86930  0.91010  0.79620  1.0000 0.568658522
C   C243      1.0  0.13070  0.41010  0.70380  1.0000 0.568658522
C   C244      1.0  0.13070  0.08990  0.20380  1.0000 0.568658522
C   C245      1.0  0.79470  0.62690  0.28180  1.0000 0.0196774909
C   C246      1.0  0.79470  0.87310  0.78180  1.0000 0.0196774909
C   C247      1.0  0.20530  0.37310  0.71820  1.0000 0.0196774909
C   C248      1.0  0.20530  0.12690  0.21820  1.0000 0.0196774909
C   C249      1.0  0.81080  0.66680  0.32010  1.0000 -0.1270096579
C   C250      1.0  0.81080  0.83320  0.82010  1.0000 -0.1270096579
C   C251      1.0  0.18920  0.33320  0.67990  1.0000 -0.1270096579
C   C252      1.0  0.18920  0.16680  0.17990  1.0000 -0.1270096579
C   C253      1.0  0.74030  0.70200  0.30860  1.0000 -0.005985592
C   C254      1.0  0.74030  0.79800  0.80860  1.0000 -0.005985592
C   C255      1.0  0.25970  0.29800  0.69140  1.0000 -0.005985592
C   C256      1.0  0.25970  0.20200  0.19140  1.0000 -0.005985592
C   C257      1.0  0.64310  0.65310  0.22300  1.0000 0.1085990994
C   C258      1.0  0.64310  0.84690  0.72300  1.0000 0.1085990994
C   C259      1.0  0.35690  0.34690  0.77700  1.0000 0.1017545056
C   C260      1.0  0.35690  0.15310  0.27700  1.0000 0.1085990994
C   C261      1.0  0.71410  0.61700  0.23100  1.0000 -0.1601466708
C   C262      1.0  0.71410  0.88300  0.73100  1.0000 -0.1601466708
C   C263      1.0  0.28590  0.38300  0.76900  1.0000 -0.1601466708
C   C264      1.0  0.28590  0.11700  0.26900  1.0000 -0.1601466708
N   N1        1.0  0.21250  0.39830  0.16080  1.0000 -0.2577245978
N   N2        1.0  0.21250  0.10170  0.66080  1.0000 -0.2577245978
N   N3        1.0  0.78750  0.60170  0.83920  1.0000 -0.2577245978
N   N4        1.0  0.78750  0.89830  0.33920  1.0000 -0.2577245978
N   N5        1.0  0.22270  0.36500  0.33170  1.0000 -0.2395534644
N   N6        1.0  0.22270  0.13500  0.83170  1.0000 -0.2395534644
N   N7        1.0  0.77730  0.63500  0.66830  1.0000 -0.2395534644
N   N8        1.0  0.77730  0.86500  0.16830  1.0000 -0.2395534644
N   N9        1.0  0.00550  0.60220  0.25070  1.0000 -0.2289803257
N   N10       1.0  0.00550  0.89780  0.75070  1.0000 -0.2289803257
N   N11       1.0  0.99450  0.39780  0.74930  1.0000 -0.2289803257
N   N12       1.0  0.99450  0.10220  0.24930  1.0000 -0.2289803257
N   N13       1.0  0.68870  0.40640  0.43290  1.0000 -0.2395534644
N   N14       1.0  0.68870  0.09360  0.93290  1.0000 -0.2395534644
N   N15       1.0  0.31130  0.59360  0.56710  1.0000 -0.2395534644
N   N16       1.0  0.31130  0.90640  0.06710  1.0000 -0.2395534644
N   N17       1.0  0.27750  0.42620  0.06950  1.0000 -0.2289803257
N   N18       1.0  0.27750  0.07380  0.56950  1.0000 -0.2289803257
N   N19       1.0  0.72250  0.57380  0.93050  1.0000 -0.2289803257
N   N20       1.0  0.72250  0.92620  0.43050  1.0000 -0.2289803257
N   N21       1.0  0.71980  0.38230  0.33000  1.0000 -0.2527277468
N   N22       1.0  0.71980  0.11770  0.83000  1.0000 -0.2527277468
N   N23       1.0  0.28020  0.61770  0.67000  1.0000 -0.2527277468
N   N24       1.0  0.28020  0.88230  0.17000  1.0000 -0.2527277468
N   N25       1.0  0.17260  0.17110  0.92520  1.0000 -0.2289803257
N   N26       1.0  0.17260  0.32890  0.42520  1.0000 -0.2289803257
N   N27       1.0  0.82740  0.82890  0.07480  1.0000 -0.2289803257
N   N28       1.0  0.82740  0.67110  0.57480  1.0000 -0.2289803257
N   N29       1.0  0.49770  0.15160  0.23690  1.0000 -0.2289803257
N   N30       1.0  0.49770  0.34840  0.73690  1.0000 -0.2289803257
N   N31       1.0  0.50230  0.84840  0.76310  1.0000 -0.2289803257
N   N32       1.0  0.50230  0.65160  0.26310  1.0000 -0.2289803257
N   N33       1.0  0.76060  0.16120  0.56370  1.0000 -0.2289803257
N   N34       1.0  0.76060  0.33880  0.06370  1.0000 -0.2289803257
N   N35       1.0  0.23940  0.83880  0.43630  1.0000 -0.2289803257
N   N36       1.0  0.23940  0.66120  0.93630  1.0000 -0.2289803257
N   N37       1.0  0.71180  0.36050  0.16080  1.0000 -0.2527277468
N   N38       1.0  0.71180  0.13950  0.66080  1.0000 -0.2527277468
N   N39       1.0  0.28820  0.63950  0.83920  1.0000 -0.2527277468
N   N40       1.0  0.28820  0.86050  0.33920  1.0000 -0.2527277468
N   N41       1.0  0.34560  0.19320  0.24190  1.0000 -0.2660173176
N   N42       1.0  0.34560  0.30680  0.74190  1.0000 -0.2660173176
N   N43       1.0  0.65440  0.80680  0.75810  1.0000 -0.2660173176
N   N44       1.0  0.65440  0.69320  0.25810  1.0000 -0.2660173176
Cl  Cl1       1.0  0.01640  0.72350  0.46930  1.0000 0.5221357348
Cl  Cl2       1.0  0.01640  0.77650  0.96930  1.0000 0.5221357348
Cl  Cl3       1.0  0.98360  0.27650  0.53070  1.0000 0.5132579805
Cl  Cl4       1.0  0.98360  0.22350  0.03070  1.0000 0.5132579805
O   O1        1.0  0.89540  0.43170  0.25550  1.0000 -0.5841705201
O   O2        1.0  0.89540  0.06830  0.75550  1.0000 -0.5841705201
O   O3        1.0  0.10460  0.56830  0.74450  1.0000 -0.5841705201
O   O4        1.0  0.10460  0.93170  0.24450  1.0000 -0.5841705201
O   O5        1.0  0.54270  0.30860  0.23980  1.0000 -0.5841705201
O   O6        1.0  0.54270  0.19140  0.73980  1.0000 -0.5841705201
O   O7        1.0  0.45730  0.69140  0.76020  1.0000 -0.5841705201
O   O8        1.0  0.45730  0.80860  0.26020  1.0000 -0.5841705201
O   O9        1.0  0.39830  0.45380  0.21940  1.0000 -0.5591645183
O   O10       1.0  0.39830  0.04620  0.71940  1.0000 -0.5591645183
O   O11       1.0  0.60170  0.54620  0.78060  1.0000 -0.5591645183
O   O12       1.0  0.60170  0.95380  0.28060  1.0000 -0.5591645183
O   O13       1.0  0.26040  0.30050  0.09950  1.0000 -0.5415743513
O   O14       1.0  0.26040  0.19950  0.59950  1.0000 -0.5415743513
O   O15       1.0  0.73960  0.69950  0.90050  1.0000 -0.5415743513
O   O16       1.0  0.73960  0.80050  0.40050  1.0000 -0.5415743513
O   O17       1.0  0.04700  0.44380  0.24450  1.0000 -0.6051883249
O   O18       1.0  0.04700  0.05620  0.74450  1.0000 -0.6051883249
O   O19       1.0  0.95300  0.55620  0.75550  1.0000 -0.6051883249
O   O20       1.0  0.95300  0.94380  0.25550  1.0000 -0.6051883249
O   O21       1.0  0.39270  0.32210  0.25240  1.0000 -0.5884525178
O   O22       1.0  0.39270  0.17790  0.75240  1.0000 -0.5884525178
O   O23       1.0  0.60730  0.67790  0.74760  1.0000 -0.5884525178
O   O24       1.0  0.60730  0.82210  0.24760  1.0000 -0.5884525178
O   O25       1.0  0.44650  0.36100  0.15740  1.0000 -0.5415743513
O   O26       1.0  0.44650  0.13900  0.65740  1.0000 -0.5415743513
O   O27       1.0  0.55350  0.63900  0.84260  1.0000 -0.5415743513
O   O28       1.0  0.55350  0.86100  0.34260  1.0000 -0.5415743513
O   O29       1.0  0.03680  0.30860  0.27240  1.0000 -0.570020057
O   O30       1.0  0.03680  0.19140  0.77240  1.0000 -0.570020057
O   O31       1.0  0.96320  0.69140  0.72760  1.0000 -0.570020057
O   O32       1.0  0.96320  0.80860  0.22760  1.0000 -0.570020057
O   O33       1.0  0.54500  0.44560  0.28460  1.0000 -0.5591645183
O   O34       1.0  0.54500  0.05440  0.78460  1.0000 -0.5591645183
O   O35       1.0  0.45500  0.55440  0.71540  1.0000 -0.5591645183
O   O36       1.0  0.45500  0.94560  0.21540  1.0000 -0.5591645183
O   O37       1.0  0.76920  0.46200  0.10500  1.0000 -0.5591645183
O   O38       1.0  0.76920  0.03800  0.60500  1.0000 -0.5591645183
O   O39       1.0  0.23080  0.53800  0.89500  1.0000 -0.5591645183
O   O40       1.0  0.23080  0.96200  0.39500  1.0000 -0.5591645183
O   O41       1.0  0.66380  0.28140  0.38200  1.0000 -0.5494341252
O   O42       1.0  0.66380  0.21860  0.88200  1.0000 -0.5494341252
O   O43       1.0  0.33620  0.71860  0.61800  1.0000 -0.5494341252
O   O44       1.0  0.33620  0.78140  0.11800  1.0000 -0.5494341252
O   O45       1.0  0.37200  0.24100  0.14040  1.0000 -0.5591645183
O   O46       1.0  0.37200  0.25900  0.64040  1.0000 -0.5591645183
O   O47       1.0  0.62800  0.75900  0.85960  1.0000 -0.5591645183
O   O48       1.0  0.62800  0.74100  0.35960  1.0000 -0.5591645183
O   O49       1.0  0.99440  0.38850  0.34480  1.0000 -0.5415743513
O   O50       1.0  0.99440  0.11150  0.84480  1.0000 -0.5415743513
O   O51       1.0  0.00560  0.61150  0.65520  1.0000 -0.5415743513
O   O52       1.0  0.00560  0.88850  0.15520  1.0000 -0.5415743513
O   O53       1.0  0.17570  0.45840  0.39180  1.0000 -0.5591645183
O   O54       1.0  0.17570  0.04160  0.89180  1.0000 -0.5591645183
O   O55       1.0  0.82430  0.54160  0.60820  1.0000 -0.5591645183
O   O56       1.0  0.82430  0.95840  0.10820  1.0000 -0.5591645183
O   O57       1.0  0.49490  0.35930  0.34470  1.0000 -0.5210402606
O   O58       1.0  0.49490  0.14070  0.84470  1.0000 -0.5210402606
O   O59       1.0  0.50510  0.64070  0.65530  1.0000 -0.5210402606
O   O60       1.0  0.50510  0.85930  0.15530  1.0000 -0.5210402606
O   O61       1.0  0.94690  0.39820  0.15680  1.0000 -0.534012377
O   O62       1.0  0.94690  0.10180  0.65680  1.0000 -0.534012377
O   O63       1.0  0.05310  0.60180  0.84320  1.0000 -0.534012377
O   O64       1.0  0.05310  0.89820  0.34320  1.0000 -0.534012377
O   O65       1.0  0.88950  0.30040  0.20960  1.0000 -0.5591645183
O   O66       1.0  0.88950  0.19960  0.70960  1.0000 -0.5591645183
O   O67       1.0  0.11050  0.69960  0.79040  1.0000 -0.5591645183
O   O68       1.0  0.11050  0.80040  0.29040  1.0000 -0.5591645183
O   O69       1.0  0.06630  0.51940  0.35780  1.0000 -0.5415743513
O   O70       1.0  0.06630  0.98060  0.85780  1.0000 -0.5415743513
O   O71       1.0  0.93370  0.48060  0.64220  1.0000 -0.5415743513
O   O72       1.0  0.93370  0.01940  0.14220  1.0000 -0.5415743513
O   O73       1.0  0.54490  0.22860  0.34660  1.0000 -0.570020057
O   O74       1.0  0.54490  0.27140  0.84660  1.0000 -0.570020057
O   O75       1.0  0.45510  0.77140  0.65340  1.0000 -0.570020057
O   O76       1.0  0.45510  0.72860  0.15340  1.0000 -0.570020057
O   O77       1.0  0.88570  0.51960  0.15110  1.0000 -0.5591645183
O   O78       1.0  0.88570  0.98040  0.65110  1.0000 -0.5591645183
O   O79       1.0  0.11430  0.48040  0.84890  1.0000 -0.5591645183
O   O80       1.0  0.11430  0.01960  0.34890  1.0000 -0.5591645183
O   O81       1.0  0.85670  0.55730  0.25600  1.0000 -0.5494341252
O   O82       1.0  0.85670  0.94270  0.75600  1.0000 -0.5494341252
O   O83       1.0  0.14330  0.44270  0.74400  1.0000 -0.5494341252
O   O84       1.0  0.14330  0.05730  0.24400  1.0000 -0.5494341252
O   O85       1.0  0.94050  0.58580  0.35280  1.0000 -0.5591645183
O   O86       1.0  0.94050  0.91420  0.85280  1.0000 -0.5591645183
O   O87       1.0  0.05950  0.41420  0.64720  1.0000 -0.5591645183
O   O88       1.0  0.05950  0.08580  0.14720  1.0000 -0.5591645183
O   O89       1.0  0.94650  0.73960  0.44700  1.0000 -0.1777595309
O   O90       1.0  0.02750  0.73210  0.43080  1.0000 -0.201292712
O   O91       1.0  0.02210  0.67600  0.47570  1.0000 -0.1523248998
O   O92       1.0  0.06750  0.74620  0.51240  1.0000 -0.1681573665
O   O93       1.0  0.94650  0.76040  0.94700  1.0000 -0.1777595309
O   O94       1.0  0.02750  0.76790  0.93080  1.0000 -0.201292712
O   O95       1.0  0.02210  0.82400  0.97570  1.0000 -0.1601466708
O   O96       1.0  0.06750  0.75380  0.01240  1.0000 -0.1681573665
O   O97       1.0  0.05350  0.26040  0.55300  1.0000 -0.1857338918
O   O98       1.0  0.97250  0.26790  0.56920  1.0000 -0.201292712
O   O99       1.0  0.97790  0.32400  0.52430  1.0000 -0.1601466708
O   O100      1.0  0.93250  0.25380  0.48760  1.0000 -0.1681573665
O   O101      1.0  0.05350  0.23960  0.05300  1.0000 -0.1857338918
O   O102      1.0  0.97250  0.23210  0.06920  1.0000 -0.201292712
O   O103      1.0  0.97790  0.17600  0.02430  1.0000 -0.1601466708
O   O104      1.0  0.93250  0.24620  0.98760  1.0000 -0.1681573665
