# DDEC6 charges by PACMAN v1.1 (https://github.com/mtap-research/PACMAN-charge/)
data_2000[Cu][dia]3[ION]1
_chemical_formula_sum              "Cu4 H64 C80 N32"
_cell_length_a       17.327
_cell_length_b       17.327
_cell_length_c       7.7288
_cell_angle_alpha    90
_cell_angle_beta     90
_cell_angle_gamma    90

_symmetry_space_group_name_H-M    "P 1"
_symmetry_Int_Tables_number       1

loop_
  _symmetry_equiv_pos_as_xyz
  'x, y, z'

loop_
  _atom_site_type_symbol
  _atom_site_label
  _atom_site_symmetry_multiplicity
  _atom_site_fract_x
  _atom_site_fract_y
  _atom_site_fract_z
  _atom_site_occupancy
  _atom_site_charge
Cu  Cu1       1.0  0.00000  0.25000  0.12500  1.0000 0.2068953304
Cu  Cu2       1.0  0.50000  0.75000  0.62500  1.0000 0.2068953304
Cu  Cu3       1.0  0.50000  0.25000  0.37500  1.0000 0.2068953304
Cu  Cu4       1.0  0.00000  0.75000  0.87500  1.0000 0.2068953304
H   H1        1.0  0.90410  0.49300  0.84380  1.0000 0.1313388566
H   H2        1.0  0.90980  0.39710  0.05200  1.0000 0.0991371921
H   H3        1.0  0.09320  0.30640  0.83520  1.0000 0.0913567371
H   H4        1.0  0.09100  0.39670  0.61490  1.0000 0.1313388566
H   H5        1.0  0.40410  0.99300  0.34380  1.0000 0.1313388566
H   H6        1.0  0.40980  0.89710  0.55200  1.0000 0.0991371921
H   H7        1.0  0.59320  0.80640  0.33520  1.0000 0.0913567371
H   H8        1.0  0.59100  0.89670  0.11490  1.0000 0.1313388566
H   H9        1.0  0.59590  0.50700  0.34380  1.0000 0.1313388566
H   H10       1.0  0.59020  0.60290  0.55200  1.0000 0.0991371921
H   H11       1.0  0.40680  0.69360  0.33520  1.0000 0.0913567371
H   H12       1.0  0.40900  0.60330  0.11490  1.0000 0.1313388566
H   H13       1.0  0.09590  0.00700  0.84380  1.0000 0.1313388566
H   H14       1.0  0.09020  0.10290  0.05200  1.0000 0.0991371921
H   H15       1.0  0.90680  0.19360  0.83520  1.0000 0.0913567371
H   H16       1.0  0.90900  0.10330  0.61490  1.0000 0.1313388566
H   H17       1.0  0.25700  0.15410  0.09380  1.0000 0.1313388566
H   H18       1.0  0.35290  0.15980  0.30200  1.0000 0.0991371921
H   H19       1.0  0.44360  0.34320  0.08520  1.0000 0.0913567371
H   H20       1.0  0.35330  0.34100  0.86490  1.0000 0.1313388566
H   H21       1.0  0.75700  0.65410  0.59380  1.0000 0.1313388566
H   H22       1.0  0.85290  0.65980  0.80200  1.0000 0.0991371921
H   H23       1.0  0.94360  0.84320  0.58520  1.0000 0.0913567371
H   H24       1.0  0.85330  0.84100  0.36490  1.0000 0.1313388566
H   H25       1.0  0.24300  0.84590  0.59380  1.0000 0.1313388566
H   H26       1.0  0.14710  0.84020  0.80200  1.0000 0.0991371921
H   H27       1.0  0.05640  0.65680  0.58520  1.0000 0.0913567371
H   H28       1.0  0.14670  0.65900  0.36490  1.0000 0.1313388566
H   H29       1.0  0.74300  0.34590  0.09380  1.0000 0.1313388566
H   H30       1.0  0.64710  0.34020  0.30200  1.0000 0.0991371921
H   H31       1.0  0.55640  0.15680  0.08520  1.0000 0.0913567371
H   H32       1.0  0.64670  0.15900  0.86490  1.0000 0.1313388566
H   H33       1.0  0.09590  0.50700  0.15620  1.0000 0.1313388566
H   H34       1.0  0.09020  0.60290  0.94800  1.0000 0.0991371921
H   H35       1.0  0.90680  0.69360  0.16480  1.0000 0.0913567371
H   H36       1.0  0.90900  0.60330  0.38510  1.0000 0.1313388566
H   H37       1.0  0.59590  0.00700  0.65620  1.0000 0.1313388566
H   H38       1.0  0.59020  0.10290  0.44800  1.0000 0.0991371921
H   H39       1.0  0.40680  0.19360  0.66480  1.0000 0.0913567371
H   H40       1.0  0.40900  0.10330  0.88510  1.0000 0.1313388566
H   H41       1.0  0.40410  0.49300  0.65620  1.0000 0.1313388566
H   H42       1.0  0.40980  0.39710  0.44800  1.0000 0.0991371921
H   H43       1.0  0.59320  0.30640  0.66480  1.0000 0.0913567371
H   H44       1.0  0.59100  0.39670  0.88510  1.0000 0.1313388566
H   H45       1.0  0.90410  0.99300  0.15620  1.0000 0.1313388566
H   H46       1.0  0.90980  0.89710  0.94800  1.0000 0.0991371921
H   H47       1.0  0.09320  0.80640  0.16480  1.0000 0.0913567371
H   H48       1.0  0.09100  0.89670  0.38510  1.0000 0.1313388566
H   H49       1.0  0.74300  0.84590  0.90620  1.0000 0.1313388566
H   H50       1.0  0.64710  0.84020  0.69800  1.0000 0.0991371921
H   H51       1.0  0.55640  0.65680  0.91480  1.0000 0.0913567371
H   H52       1.0  0.64670  0.65900  0.13510  1.0000 0.1313388566
H   H53       1.0  0.24300  0.34590  0.40620  1.0000 0.1313388566
H   H54       1.0  0.14710  0.34020  0.19800  1.0000 0.0991371921
H   H55       1.0  0.05640  0.15680  0.41480  1.0000 0.0913567371
H   H56       1.0  0.14670  0.15900  0.63510  1.0000 0.1313388566
H   H57       1.0  0.75700  0.15410  0.40620  1.0000 0.1313388566
H   H58       1.0  0.85290  0.15980  0.19800  1.0000 0.0991371921
H   H59       1.0  0.94360  0.34320  0.41480  1.0000 0.0913567371
H   H60       1.0  0.85330  0.34100  0.63510  1.0000 0.1313388566
H   H61       1.0  0.25700  0.65410  0.90620  1.0000 0.1313388566
H   H62       1.0  0.35290  0.65980  0.69800  1.0000 0.0991371921
H   H63       1.0  0.44360  0.84320  0.91480  1.0000 0.0913567371
H   H64       1.0  0.35330  0.84100  0.13510  1.0000 0.1313388566
C   C1        1.0  0.99460  0.45290  0.70290  1.0000 0.1732253409
C   C2        1.0  0.94250  0.45400  0.83720  1.0000 -0.2115505982
C   C3        1.0  0.94710  0.39730  0.96190  1.0000 0.0561258714
C   C4        1.0  0.05350  0.34410  0.83490  1.0000 0.0680129626
C   C5        1.0  0.05280  0.39760  0.70310  1.0000 -0.2115505982
C   C6        1.0  0.49460  0.95290  0.20290  1.0000 0.1732253409
C   C7        1.0  0.44250  0.95400  0.33720  1.0000 -0.2115505982
C   C8        1.0  0.44710  0.89730  0.46190  1.0000 0.0561258714
C   C9        1.0  0.55350  0.84410  0.33490  1.0000 0.0680129626
C   C10       1.0  0.55280  0.89760  0.20310  1.0000 -0.2115505982
C   C11       1.0  0.50540  0.54710  0.20290  1.0000 0.1732253409
C   C12       1.0  0.55750  0.54600  0.33720  1.0000 -0.2115505982
C   C13       1.0  0.55290  0.60270  0.46190  1.0000 0.0561258714
C   C14       1.0  0.44650  0.65590  0.33490  1.0000 0.0680129626
C   C15       1.0  0.44720  0.60240  0.20310  1.0000 -0.2115505982
C   C16       1.0  0.00540  0.04710  0.70290  1.0000 0.1732253409
C   C17       1.0  0.05750  0.04600  0.83720  1.0000 -0.2115505982
C   C18       1.0  0.05290  0.10270  0.96190  1.0000 0.0561258714
C   C19       1.0  0.94650  0.15590  0.83490  1.0000 0.0680129626
C   C20       1.0  0.94720  0.10240  0.70310  1.0000 -0.2115505982
C   C21       1.0  0.29710  0.24460  0.95290  1.0000 0.1732253409
C   C22       1.0  0.29600  0.19250  0.08720  1.0000 -0.2115505982
C   C23       1.0  0.35270  0.19710  0.21190  1.0000 0.0561258714
C   C24       1.0  0.40590  0.30350  0.08490  1.0000 0.0680129626
C   C25       1.0  0.35240  0.30280  0.95310  1.0000 -0.2115505982
C   C26       1.0  0.79710  0.74460  0.45290  1.0000 0.1732253409
C   C27       1.0  0.79600  0.69250  0.58720  1.0000 -0.2115505982
C   C28       1.0  0.85270  0.69710  0.71190  1.0000 0.0561258714
C   C29       1.0  0.90590  0.80350  0.58490  1.0000 0.0680129626
C   C30       1.0  0.85240  0.80280  0.45310  1.0000 -0.2115505982
C   C31       1.0  0.20290  0.75540  0.45290  1.0000 0.1732253409
C   C32       1.0  0.20400  0.80750  0.58720  1.0000 -0.2115505982
C   C33       1.0  0.14730  0.80290  0.71190  1.0000 0.0561258714
C   C34       1.0  0.09410  0.69650  0.58490  1.0000 0.0680129626
C   C35       1.0  0.14760  0.69720  0.45310  1.0000 -0.2115505982
C   C36       1.0  0.70290  0.25540  0.95290  1.0000 0.1732253409
C   C37       1.0  0.70400  0.30750  0.08720  1.0000 -0.2115505982
C   C38       1.0  0.64730  0.30290  0.21190  1.0000 0.0561258714
C   C39       1.0  0.59410  0.19650  0.08490  1.0000 0.0680129626
C   C40       1.0  0.64760  0.19720  0.95310  1.0000 -0.2115505982
C   C41       1.0  0.00540  0.54710  0.29710  1.0000 0.1732253409
C   C42       1.0  0.05750  0.54600  0.16280  1.0000 -0.2115505982
C   C43       1.0  0.05290  0.60270  0.03810  1.0000 0.0561258714
C   C44       1.0  0.94650  0.65590  0.16510  1.0000 0.0680129626
C   C45       1.0  0.94720  0.60240  0.29690  1.0000 -0.2115505982
C   C46       1.0  0.50540  0.04710  0.79710  1.0000 0.1732253409
C   C47       1.0  0.55750  0.04600  0.66280  1.0000 -0.2115505982
C   C48       1.0  0.55290  0.10270  0.53810  1.0000 0.0561258714
C   C49       1.0  0.44650  0.15590  0.66510  1.0000 0.0680129626
C   C50       1.0  0.44720  0.10240  0.79690  1.0000 -0.2115505982
C   C51       1.0  0.49460  0.45290  0.79710  1.0000 0.1732253409
C   C52       1.0  0.44250  0.45400  0.66280  1.0000 -0.2115505982
C   C53       1.0  0.44710  0.39730  0.53810  1.0000 0.0561258714
C   C54       1.0  0.55350  0.34410  0.66510  1.0000 0.0680129626
C   C55       1.0  0.55280  0.39760  0.79690  1.0000 -0.2115505982
C   C56       1.0  0.99460  0.95290  0.29710  1.0000 0.1732253409
C   C57       1.0  0.94250  0.95400  0.16280  1.0000 -0.2115505982
C   C58       1.0  0.94710  0.89730  0.03810  1.0000 0.0561258714
C   C59       1.0  0.05350  0.84410  0.16510  1.0000 0.0680129626
C   C60       1.0  0.05280  0.89760  0.29690  1.0000 -0.2115505982
C   C61       1.0  0.70290  0.75540  0.04710  1.0000 0.1732253409
C   C62       1.0  0.70400  0.80750  0.91280  1.0000 -0.2115505982
C   C63       1.0  0.64730  0.80290  0.78810  1.0000 0.0561258714
C   C64       1.0  0.59410  0.69650  0.91510  1.0000 0.0680129626
C   C65       1.0  0.64760  0.69720  0.04690  1.0000 -0.2115505982
C   C66       1.0  0.20290  0.25540  0.54710  1.0000 0.1732253409
C   C67       1.0  0.20400  0.30750  0.41280  1.0000 -0.2115505982
C   C68       1.0  0.14730  0.30290  0.28810  1.0000 0.0561258714
C   C69       1.0  0.09410  0.19650  0.41510  1.0000 0.0680129626
C   C70       1.0  0.14760  0.19720  0.54690  1.0000 -0.2115505982
C   C71       1.0  0.79710  0.24460  0.54710  1.0000 0.1732253409
C   C72       1.0  0.79600  0.19250  0.41280  1.0000 -0.2115505982
C   C73       1.0  0.85270  0.19710  0.28810  1.0000 0.0561258714
C   C74       1.0  0.90590  0.30350  0.41510  1.0000 0.0680129626
C   C75       1.0  0.85240  0.30280  0.54690  1.0000 -0.2115505982
C   C76       1.0  0.29710  0.74460  0.04710  1.0000 0.1732253409
C   C77       1.0  0.29600  0.69250  0.91280  1.0000 -0.2115505982
C   C78       1.0  0.35270  0.69710  0.78810  1.0000 0.0561258714
C   C79       1.0  0.40590  0.80350  0.91510  1.0000 0.0680129626
C   C80       1.0  0.35240  0.80280  0.04690  1.0000 -0.2115505982
N   N1        1.0  0.00159  0.34230  0.96240  1.0000 -0.2115505982
N   N2        1.0  0.98823  0.51111  0.57260  1.0000 -0.1676078555
N   N3        1.0  0.50159  0.84230  0.46240  1.0000 -0.2115505982
N   N4        1.0  0.48823  0.01111  0.07260  1.0000 -0.1676078555
N   N5        1.0  0.49841  0.65770  0.46240  1.0000 -0.2115505982
N   N6        1.0  0.51177  0.48889  0.07260  1.0000 -0.1676078555
N   N7        1.0  0.99841  0.15770  0.96240  1.0000 -0.2115505982
N   N8        1.0  0.01177  0.98889  0.57260  1.0000 -0.1676078555
N   N9        1.0  0.40770  0.25159  0.21240  1.0000 -0.2115505982
N   N10       1.0  0.23889  0.23823  0.82260  1.0000 -0.1676078555
N   N11       1.0  0.90770  0.75159  0.71240  1.0000 -0.2115505982
N   N12       1.0  0.73889  0.73823  0.32260  1.0000 -0.1676078555
N   N13       1.0  0.09230  0.74841  0.71240  1.0000 -0.2115505982
N   N14       1.0  0.26111  0.76177  0.32260  1.0000 -0.1676078555
N   N15       1.0  0.59230  0.24841  0.21240  1.0000 -0.2115505982
N   N16       1.0  0.76111  0.26177  0.82260  1.0000 -0.1676078555
N   N17       1.0  0.99841  0.65770  0.03760  1.0000 -0.2115505982
N   N18       1.0  0.01177  0.48889  0.42740  1.0000 -0.1676078555
N   N19       1.0  0.49841  0.15770  0.53760  1.0000 -0.2115505982
N   N20       1.0  0.51177  0.98889  0.92740  1.0000 -0.1676078555
N   N21       1.0  0.50159  0.34230  0.53760  1.0000 -0.2115505982
N   N22       1.0  0.48823  0.51111  0.92740  1.0000 -0.1676078555
N   N23       1.0  0.00159  0.84230  0.03760  1.0000 -0.2115505982
N   N24       1.0  0.98823  0.01111  0.42740  1.0000 -0.1676078555
N   N25       1.0  0.59230  0.74841  0.78760  1.0000 -0.2115505982
N   N26       1.0  0.76111  0.76177  0.17740  1.0000 -0.1676078555
N   N27       1.0  0.09230  0.24841  0.28760  1.0000 -0.2115505982
N   N28       1.0  0.26111  0.26177  0.67740  1.0000 -0.1676078555
N   N29       1.0  0.90770  0.25159  0.28760  1.0000 -0.2115505982
N   N30       1.0  0.73889  0.23823  0.67740  1.0000 -0.1676078555
N   N31       1.0  0.40770  0.75159  0.78760  1.0000 -0.2115505982
N   N32       1.0  0.23889  0.73823  0.17740  1.0000 -0.1676078555
