# DDEC6 charges by PACMAN v1.1 (https://github.com/mtap-research/PACMAN-charge/)
data_2000[Ag][srs]3[ION]1
_chemical_formula_sum              "Ag12 H96 C192 N56 O24"
_cell_length_a       19.8571
_cell_length_b       19.8571
_cell_length_c       19.8571
_cell_angle_alpha    108.46
_cell_angle_beta     108.46
_cell_angle_gamma    108.46

_symmetry_space_group_name_H-M    "P 1"
_symmetry_Int_Tables_number       1

loop_
  _symmetry_equiv_pos_as_xyz
  'x, y, z'

loop_
  _atom_site_type_symbol
  _atom_site_label
  _atom_site_symmetry_multiplicity
  _atom_site_fract_x
  _atom_site_fract_y
  _atom_site_fract_z
  _atom_site_occupancy
  _atom_site_charge
Ag  Ag1       1.0  0.61955  0.81477  0.87229  1.0000 0.3079796086
Ag  Ag2       1.0  0.81477  0.87229  0.61955  1.0000 0.3079796086
Ag  Ag3       1.0  0.87229  0.61955  0.81477  1.0000 0.3079796086
Ag  Ag4       1.0  0.29931  0.71745  0.99234  1.0000 0.2999234448
Ag  Ag5       1.0  0.71745  0.99234  0.29931  1.0000 0.2999234448
Ag  Ag6       1.0  0.99234  0.29931  0.71745  1.0000 0.2999234448
Ag  Ag7       1.0  0.12771  0.38045  0.18523  1.0000 0.3079796086
Ag  Ag8       1.0  0.38045  0.18523  0.12771  1.0000 0.3079796086
Ag  Ag9       1.0  0.18523  0.12771  0.38045  1.0000 0.3079796086
Ag  Ag10      1.0  0.00766  0.70069  0.28255  1.0000 0.2999234448
Ag  Ag11      1.0  0.70069  0.28255  0.00766  1.0000 0.2999234448
Ag  Ag12      1.0  0.28255  0.00766  0.70069  1.0000 0.2999234448
H   H1        1.0  0.24800  0.65740  0.81090  1.0000 0.1307895283
H   H2        1.0  0.65740  0.81090  0.24800  1.0000 0.1307895283
H   H3        1.0  0.81090  0.24800  0.65740  1.0000 0.1307895283
H   H4        1.0  0.22070  0.60340  0.67890  1.0000 0.1192496276
H   H5        1.0  0.60340  0.67890  0.22070  1.0000 0.1192496276
H   H6        1.0  0.67890  0.22070  0.60340  1.0000 0.1192496276
H   H7        1.0  0.32260  0.64050  0.64130  1.0000 0.1192496276
H   H8        1.0  0.64050  0.64130  0.32260  1.0000 0.1192496276
H   H9        1.0  0.64130  0.32260  0.64050  1.0000 0.1192496276
H   H10       1.0  0.45840  0.72340  0.74090  1.0000 0.1307895283
H   H11       1.0  0.72340  0.74090  0.45840  1.0000 0.1307895283
H   H12       1.0  0.74090  0.45840  0.72340  1.0000 0.1307895283
H   H13       1.0  0.79250  0.93230  0.99290  1.0000 0.1307895283
H   H14       1.0  0.93230  0.99290  0.79250  1.0000 0.1307895283
H   H15       1.0  0.99290  0.79250  0.93230  1.0000 0.1307895283
H   H16       1.0  0.92270  0.02010  0.09200  1.0000 0.1192496276
H   H17       1.0  0.02010  0.09200  0.92270  1.0000 0.1192496276
H   H18       1.0  0.09200  0.92270  0.02010  1.0000 0.1192496276
H   H19       1.0  0.95340  0.07930  0.22410  1.0000 0.1192496276
H   H20       1.0  0.07930  0.22410  0.95340  1.0000 0.1192496276
H   H21       1.0  0.22410  0.95340  0.07930  1.0000 0.1192496276
H   H22       1.0  0.85390  0.05150  0.26500  1.0000 0.1307895283
H   H23       1.0  0.05150  0.26500  0.85390  1.0000 0.1307895283
H   H24       1.0  0.26500  0.85390  0.05150  1.0000 0.1307895283
H   H25       1.0  0.59150  0.95820  0.35430  1.0000 0.1307895283
H   H26       1.0  0.95820  0.35430  0.59150  1.0000 0.1307895283
H   H27       1.0  0.35430  0.59150  0.95820  1.0000 0.1307895283
H   H28       1.0  0.48780  0.92070  0.38810  1.0000 0.1192496276
H   H29       1.0  0.92070  0.38810  0.48780  1.0000 0.1192496276
H   H30       1.0  0.38810  0.48780  0.92070  1.0000 0.1192496276
H   H31       1.0  0.35700  0.83040  0.29000  1.0000 0.1192496276
H   H32       1.0  0.83040  0.29000  0.35700  1.0000 0.1192496276
H   H33       1.0  0.29000  0.35700  0.83040  1.0000 0.1192496276
H   H34       1.0  0.32590  0.77650  0.15600  1.0000 0.1364201581
H   H35       1.0  0.77650  0.15600  0.32590  1.0000 0.1364201581
H   H36       1.0  0.15600  0.32590  0.77650  1.0000 0.1364201581
H   H37       1.0  0.64370  0.71340  0.95980  1.0000 0.1307895283
H   H38       1.0  0.71340  0.95980  0.64370  1.0000 0.1307895283
H   H39       1.0  0.95980  0.64370  0.71340  1.0000 0.1307895283
H   H40       1.0  0.68030  0.64970  0.03160  1.0000 0.1106145076
H   H41       1.0  0.64970  0.03160  0.68030  1.0000 0.1106145076
H   H42       1.0  0.03160  0.68030  0.64970  1.0000 0.1106145076
H   H43       1.0  0.75480  0.58450  0.00790  1.0000 0.1106145076
H   H44       1.0  0.58450  0.00790  0.75480  1.0000 0.1106145076
H   H45       1.0  0.00790  0.75480  0.58450  1.0000 0.1106145076
H   H46       1.0  0.80540  0.59150  0.91820  1.0000 0.1192496276
H   H47       1.0  0.59150  0.91820  0.80540  1.0000 0.1192496276
H   H48       1.0  0.91820  0.80540  0.59150  1.0000 0.1192496276
H   H49       1.0  0.18910  0.75200  0.34260  1.0000 0.1307895283
H   H50       1.0  0.75200  0.34260  0.18910  1.0000 0.1307895283
H   H51       1.0  0.34260  0.18910  0.75200  1.0000 0.1307895283
H   H52       1.0  0.32110  0.77930  0.39660  1.0000 0.1192496276
H   H53       1.0  0.77930  0.39660  0.32110  1.0000 0.1192496276
H   H54       1.0  0.39660  0.32110  0.77930  1.0000 0.1192496276
H   H55       1.0  0.35870  0.67740  0.35950  1.0000 0.1192496276
H   H56       1.0  0.67740  0.35950  0.35870  1.0000 0.1192496276
H   H57       1.0  0.35950  0.35870  0.67740  1.0000 0.1192496276
H   H58       1.0  0.25910  0.54160  0.27660  1.0000 0.1307895283
H   H59       1.0  0.54160  0.27660  0.25910  1.0000 0.1307895283
H   H60       1.0  0.27660  0.25910  0.54160  1.0000 0.1307895283
H   H61       1.0  0.00710  0.20750  0.06770  1.0000 0.1307895283
H   H62       1.0  0.20750  0.06770  0.00710  1.0000 0.1307895283
H   H63       1.0  0.06770  0.00710  0.20750  1.0000 0.1307895283
H   H64       1.0  0.90800  0.07730  0.97990  1.0000 0.1192496276
H   H65       1.0  0.07730  0.97990  0.90800  1.0000 0.1192496276
H   H66       1.0  0.97990  0.90800  0.07730  1.0000 0.1192496276
H   H67       1.0  0.77590  0.04660  0.92070  1.0000 0.1192496276
H   H68       1.0  0.04660  0.92070  0.77590  1.0000 0.1192496276
H   H69       1.0  0.92070  0.77590  0.04660  1.0000 0.1192496276
H   H70       1.0  0.73500  0.14610  0.94850  1.0000 0.1307895283
H   H71       1.0  0.14610  0.94850  0.73500  1.0000 0.1307895283
H   H72       1.0  0.94850  0.73500  0.14610  1.0000 0.1307895283
H   H73       1.0  0.64570  0.40850  0.04180  1.0000 0.1307895283
H   H74       1.0  0.40850  0.04180  0.64570  1.0000 0.1307895283
H   H75       1.0  0.04180  0.64570  0.40850  1.0000 0.1307895283
H   H76       1.0  0.61190  0.51220  0.07930  1.0000 0.1192496276
H   H77       1.0  0.51220  0.07930  0.61190  1.0000 0.1192496276
H   H78       1.0  0.07930  0.61190  0.51220  1.0000 0.1192496276
H   H79       1.0  0.71000  0.64300  0.16960  1.0000 0.1192496276
H   H80       1.0  0.64300  0.16960  0.71000  1.0000 0.1192496276
H   H81       1.0  0.16960  0.71000  0.64300  1.0000 0.1192496276
H   H82       1.0  0.84400  0.67410  0.22350  1.0000 0.1364201581
H   H83       1.0  0.67410  0.22350  0.84400  1.0000 0.1364201581
H   H84       1.0  0.22350  0.84400  0.67410  1.0000 0.1364201581
H   H85       1.0  0.04020  0.35630  0.28660  1.0000 0.1307895283
H   H86       1.0  0.35630  0.28660  0.04020  1.0000 0.1307895283
H   H87       1.0  0.28660  0.04020  0.35630  1.0000 0.1307895283
H   H88       1.0  0.96840  0.31970  0.35030  1.0000 0.1106145076
H   H89       1.0  0.31970  0.35030  0.96840  1.0000 0.1106145076
H   H90       1.0  0.35030  0.96840  0.31970  1.0000 0.1106145076
H   H91       1.0  0.99210  0.24520  0.41550  1.0000 0.1106145076
H   H92       1.0  0.24520  0.41550  0.99210  1.0000 0.1106145076
H   H93       1.0  0.41550  0.99210  0.24520  1.0000 0.1106145076
H   H94       1.0  0.08180  0.19460  0.40850  1.0000 0.1192496276
H   H95       1.0  0.19460  0.40850  0.08180  1.0000 0.1192496276
H   H96       1.0  0.40850  0.08180  0.19460  1.0000 0.1192496276
C   C1        1.0  0.52580  0.81900  0.97030  1.0000 0.1106145076
C   C2        1.0  0.81900  0.97030  0.52580  1.0000 0.1106145076
C   C3        1.0  0.97030  0.52580  0.81900  1.0000 0.1106145076
C   C4        1.0  0.46310  0.79810  0.99090  1.0000 0.1106145076
C   C5        1.0  0.79810  0.99090  0.46310  1.0000 0.1106145076
C   C6        1.0  0.99090  0.46310  0.79810  1.0000 0.1106145076
C   C7        1.0  0.37170  0.72150  0.85860  1.0000 0.1693026523
C   C8        1.0  0.72150  0.85860  0.37170  1.0000 0.1693026523
C   C9        1.0  0.85860  0.37170  0.72150  1.0000 0.1693026523
C   C10       1.0  0.29030  0.67000  0.79710  1.0000 -0.1908605827
C   C11       1.0  0.67000  0.79710  0.29030  1.0000 -0.1908605827
C   C12       1.0  0.79710  0.29030  0.67000  1.0000 -0.1908605827
C   C13       1.0  0.27440  0.63960  0.71920  1.0000 -0.1011781295
C   C14       1.0  0.63960  0.71920  0.27440  1.0000 -0.1011781295
C   C15       1.0  0.71920  0.27440  0.63960  1.0000 -0.1011781295
C   C16       1.0  0.33580  0.66030  0.69650  1.0000 -0.092508831
C   C17       1.0  0.66030  0.69650  0.33580  1.0000 -0.092508831
C   C18       1.0  0.69650  0.33580  0.66030  1.0000 -0.092508831
C   C19       1.0  0.41660  0.71030  0.75530  1.0000 -0.1809456101
C   C20       1.0  0.71030  0.75530  0.41660  1.0000 -0.1809456101
C   C21       1.0  0.75530  0.41660  0.71030  1.0000 -0.1809456101
C   C22       1.0  0.43270  0.73990  0.83650  1.0000 0.1496715546
C   C23       1.0  0.73990  0.83650  0.43270  1.0000 0.1496715546
C   C24       1.0  0.83650  0.43270  0.73990  1.0000 0.1496715546
C   C25       1.0  0.62630  0.90720  0.11490  1.0000 0.1106145076
C   C26       1.0  0.90720  0.11490  0.62630  1.0000 0.1106145076
C   C27       1.0  0.11490  0.62630  0.90720  1.0000 0.1106145076
C   C28       1.0  0.60760  0.87200  0.03080  1.0000 0.1192496276
C   C29       1.0  0.87200  0.03080  0.60760  1.0000 0.1192496276
C   C30       1.0  0.03080  0.60760  0.87200  1.0000 0.1192496276
C   C31       1.0  0.74340  0.93940  0.06850  1.0000 0.1496715546
C   C32       1.0  0.93940  0.06850  0.74340  1.0000 0.1496715546
C   C33       1.0  0.06850  0.74340  0.93940  1.0000 0.1496715546
C   C34       1.0  0.80380  0.95620  0.04740  1.0000 -0.1494411131
C   C35       1.0  0.95620  0.04740  0.80380  1.0000 -0.1494411131
C   C36       1.0  0.04740  0.80380  0.95620  1.0000 -0.1494411131
C   C37       1.0  0.88070  0.00820  0.10660  1.0000 -0.0542504583
C   C38       1.0  0.00820  0.10660  0.88070  1.0000 -0.0542504583
C   C39       1.0  0.10660  0.88070  0.00820  1.0000 -0.0542504583
C   C40       1.0  0.89920  0.04320  0.18510  1.0000 -0.0629360502
C   C41       1.0  0.04320  0.18510  0.89920  1.0000 -0.0629360502
C   C42       1.0  0.18510  0.89920  0.04320  1.0000 -0.0629360502
C   C43       1.0  0.84050  0.02730  0.20990  1.0000 -0.1908605827
C   C44       1.0  0.02730  0.20990  0.84050  1.0000 -0.1908605827
C   C45       1.0  0.20990  0.84050  0.02730  1.0000 -0.1908605827
C   C46       1.0  0.75980  0.97390  0.15050  1.0000 0.1693026523
C   C47       1.0  0.97390  0.15050  0.75980  1.0000 0.1693026523
C   C48       1.0  0.15050  0.75980  0.97390  1.0000 0.1693026523
C   C49       1.0  0.48060  0.82960  0.07540  1.0000 0.1106145076
C   C50       1.0  0.82960  0.07540  0.48060  1.0000 0.1106145076
C   C51       1.0  0.07540  0.48060  0.82960  1.0000 0.1106145076
C   C52       1.0  0.56140  0.88420  0.13740  1.0000 0.1192496276
C   C53       1.0  0.88420  0.13740  0.56140  1.0000 0.1192496276
C   C54       1.0  0.13740  0.56140  0.88420  1.0000 0.1192496276
C   C55       1.0  0.52020  0.89210  0.23310  1.0000 0.1496715546
C   C56       1.0  0.89210  0.23310  0.52020  1.0000 0.1496715546
C   C57       1.0  0.23310  0.52020  0.89210  1.0000 0.1496715546
C   C58       1.0  0.53800  0.92230  0.31350  1.0000 -0.1908605827
C   C59       1.0  0.92230  0.31350  0.53800  1.0000 -0.1908605827
C   C60       1.0  0.31350  0.53800  0.92230  1.0000 -0.1908605827
C   C61       1.0  0.47610  0.89910  0.33350  1.0000 -0.092508831
C   C62       1.0  0.89910  0.33350  0.47610  1.0000 -0.092508831
C   C63       1.0  0.33350  0.47610  0.89910  1.0000 -0.092508831
C   C64       1.0  0.39800  0.84530  0.27490  1.0000 -0.1011781295
C   C65       1.0  0.84530  0.27490  0.39800  1.0000 -0.1011781295
C   C66       1.0  0.27490  0.39800  0.84530  1.0000 -0.1011781295
C   C67       1.0  0.37950  0.81370  0.19600  1.0000 -0.1809456101
C   C68       1.0  0.81370  0.19600  0.37950  1.0000 -0.1809456101
C   C69       1.0  0.19600  0.37950  0.81370  1.0000 -0.1809456101
C   C70       1.0  0.44060  0.83650  0.17390  1.0000 0.1559578578
C   C71       1.0  0.83650  0.17390  0.44060  1.0000 0.1559578578
C   C72       1.0  0.17390  0.44060  0.83650  1.0000 0.1559578578
C   C73       1.0  0.77230  0.71050  0.79720  1.0000 0.1106145076
C   C74       1.0  0.71050  0.79720  0.77230  1.0000 0.1106145076
C   C75       1.0  0.79720  0.77230  0.71050  1.0000 0.1106145076
C   C76       1.0  0.72270  0.74590  0.80930  1.0000 0.1106145076
C   C77       1.0  0.74590  0.80930  0.72270  1.0000 0.1106145076
C   C78       1.0  0.80930  0.72270  0.74590  1.0000 0.1106145076
C   C79       1.0  0.70740  0.69720  0.89580  1.0000 0.1693026523
C   C80       1.0  0.69720  0.89580  0.70740  1.0000 0.1693026523
C   C81       1.0  0.89580  0.70740  0.69720  1.0000 0.1693026523
C   C82       1.0  0.67770  0.69050  0.95170  1.0000 -0.1809456101
C   C83       1.0  0.69050  0.95170  0.67770  1.0000 -0.1809456101
C   C84       1.0  0.95170  0.67770  0.69050  1.0000 -0.1809456101
C   C85       1.0  0.69800  0.65140  0.99270  1.0000 -0.092508831
C   C86       1.0  0.65140  0.99270  0.69800  1.0000 -0.092508831
C   C87       1.0  0.99270  0.69800  0.65140  1.0000 -0.092508831
C   C88       1.0  0.74380  0.61360  0.97960  1.0000 -0.0774309387
C   C89       1.0  0.61360  0.97960  0.74380  1.0000 -0.0774309387
C   C90       1.0  0.97960  0.74380  0.61360  1.0000 -0.0774309387
C   C91       1.0  0.77380  0.61740  0.92660  1.0000 -0.1809456101
C   C92       1.0  0.61740  0.92660  0.77380  1.0000 -0.1809456101
C   C93       1.0  0.92660  0.77380  0.61740  1.0000 -0.1809456101
C   C94       1.0  0.75660  0.66100  0.88460  1.0000 0.1693026523
C   C95       1.0  0.66100  0.88460  0.75660  1.0000 0.1693026523
C   C96       1.0  0.88460  0.75660  0.66100  1.0000 0.1693026523
C   C97       1.0  0.02970  0.47420  0.18100  1.0000 0.1106145076
C   C98       1.0  0.47420  0.18100  0.02970  1.0000 0.1106145076
C   C99       1.0  0.18100  0.02970  0.47420  1.0000 0.1106145076
C   C100      1.0  0.00910  0.53690  0.20190  1.0000 0.1106145076
C   C101      1.0  0.53690  0.20190  0.00910  1.0000 0.1106145076
C   C102      1.0  0.20190  0.00910  0.53690  1.0000 0.1106145076
C   C103      1.0  0.14140  0.62830  0.27850  1.0000 0.1693026523
C   C104      1.0  0.62830  0.27850  0.14140  1.0000 0.1693026523
C   C105      1.0  0.27850  0.14140  0.62830  1.0000 0.1693026523
C   C106      1.0  0.20290  0.70970  0.33000  1.0000 -0.1908605827
C   C107      1.0  0.70970  0.33000  0.20290  1.0000 -0.1908605827
C   C108      1.0  0.33000  0.20290  0.70970  1.0000 -0.1908605827
C   C109      1.0  0.28080  0.72560  0.36040  1.0000 -0.1011781295
C   C110      1.0  0.72560  0.36040  0.28080  1.0000 -0.1011781295
C   C111      1.0  0.36040  0.28080  0.72560  1.0000 -0.1011781295
C   C112      1.0  0.30350  0.66420  0.33970  1.0000 -0.092508831
C   C113      1.0  0.66420  0.33970  0.30350  1.0000 -0.092508831
C   C114      1.0  0.33970  0.30350  0.66420  1.0000 -0.092508831
C   C115      1.0  0.24470  0.58340  0.28970  1.0000 -0.1809456101
C   C116      1.0  0.58340  0.28970  0.24470  1.0000 -0.1809456101
C   C117      1.0  0.28970  0.24470  0.58340  1.0000 -0.1809456101
C   C118      1.0  0.16350  0.56730  0.26010  1.0000 0.1496715546
C   C119      1.0  0.56730  0.26010  0.16350  1.0000 0.1496715546
C   C120      1.0  0.26010  0.16350  0.56730  1.0000 0.1496715546
C   C121      1.0  0.88510  0.37370  0.09280  1.0000 0.1106145076
C   C122      1.0  0.37370  0.09280  0.88510  1.0000 0.1106145076
C   C123      1.0  0.09280  0.88510  0.37370  1.0000 0.1106145076
C   C124      1.0  0.96920  0.39240  0.12800  1.0000 0.1192496276
C   C125      1.0  0.39240  0.12800  0.96920  1.0000 0.1192496276
C   C126      1.0  0.12800  0.96920  0.39240  1.0000 0.1192496276
C   C127      1.0  0.93150  0.25660  0.06060  1.0000 0.1496715546
C   C128      1.0  0.25660  0.06060  0.93150  1.0000 0.1496715546
C   C129      1.0  0.06060  0.93150  0.25660  1.0000 0.1496715546
C   C130      1.0  0.95260  0.19620  0.04380  1.0000 -0.1494411131
C   C131      1.0  0.19620  0.04380  0.95260  1.0000 -0.1494411131
C   C132      1.0  0.04380  0.95260  0.19620  1.0000 -0.1494411131
C   C133      1.0  0.89340  0.11930  0.99180  1.0000 -0.0542504583
C   C134      1.0  0.11930  0.99180  0.89340  1.0000 -0.0542504583
C   C135      1.0  0.99180  0.89340  0.11930  1.0000 -0.0542504583
C   C136      1.0  0.81490  0.10080  0.95680  1.0000 -0.0629360502
C   C137      1.0  0.10080  0.95680  0.81490  1.0000 -0.0629360502
C   C138      1.0  0.95680  0.81490  0.10080  1.0000 -0.0629360502
C   C139      1.0  0.79010  0.15950  0.97270  1.0000 -0.1908605827
C   C140      1.0  0.15950  0.97270  0.79010  1.0000 -0.1908605827
C   C141      1.0  0.97270  0.79010  0.15950  1.0000 -0.1908605827
C   C142      1.0  0.84950  0.24020  0.02610  1.0000 0.1693026523
C   C143      1.0  0.24020  0.02610  0.84950  1.0000 0.1693026523
C   C144      1.0  0.02610  0.84950  0.24020  1.0000 0.1693026523
C   C145      1.0  0.92460  0.51940  0.17040  1.0000 0.1106145076
C   C146      1.0  0.51940  0.17040  0.92460  1.0000 0.1106145076
C   C147      1.0  0.17040  0.92460  0.51940  1.0000 0.1106145076
C   C148      1.0  0.86260  0.43860  0.11580  1.0000 0.1192496276
C   C149      1.0  0.43860  0.11580  0.86260  1.0000 0.1192496276
C   C150      1.0  0.11580  0.86260  0.43860  1.0000 0.1192496276
C   C151      1.0  0.76690  0.47980  0.10790  1.0000 0.1496715546
C   C152      1.0  0.47980  0.10790  0.76690  1.0000 0.1496715546
C   C153      1.0  0.10790  0.76690  0.47980  1.0000 0.1496715546
C   C154      1.0  0.68650  0.46200  0.07770  1.0000 -0.1908605827
C   C155      1.0  0.46200  0.07770  0.68650  1.0000 -0.1908605827
C   C156      1.0  0.07770  0.68650  0.46200  1.0000 -0.1908605827
C   C157      1.0  0.66650  0.52390  0.10090  1.0000 -0.092508831
C   C158      1.0  0.52390  0.10090  0.66650  1.0000 -0.092508831
C   C159      1.0  0.10090  0.66650  0.52390  1.0000 -0.092508831
C   C160      1.0  0.72510  0.60200  0.15470  1.0000 -0.1011781295
C   C161      1.0  0.60200  0.15470  0.72510  1.0000 -0.1011781295
C   C162      1.0  0.15470  0.72510  0.60200  1.0000 -0.1011781295
C   C163      1.0  0.80400  0.62050  0.18630  1.0000 -0.1809456101
C   C164      1.0  0.62050  0.18630  0.80400  1.0000 -0.1809456101
C   C165      1.0  0.18630  0.80400  0.62050  1.0000 -0.1809456101
C   C166      1.0  0.82610  0.55940  0.16350  1.0000 0.1559578578
C   C167      1.0  0.55940  0.16350  0.82610  1.0000 0.1559578578
C   C168      1.0  0.16350  0.82610  0.55940  1.0000 0.1559578578
C   C169      1.0  0.20280  0.22770  0.28950  1.0000 0.1106145076
C   C170      1.0  0.22770  0.28950  0.20280  1.0000 0.1106145076
C   C171      1.0  0.28950  0.20280  0.22770  1.0000 0.1106145076
C   C172      1.0  0.19070  0.27730  0.25410  1.0000 0.1106145076
C   C173      1.0  0.27730  0.25410  0.19070  1.0000 0.1106145076
C   C174      1.0  0.25410  0.19070  0.27730  1.0000 0.1106145076
C   C175      1.0  0.10420  0.29260  0.30280  1.0000 0.1693026523
C   C176      1.0  0.29260  0.30280  0.10420  1.0000 0.1693026523
C   C177      1.0  0.30280  0.10420  0.29260  1.0000 0.1693026523
C   C178      1.0  0.04830  0.32230  0.30950  1.0000 -0.1809456101
C   C179      1.0  0.32230  0.30950  0.04830  1.0000 -0.1809456101
C   C180      1.0  0.30950  0.04830  0.32230  1.0000 -0.1809456101
C   C181      1.0  0.00730  0.30200  0.34860  1.0000 -0.092508831
C   C182      1.0  0.30200  0.34860  0.00730  1.0000 -0.092508831
C   C183      1.0  0.34860  0.00730  0.30200  1.0000 -0.092508831
C   C184      1.0  0.02040  0.25620  0.38640  1.0000 -0.0774309387
C   C185      1.0  0.25620  0.38640  0.02040  1.0000 -0.0774309387
C   C186      1.0  0.38640  0.02040  0.25620  1.0000 -0.0774309387
C   C187      1.0  0.07340  0.22620  0.38260  1.0000 -0.1809456101
C   C188      1.0  0.22620  0.38260  0.07340  1.0000 -0.1809456101
C   C189      1.0  0.38260  0.07340  0.22620  1.0000 -0.1809456101
C   C190      1.0  0.11540  0.24340  0.33900  1.0000 0.1693026523
C   C191      1.0  0.24340  0.33900  0.11540  1.0000 0.1693026523
C   C192      1.0  0.33900  0.11540  0.24340  1.0000 0.1693026523
N   N1        1.0  0.38670  0.74910  0.93600  1.0000 -0.2651219716
N   N2        1.0  0.74910  0.93600  0.38670  1.0000 -0.2651219716
N   N3        1.0  0.93600  0.38670  0.74910  1.0000 -0.2651219716
N   N4        1.0  0.51090  0.78880  0.89450  1.0000 -0.2411201298
N   N5        1.0  0.78880  0.89450  0.51090  1.0000 -0.2411201298
N   N6        1.0  0.89450  0.51090  0.78880  1.0000 -0.2411201298
N   N7        1.0  0.66540  0.88770  0.01010  1.0000 -0.251007226
N   N8        1.0  0.88770  0.01010  0.66540  1.0000 -0.251007226
N   N9        1.0  0.01010  0.66540  0.88770  1.0000 -0.251007226
N   N10       1.0  0.70030  0.95500  0.17190  1.0000 -0.251007226
N   N11       1.0  0.95500  0.17190  0.70030  1.0000 -0.251007226
N   N12       1.0  0.17190  0.70030  0.95500  1.0000 -0.251007226
N   N13       1.0  0.57980  0.91400  0.21250  1.0000 -0.251007226
N   N14       1.0  0.91400  0.21250  0.57980  1.0000 -0.251007226
N   N15       1.0  0.21250  0.57980  0.91400  1.0000 -0.251007226
N   N16       1.0  0.42190  0.80610  0.09430  1.0000 -0.251007226
N   N17       1.0  0.80610  0.09430  0.42190  1.0000 -0.251007226
N   N18       1.0  0.09430  0.42190  0.80610  1.0000 -0.251007226
N   N19       1.0  0.69160  0.73970  0.85800  1.0000 -0.2583278865
N   N20       1.0  0.73970  0.85800  0.69160  1.0000 -0.2583278865
N   N21       1.0  0.85800  0.69160  0.73970  1.0000 -0.2583278865
N   N22       1.0  0.78800  0.66800  0.83480  1.0000 -0.2411201298
N   N23       1.0  0.66800  0.83480  0.78800  1.0000 -0.2411201298
N   N24       1.0  0.83480  0.78800  0.66800  1.0000 -0.2411201298
N   N25       1.0  0.06400  0.61330  0.25090  1.0000 -0.2651219716
N   N26       1.0  0.61330  0.25090  0.06400  1.0000 -0.2651219716
N   N27       1.0  0.25090  0.06400  0.61330  1.0000 -0.2651219716
N   N28       1.0  0.10550  0.48910  0.21120  1.0000 -0.2411201298
N   N29       1.0  0.48910  0.21120  0.10550  1.0000 -0.2411201298
N   N30       1.0  0.21120  0.10550  0.48910  1.0000 -0.2411201298
N   N31       1.0  0.98990  0.33460  0.11230  1.0000 -0.251007226
N   N32       1.0  0.33460  0.11230  0.98990  1.0000 -0.251007226
N   N33       1.0  0.11230  0.98990  0.33460  1.0000 -0.251007226
N   N34       1.0  0.82810  0.29970  0.04500  1.0000 -0.251007226
N   N35       1.0  0.29970  0.04500  0.82810  1.0000 -0.251007226
N   N36       1.0  0.04500  0.82810  0.29970  1.0000 -0.251007226
N   N37       1.0  0.78750  0.42020  0.08600  1.0000 -0.251007226
N   N38       1.0  0.42020  0.08600  0.78750  1.0000 -0.251007226
N   N39       1.0  0.08600  0.78750  0.42020  1.0000 -0.251007226
N   N40       1.0  0.90570  0.57810  0.19390  1.0000 -0.251007226
N   N41       1.0  0.57810  0.19390  0.90570  1.0000 -0.251007226
N   N42       1.0  0.19390  0.90570  0.57810  1.0000 -0.251007226
N   N43       1.0  0.14200  0.30840  0.26030  1.0000 -0.2583278865
N   N44       1.0  0.30840  0.26030  0.14200  1.0000 -0.2583278865
N   N45       1.0  0.26030  0.14200  0.30840  1.0000 -0.2583278865
N   N46       1.0  0.16520  0.21200  0.33200  1.0000 -0.2411201298
N   N47       1.0  0.21200  0.33200  0.16520  1.0000 -0.2411201298
N   N48       1.0  0.33200  0.16520  0.21200  1.0000 -0.2411201298
N   N49       1.0  0.07160  0.44570  0.98770  1.0000 0.6179594944
N   N50       1.0  0.98770  0.07160  0.44570  1.0000 0.6179594944
N   N51       1.0  0.44570  0.98770  0.07160  1.0000 0.6179594944
N   N52       1.0  0.01230  0.92840  0.55430  1.0000 0.6179594944
N   N53       1.0  0.55430  0.01230  0.92840  1.0000 0.6179594944
N   N54       1.0  0.92840  0.55430  0.01230  1.0000 0.6179594944
N   N55       1.0  0.90340  0.90340  0.90340  1.0000 0.6777220914
N   N56       1.0  0.09660  0.09660  0.09660  1.0000 0.6777220914
O   O1        1.0  0.03750  0.47630  0.95520  1.0000 -0.330968231
O   O2        1.0  0.06850  0.44860  0.04760  1.0000 -0.3673016976
O   O3        1.0  0.09720  0.41360  0.94920  1.0000 -0.351658533
O   O4        1.0  0.95520  0.03750  0.47630  1.0000 -0.330968231
O   O5        1.0  0.04760  0.06850  0.44860  1.0000 -0.3673016976
O   O6        1.0  0.94920  0.09720  0.41360  1.0000 -0.351658533
O   O7        1.0  0.47630  0.95520  0.03750  1.0000 -0.330968231
O   O8        1.0  0.44860  0.04760  0.06850  1.0000 -0.3673016976
O   O9        1.0  0.41360  0.94920  0.09720  1.0000 -0.351658533
O   O10       1.0  0.04480  0.96250  0.52370  1.0000 -0.330968231
O   O11       1.0  0.95240  0.93150  0.55140  1.0000 -0.3673016976
O   O12       1.0  0.05080  0.90280  0.58640  1.0000 -0.351658533
O   O13       1.0  0.52370  0.04480  0.96250  1.0000 -0.330968231
O   O14       1.0  0.55140  0.95240  0.93150  1.0000 -0.3673016976
O   O15       1.0  0.58640  0.05080  0.90280  1.0000 -0.351658533
O   O16       1.0  0.96250  0.52370  0.04480  1.0000 -0.330968231
O   O17       1.0  0.93150  0.55140  0.95240  1.0000 -0.3673016976
O   O18       1.0  0.90280  0.58640  0.05080  1.0000 -0.351658533
O   O19       1.0  0.86340  0.94060  0.89840  1.0000 -0.4333200952
O   O20       1.0  0.94060  0.89840  0.86340  1.0000 -0.4333200952
O   O21       1.0  0.89840  0.86340  0.94060  1.0000 -0.4333200952
O   O22       1.0  0.10160  0.13660  0.05940  1.0000 -0.4333200952
O   O23       1.0  0.13660  0.05940  0.10160  1.0000 -0.4333200952
O   O24       1.0  0.05940  0.10160  0.13660  1.0000 -0.4333200952
