# DDEC6 charges by PACMAN v1.1 (https://github.com/mtap-research/PACMAN-charge/)
data_2001[La][noz]3[ION]1
_chemical_formula_sum              "La8 H236 C220 N40 Cl8 O60"
_cell_length_a       15.134
_cell_length_b       47.621
_cell_length_c       22.431
_cell_angle_alpha    90
_cell_angle_beta     91.947
_cell_angle_gamma    90

_symmetry_space_group_name_H-M    "P 1"
_symmetry_Int_Tables_number       1

loop_
  _symmetry_equiv_pos_as_xyz
  'x, y, z'

loop_
  _atom_site_type_symbol
  _atom_site_label
  _atom_site_symmetry_multiplicity
  _atom_site_fract_x
  _atom_site_fract_y
  _atom_site_fract_z
  _atom_site_occupancy
  _atom_site_charge
La  La1       1.0  0.79804  0.87363  0.58047  1.0000 1.7537081102
La  La2       1.0  0.79804  0.12637  0.08047  1.0000 1.7537081102
La  La3       1.0  0.29341  0.89153  0.07854  1.0000 1.7670101979
La  La4       1.0  0.29341  0.10847  0.57854  1.0000 1.7670101979
La  La5       1.0  0.89847  0.61935  0.10260  1.0000 1.7870783666
La  La6       1.0  0.89847  0.38065  0.60260  1.0000 1.7870783666
La  La7       1.0  0.40640  0.38102  0.09599  1.0000 1.7296391586
La  La8       1.0  0.40640  0.61898  0.59599  1.0000 1.7296391586
H   H1        1.0  0.81450  0.87180  0.70270  1.0000 0.3298836061
H   H2        1.0  0.81450  0.12820  0.20270  1.0000 0.3298836061
H   H3        1.0  0.45690  0.86960  0.03680  1.0000 0.3298836061
H   H4        1.0  0.45690  0.13040  0.53680  1.0000 0.3298836061
H   H5        1.0  0.96820  0.63710  0.22170  1.0000 0.3298836061
H   H6        1.0  0.96820  0.36290  0.72170  1.0000 0.3298836061
H   H7        1.0  0.09370  0.61450  0.14000  1.0000 0.3381821373
H   H8        1.0  0.09370  0.38550  0.64000  1.0000 0.3381821373
H   H9        1.0  0.72980  0.62430  0.16620  1.0000 0.3381821373
H   H10       1.0  0.72980  0.37570  0.66620  1.0000 0.3381821373
H   H11       1.0  0.23170  0.38360  0.02450  1.0000 0.3381821373
H   H12       1.0  0.23170  0.61640  0.52450  1.0000 0.3381821373
H   H13       1.0  0.46380  0.36350  0.98520  1.0000 0.3248611549
H   H14       1.0  0.46380  0.63650  0.48520  1.0000 0.3248611549
H   H15       1.0  0.68610  0.86900  0.76550  1.0000 0.1112626805
H   H16       1.0  0.68610  0.13100  0.26550  1.0000 0.1112626805
H   H17       1.0  0.65360  0.85130  0.70820  1.0000 0.1112626805
H   H18       1.0  0.65360  0.14870  0.20820  1.0000 0.1112626805
H   H19       1.0  0.73930  0.84160  0.74650  1.0000 0.0820566162
H   H20       1.0  0.73930  0.15840  0.24650  1.0000 0.0820566162
H   H21       1.0  0.99310  0.82910  0.68670  1.0000 0.1204953926
H   H22       1.0  0.99310  0.17090  0.18670  1.0000 0.1204953926
H   H23       1.0  0.97100  0.85530  0.72820  1.0000 0.0996160357
H   H24       1.0  0.97100  0.14470  0.22820  1.0000 0.0996160357
H   H25       1.0  0.89330  0.83500  0.70460  1.0000 0.0820566162
H   H26       1.0  0.89330  0.16500  0.20460  1.0000 0.0820566162
H   H27       1.0  0.45120  0.85030  0.94160  1.0000 0.0996160357
H   H28       1.0  0.45120  0.14970  0.44160  1.0000 0.0996160357
H   H29       1.0  0.44400  0.82960  0.99730  1.0000 0.0892731176
H   H30       1.0  0.44400  0.17040  0.49730  1.0000 0.0892731176
H   H31       1.0  0.35630  0.83990  0.96200  1.0000 0.1204953926
H   H32       1.0  0.35630  0.16010  0.46200  1.0000 0.1204953926
H   H33       1.0  0.22530  0.88230  0.88800  1.0000 0.0996160357
H   H34       1.0  0.22530  0.11770  0.38800  1.0000 0.0996160357
H   H35       1.0  0.21570  0.91500  0.90310  1.0000 0.0892731176
H   H36       1.0  0.21570  0.08500  0.40310  1.0000 0.0892731176
H   H37       1.0  0.30740  0.89920  0.91720  1.0000 0.0820566162
H   H38       1.0  0.30740  0.10080  0.41720  1.0000 0.0820566162
H   H39       1.0  0.03550  0.60270  0.27880  1.0000 0.1112626805
H   H40       1.0  0.03550  0.39730  0.77880  1.0000 0.1112626805
H   H41       1.0  0.93260  0.60720  0.28980  1.0000 0.0996160357
H   H42       1.0  0.93260  0.39280  0.78980  1.0000 0.0996160357
H   H43       1.0  0.96370  0.58240  0.24730  1.0000 0.0996160357
H   H44       1.0  0.96370  0.41760  0.74730  1.0000 0.0996160357
H   H45       1.0  0.73850  0.68870  0.00110  1.0000 0.0820566162
H   H46       1.0  0.73850  0.31130  0.50110  1.0000 0.0820566162
H   H47       1.0  0.84430  0.68890  0.00200  1.0000 0.0892731176
H   H48       1.0  0.84430  0.31110  0.50200  1.0000 0.0892731176
H   H49       1.0  0.79080  0.66470  0.96680  1.0000 0.0820566162
H   H50       1.0  0.79080  0.33530  0.46680  1.0000 0.0892731176
H   H51       1.0  0.19340  0.61080  0.07820  1.0000 0.0996160357
H   H52       1.0  0.19340  0.38920  0.57820  1.0000 0.0996160357
H   H53       1.0  0.12010  0.59940  0.03120  1.0000 0.0996160357
H   H54       1.0  0.12010  0.40060  0.53120  1.0000 0.0996160357
H   H55       1.0  0.13540  0.63250  0.03880  1.0000 0.1112626805
H   H56       1.0  0.13540  0.36750  0.53880  1.0000 0.1112626805
H   H57       1.0  0.73030  0.66070  0.23100  1.0000 0.1204953926
H   H58       1.0  0.73030  0.33930  0.73100  1.0000 0.1204953926
H   H59       1.0  0.77050  0.63210  0.25750  1.0000 0.0996160357
H   H60       1.0  0.77050  0.36790  0.75750  1.0000 0.0996160357
H   H61       1.0  0.83500  0.65610  0.23470  1.0000 0.1204953926
H   H62       1.0  0.83500  0.34390  0.73470  1.0000 0.1204953926
H   H63       1.0  0.17460  0.34910  0.98380  1.0000 0.0996160357
H   H64       1.0  0.17460  0.65090  0.48380  1.0000 0.0996160357
H   H65       1.0  0.27490  0.34130  0.97050  1.0000 0.1112626805
H   H66       1.0  0.27490  0.65870  0.47050  1.0000 0.1112626805
H   H67       1.0  0.23030  0.32930  0.02890  1.0000 0.1204953926
H   H68       1.0  0.23030  0.67070  0.52890  1.0000 0.1204953926
H   H69       1.0  0.51660  0.39150  0.91840  1.0000 0.1112626805
H   H70       1.0  0.51660  0.60850  0.41840  1.0000 0.1112626805
H   H71       1.0  0.47290  0.41690  0.95380  1.0000 0.1204953926
H   H72       1.0  0.47290  0.58310  0.45380  1.0000 0.1204953926
H   H73       1.0  0.55380  0.39970  0.98370  1.0000 0.0996160357
H   H74       1.0  0.55380  0.60030  0.48370  1.0000 0.0996160357
H   H75       1.0  0.61570  0.91940  0.56930  1.0000 0.1302079869
H   H76       1.0  0.61570  0.08060  0.06930  1.0000 0.1302079869
H   H77       1.0  0.52640  0.95880  0.57200  1.0000 0.1371102549
H   H78       1.0  0.52640  0.04120  0.07200  1.0000 0.1371102549
H   H79       1.0  0.67500  0.99590  0.44800  1.0000 0.1371102549
H   H80       1.0  0.67500  0.00410  0.94800  1.0000 0.1371102549
H   H81       1.0  0.76390  0.95630  0.44790  1.0000 0.1204953926
H   H82       1.0  0.76390  0.04370  0.94790  1.0000 0.1204953926
H   H83       1.0  0.89760  0.93970  0.53570  1.0000 0.1112626805
H   H84       1.0  0.89760  0.06030  0.03570  1.0000 0.1112626805
H   H85       1.0  0.00940  0.97290  0.53170  1.0000 0.1371102549
H   H86       1.0  0.00940  0.02710  0.03170  1.0000 0.1371102549
H   H87       1.0  0.03030  0.97140  0.71200  1.0000 0.1302079869
H   H88       1.0  0.03030  0.02860  0.21200  1.0000 0.1302079869
H   H89       1.0  0.92080  0.93750  0.71330  1.0000 0.1302079869
H   H90       1.0  0.92080  0.06250  0.21330  1.0000 0.1302079869
H   H91       1.0  0.78640  0.78480  0.67570  1.0000 0.1371102549
H   H92       1.0  0.78640  0.21520  0.17570  1.0000 0.1371102549
H   H93       1.0  0.68550  0.74840  0.67340  1.0000 0.1302079869
H   H94       1.0  0.68550  0.25160  0.17340  1.0000 0.1302079869
H   H95       1.0  0.59050  0.77580  0.51290  1.0000 0.1371102549
H   H96       1.0  0.59050  0.22420  0.01290  1.0000 0.1371102549
H   H97       1.0  0.68690  0.81340  0.52000  1.0000 0.1204953926
H   H98       1.0  0.68690  0.18660  0.02000  1.0000 0.1204953926
H   H99       1.0  0.61630  0.87000  0.47100  1.0000 0.1204953926
H   H100      1.0  0.61630  0.13000  0.97100  1.0000 0.1204953926
H   H101      1.0  0.53710  0.88310  0.38530  1.0000 0.1371102549
H   H102      1.0  0.53710  0.11690  0.88530  1.0000 0.1371102549
H   H103      1.0  0.74820  0.86240  0.28840  1.0000 0.1302079869
H   H104      1.0  0.74820  0.13760  0.78840  1.0000 0.1302079869
H   H105      1.0  0.82390  0.84920  0.37530  1.0000 0.1204953926
H   H106      1.0  0.82390  0.15080  0.87530  1.0000 0.1204953926
H   H107      1.0  0.90350  0.90920  0.43300  1.0000 0.1204953926
H   H108      1.0  0.90350  0.09080  0.93300  1.0000 0.1204953926
H   H109      1.0  0.98950  0.90930  0.34890  1.0000 0.1302079869
H   H110      1.0  0.98950  0.09070  0.84890  1.0000 0.1302079869
H   H111      1.0  0.13360  0.84560  0.42060  1.0000 0.1302079869
H   H112      1.0  0.13360  0.15440  0.92060  1.0000 0.1302079869
H   H113      1.0  0.05800  0.85030  0.50840  1.0000 0.1371102549
H   H114      1.0  0.05800  0.14970  0.00840  1.0000 0.1371102549
H   H115      1.0  0.22610  0.91730  0.22800  1.0000 0.1204953926
H   H116      1.0  0.22610  0.08270  0.72800  1.0000 0.1204953926
H   H117      1.0  0.13090  0.91860  0.30740  1.0000 0.1371102549
H   H118      1.0  0.13090  0.08140  0.80740  1.0000 0.1371102549
H   H119      1.0  0.14540  0.83390  0.31910  1.0000 0.1371102549
H   H120      1.0  0.14540  0.16610  0.81910  1.0000 0.1371102549
H   H121      1.0  0.23130  0.83360  0.23480  1.0000 0.1302079869
H   H122      1.0  0.23130  0.16640  0.73480  1.0000 0.1302079869
H   H123      1.0  0.41120  0.91880  0.22210  1.0000 0.1302079869
H   H124      1.0  0.41120  0.08120  0.72210  1.0000 0.1302079869
H   H125      1.0  0.48530  0.90600  0.31000  1.0000 0.1302079869
H   H126      1.0  0.48530  0.09400  0.81000  1.0000 0.1302079869
H   H127      1.0  0.66680  0.86590  0.21290  1.0000 0.1204953926
H   H128      1.0  0.66680  0.13410  0.71290  1.0000 0.1204953926
H   H129      1.0  0.58570  0.87730  0.12670  1.0000 0.1302079869
H   H130      1.0  0.58570  0.12270  0.62670  1.0000 0.1302079869
H   H131      1.0  0.26900  0.02200  0.70450  1.0000 0.1302079869
H   H132      1.0  0.26900  0.97800  0.20450  1.0000 0.1302079869
H   H133      1.0  0.17220  0.98450  0.69950  1.0000 0.1302079869
H   H134      1.0  0.17220  0.01550  0.19950  1.0000 0.1302079869
H   H135      1.0  0.16560  0.05290  0.55230  1.0000 0.1302079869
H   H136      1.0  0.16560  0.94710  0.05230  1.0000 0.1302079869
H   H137      1.0  0.41400  0.04910  0.42460  1.0000 0.1302079869
H   H138      1.0  0.41400  0.95090  0.92460  1.0000 0.1302079869
H   H139      1.0  0.51900  0.01390  0.42150  1.0000 0.1302079869
H   H140      1.0  0.51900  0.98610  0.92150  1.0000 0.1302079869
H   H141      1.0  0.51810  0.00830  0.60120  1.0000 0.1302079869
H   H142      1.0  0.51810  0.99170  0.10120  1.0000 0.1302079869
H   H143      1.0  0.41190  0.04310  0.60180  1.0000 0.1204953926
H   H144      1.0  0.41190  0.95690  0.10180  1.0000 0.1204953926
H   H145      1.0  0.10780  0.83640  0.10600  1.0000 0.1302079869
H   H146      1.0  0.10780  0.16360  0.60600  1.0000 0.1302079869
H   H147      1.0  0.03170  0.79550  0.12660  1.0000 0.1371102549
H   H148      1.0  0.03170  0.20450  0.62660  1.0000 0.1371102549
H   H149      1.0  0.23410  0.75080  0.06200  1.0000 0.1302079869
H   H150      1.0  0.23410  0.24920  0.56200  1.0000 0.1302079869
H   H151      1.0  0.31120  0.79220  0.04810  1.0000 0.1302079869
H   H152      1.0  0.31120  0.20780  0.54810  1.0000 0.1302079869
H   H153      1.0  0.11140  0.67570  0.13950  1.0000 0.1204953926
H   H154      1.0  0.11140  0.32430  0.63950  1.0000 0.1302079869
H   H155      1.0  0.18590  0.71790  0.13020  1.0000 0.1302079869
H   H156      1.0  0.18590  0.28210  0.63020  1.0000 0.1302079869
H   H157      1.0  0.95250  0.75580  0.08980  1.0000 0.1302079869
H   H158      1.0  0.95250  0.24420  0.58980  1.0000 0.1302079869
H   H159      1.0  0.88070  0.71340  0.10470  1.0000 0.1302079869
H   H160      1.0  0.88070  0.28660  0.60470  1.0000 0.1302079869
H   H161      1.0  0.97110  0.58570  0.94800  1.0000 0.1112626805
H   H162      1.0  0.97110  0.41430  0.44800  1.0000 0.1112626805
H   H163      1.0  0.05760  0.57900  0.86560  1.0000 0.1302079869
H   H164      1.0  0.05760  0.42100  0.36560  1.0000 0.1302079869
H   H165      1.0  0.09120  0.66310  0.85460  1.0000 0.1302079869
H   H166      1.0  0.09120  0.33690  0.35460  1.0000 0.1302079869
H   H167      1.0  0.00700  0.66850  0.93850  1.0000 0.1204953926
H   H168      1.0  0.00700  0.33150  0.43850  1.0000 0.1204953926
H   H169      1.0  0.93260  0.53020  0.97920  1.0000 0.1204953926
H   H170      1.0  0.93260  0.46980  0.47920  1.0000 0.1204953926
H   H171      1.0  0.02390  0.49150  0.98570  1.0000 0.1302079869
H   H172      1.0  0.02390  0.50850  0.48570  1.0000 0.1302079869
H   H173      1.0  0.14380  0.52470  0.13220  1.0000 0.1302079869
H   H174      1.0  0.14380  0.47530  0.63220  1.0000 0.1302079869
H   H175      1.0  0.05200  0.56330  0.12390  1.0000 0.1204953926
H   H176      1.0  0.05200  0.43670  0.62390  1.0000 0.1204953926
H   H177      1.0  0.63060  0.63160  0.05070  1.0000 0.1302079869
H   H178      1.0  0.63060  0.36840  0.55070  1.0000 0.1302079869
H   H179      1.0  0.54560  0.64240  0.96520  1.0000 0.1302079869
H   H180      1.0  0.54560  0.35760  0.46520  1.0000 0.1302079869
H   H181      1.0  0.70630  0.59320  0.86950  1.0000 0.1302079869
H   H182      1.0  0.70630  0.40680  0.36950  1.0000 0.1302079869
H   H183      1.0  0.78670  0.58200  0.95640  1.0000 0.1204953926
H   H184      1.0  0.78670  0.41800  0.45640  1.0000 0.1204953926
H   H185      1.0  0.80000  0.55550  0.25290  1.0000 0.1302079869
H   H186      1.0  0.80000  0.44450  0.75290  1.0000 0.1302079869
H   H187      1.0  0.70290  0.51820  0.25930  1.0000 0.1302079869
H   H188      1.0  0.70290  0.48180  0.75930  1.0000 0.1302079869
H   H189      1.0  0.70280  0.51100  0.07950  1.0000 0.1302079869
H   H190      1.0  0.70280  0.48900  0.57950  1.0000 0.1302079869
H   H191      1.0  0.80020  0.54860  0.07590  1.0000 0.1204953926
H   H192      1.0  0.80020  0.45140  0.57590  1.0000 0.1204953926
H   H193      1.0  0.60110  0.42380  0.11150  1.0000 0.1204953926
H   H194      1.0  0.60110  0.57620  0.61150  1.0000 0.1204953926
H   H195      1.0  0.69220  0.46270  0.10860  1.0000 0.1302079869
H   H196      1.0  0.69220  0.53730  0.60860  1.0000 0.1302079869
H   H197      1.0  0.54650  0.50010  0.23380  1.0000 0.1302079869
H   H198      1.0  0.54650  0.49990  0.73380  1.0000 0.1302079869
H   H199      1.0  0.45560  0.46100  0.23390  1.0000 0.1204953926
H   H200      1.0  0.45560  0.53900  0.73390  1.0000 0.1204953926
H   H201      1.0  0.32200  0.45380  0.14230  1.0000 0.1204953926
H   H202      1.0  0.32200  0.54620  0.64230  1.0000 0.1204953926
H   H203      1.0  0.20680  0.48550  0.14550  1.0000 0.1302079869
H   H204      1.0  0.20680  0.51450  0.64550  1.0000 0.1302079869
H   H205      1.0  0.14390  0.46760  0.97340  1.0000 0.1302079869
H   H206      1.0  0.14390  0.53240  0.47340  1.0000 0.1302079869
H   H207      1.0  0.26190  0.43700  0.97200  1.0000 0.1302079869
H   H208      1.0  0.26190  0.56300  0.47200  1.0000 0.1302079869
H   H209      1.0  0.57940  0.63060  0.70700  1.0000 0.1204953926
H   H210      1.0  0.57940  0.36940  0.20700  1.0000 0.1204953926
H   H211      1.0  0.66400  0.62010  0.79190  1.0000 0.1371102549
H   H212      1.0  0.66400  0.37990  0.29190  1.0000 0.1371102549
H   H213      1.0  0.44710  0.63080  0.89010  1.0000 0.1302079869
H   H214      1.0  0.44710  0.36920  0.39010  1.0000 0.1302079869
H   H215      1.0  0.36520  0.64040  0.80350  1.0000 0.1204953926
H   H216      1.0  0.36520  0.35960  0.30350  1.0000 0.1204953926
H   H217      1.0  0.16810  0.64140  0.66360  1.0000 0.1302079869
H   H218      1.0  0.16810  0.35860  0.16360  1.0000 0.1302079869
H   H219      1.0  0.08910  0.64990  0.74940  1.0000 0.1302079869
H   H220      1.0  0.08910  0.35010  0.24940  1.0000 0.1302079869
H   H221      1.0  0.21430  0.58400  0.82930  1.0000 0.1302079869
H   H222      1.0  0.21430  0.41600  0.32930  1.0000 0.1302079869
H   H223      1.0  0.29290  0.57690  0.74290  1.0000 0.1204953926
H   H224      1.0  0.29290  0.42310  0.24290  1.0000 0.1204953926
H   H225      1.0  0.46510  0.68780  0.67150  1.0000 0.1302079869
H   H226      1.0  0.46510  0.31220  0.17150  1.0000 0.1302079869
H   H227      1.0  0.56300  0.72500  0.67880  1.0000 0.1371102549
H   H228      1.0  0.56300  0.27500  0.17880  1.0000 0.1371102549
H   H229      1.0  0.54160  0.73480  0.49980  1.0000 0.1302079869
H   H230      1.0  0.54160  0.26520  0.99980  1.0000 0.1302079869
H   H231      1.0  0.44350  0.69770  0.49530  1.0000 0.1302079869
H   H232      1.0  0.44350  0.30230  0.99530  1.0000 0.1302079869
H   H233      1.0  0.11280  0.99200  0.04120  1.0000 0.1371102549
H   H234      1.0  0.11280  0.00800  0.54120  1.0000 0.1371102549
H   H235      1.0  0.04550  0.97400  0.07820  1.0000 0.1454214612
H   H236      1.0  0.04550  0.02600  0.57820  1.0000 0.1454214612
C   C1        1.0  0.70540  0.85780  0.73170  1.0000 -0.1879895944
C   C2        1.0  0.70540  0.14220  0.23170  1.0000 -0.1879895944
C   C3        1.0  0.94950  0.84370  0.69470  1.0000 -0.2053335151
C   C4        1.0  0.94950  0.15630  0.19470  1.0000 -0.2053335151
C   C5        1.0  0.41600  0.84530  0.97590  1.0000 -0.1810630875
C   C6        1.0  0.41600  0.15470  0.47590  1.0000 -0.1810630875
C   C7        1.0  0.24290  0.89720  0.91600  1.0000 -0.1988922125
C   C8        1.0  0.24290  0.10280  0.41600  1.0000 -0.1988922125
C   C9        1.0  0.97580  0.60160  0.26050  1.0000 -0.1988922125
C   C10       1.0  0.97580  0.39840  0.76050  1.0000 -0.1988922125
C   C11       1.0  0.79170  0.67690  0.00200  1.0000 -0.2221642798
C   C12       1.0  0.79170  0.32310  0.50200  1.0000 -0.2221642798
C   C13       1.0  0.13490  0.61440  0.05970  1.0000 -0.2221642798
C   C14       1.0  0.13490  0.38560  0.55970  1.0000 -0.2221642798
C   C15       1.0  0.77780  0.64690  0.22770  1.0000 -0.1879895944
C   C16       1.0  0.77780  0.35310  0.72770  1.0000 -0.1879895944
C   C17       1.0  0.23340  0.34540  0.00190  1.0000 -0.1810630875
C   C18       1.0  0.23340  0.65460  0.50190  1.0000 -0.1810630875
C   C19       1.0  0.50050  0.39830  0.95780  1.0000 -0.1810630875
C   C20       1.0  0.50050  0.60170  0.45780  1.0000 -0.1810630875
C   C21       1.0  0.62760  0.93507  0.54470  1.0000 -0.0509633485
C   C22       1.0  0.62760  0.06493  0.04470  1.0000 -0.0509633485
C   C23       1.0  0.57480  0.95847  0.54610  1.0000 -0.1719351093
C   C24       1.0  0.57480  0.04153  0.04610  1.0000 -0.1719351093
C   C25       1.0  0.59040  0.98185  0.51060  1.0000 0.0892731176
C   C26       1.0  0.59040  0.01815  0.01060  1.0000 0.0892731176
C   C27       1.0  0.66230  0.98048  0.47330  1.0000 -0.1879895944
C   C28       1.0  0.66230  0.01952  0.97330  1.0000 -0.1879895944
C   C29       1.0  0.71460  0.95691  0.47300  1.0000 -0.0702698304
C   C30       1.0  0.71460  0.04309  0.97300  1.0000 -0.0702698304
C   C31       1.0  0.92490  0.94650  0.57160  1.0000 -0.0509633485
C   C32       1.0  0.92490  0.05350  0.07160  1.0000 -0.0509633485
C   C33       1.0  0.99200  0.96590  0.56920  1.0000 -0.1879895944
C   C34       1.0  0.99200  0.03410  0.06920  1.0000 -0.1879895944
C   C35       1.0  0.03450  0.97521  0.62180  1.0000 0.0820566162
C   C36       1.0  0.03450  0.02479  0.12180  1.0000 0.0820566162
C   C37       1.0  0.00440  0.96480  0.67540  1.0000 -0.1719351093
C   C38       1.0  0.00440  0.03520  0.17540  1.0000 -0.1719351093
C   C39       1.0  0.93810  0.94520  0.67640  1.0000 -0.0509633485
C   C40       1.0  0.93810  0.05480  0.17640  1.0000 -0.0509633485
C   C41       1.0  0.74590  0.78290  0.64270  1.0000 -0.0702698304
C   C42       1.0  0.74590  0.21710  0.14270  1.0000 -0.0702698304
C   C43       1.0  0.68590  0.76130  0.64120  1.0000 -0.1719351093
C   C44       1.0  0.68590  0.23870  0.14120  1.0000 -0.1719351093
C   C45       1.0  0.62530  0.75801  0.59320  1.0000 0.0892731176
C   C46       1.0  0.62530  0.24199  0.09320  1.0000 0.0892731176
C   C47       1.0  0.62900  0.77765  0.54700  1.0000 -0.1719351093
C   C48       1.0  0.62900  0.22235  0.04700  1.0000 -0.1719351093
C   C49       1.0  0.68790  0.79956  0.55050  1.0000 -0.0369728968
C   C50       1.0  0.68790  0.20044  0.05050  1.0000 -0.0369728968
C   C51       1.0  0.64310  0.86890  0.43340  1.0000 -0.0296120262
C   C52       1.0  0.64310  0.13110  0.93340  1.0000 -0.0296120262
C   C53       1.0  0.59630  0.87670  0.38260  1.0000 -0.1879895944
C   C54       1.0  0.59630  0.12330  0.88260  1.0000 -0.1879895944
C   C55       1.0  0.63500  0.87530  0.32680  1.0000 0.0892731176
C   C56       1.0  0.63500  0.12470  0.82680  1.0000 0.0996160357
C   C57       1.0  0.72060  0.86450  0.32560  1.0000 -0.1879895944
C   C58       1.0  0.72060  0.13550  0.82560  1.0000 -0.1810630875
C   C59       1.0  0.76580  0.85660  0.37700  1.0000 -0.0702698304
C   C60       1.0  0.76580  0.14340  0.87700  1.0000 -0.0702698304
C   C61       1.0  0.95360  0.89720  0.43110  1.0000 -0.0793209179
C   C62       1.0  0.95360  0.10280  0.93110  1.0000 -0.0793209179
C   C63       1.0  0.00290  0.89666  0.38060  1.0000 -0.1810630875
C   C64       1.0  0.00290  0.10334  0.88060  1.0000 -0.1810630875
C   C65       1.0  0.07210  0.87762  0.37570  1.0000 0.0892731176
C   C66       1.0  0.07210  0.12238  0.87570  1.0000 0.0892731176
C   C67       1.0  0.08940  0.85960  0.42360  1.0000 -0.1719351093
C   C68       1.0  0.08940  0.14040  0.92360  1.0000 -0.1719351093
C   C69       1.0  0.04320  0.86190  0.47500  1.0000 -0.0590955165
C   C70       1.0  0.04320  0.13810  0.97500  1.0000 -0.0590955165
C   C71       1.0  0.20920  0.90040  0.24690  1.0000 -0.0590955165
C   C72       1.0  0.20920  0.09960  0.74690  1.0000 -0.0590955165
C   C73       1.0  0.15290  0.90114  0.29400  1.0000 -0.1719351093
C   C74       1.0  0.15290  0.09886  0.79400  1.0000 -0.1719351093
C   C75       1.0  0.12820  0.87638  0.32200  1.0000 0.0892731176
C   C76       1.0  0.12820  0.12362  0.82200  1.0000 0.0892731176
C   C77       1.0  0.16020  0.85112  0.30030  1.0000 -0.1810630875
C   C78       1.0  0.16020  0.14888  0.80030  1.0000 -0.1810630875
C   C79       1.0  0.21350  0.85095  0.25160  1.0000 -0.0590955165
C   C80       1.0  0.21350  0.14905  0.75160  1.0000 -0.0590955165
C   C81       1.0  0.46210  0.90720  0.22070  1.0000 -0.0590955165
C   C82       1.0  0.46210  0.09280  0.72070  1.0000 -0.0590955165
C   C83       1.0  0.50710  0.90010  0.27290  1.0000 -0.1719351093
C   C84       1.0  0.50710  0.09990  0.77290  1.0000 -0.1719351093
C   C85       1.0  0.58440  0.88418  0.27170  1.0000 0.0892731176
C   C86       1.0  0.58440  0.11582  0.77170  1.0000 0.0892731176
C   C87       1.0  0.61330  0.87620  0.21560  1.0000 -0.1642532451
C   C88       1.0  0.61330  0.12380  0.71560  1.0000 -0.1642532451
C   C89       1.0  0.56530  0.88300  0.16430  1.0000 -0.0793209179
C   C90       1.0  0.56530  0.11700  0.66430  1.0000 -0.0793209179
C   C91       1.0  0.22640  0.02082  0.67250  1.0000 -0.0793209179
C   C92       1.0  0.22640  0.97918  0.17250  1.0000 -0.0793209179
C   C93       1.0  0.16870  0.99866  0.66960  1.0000 -0.1810630875
C   C94       1.0  0.16870  0.00134  0.16960  1.0000 -0.1810630875
C   C95       1.0  0.10460  0.99661  0.62350  1.0000 0.055404705
C   C96       1.0  0.10460  0.00339  0.12350  1.0000 0.0524728568
C   C97       1.0  0.10520  0.01751  0.57990  1.0000 -0.2319193324
C   C98       1.0  0.10520  0.98249  0.07990  1.0000 -0.2319193324
C   C99       1.0  0.16500  0.03920  0.58310  1.0000 -0.109671562
C   C100      1.0  0.16500  0.96080  0.08310  1.0000 -0.109671562
C   C101      1.0  0.43540  0.04060  0.46060  1.0000 -0.0702698304
C   C102      1.0  0.43540  0.95940  0.96060  1.0000 -0.0702698304
C   C103      1.0  0.49690  0.01940  0.45890  1.0000 -0.1719351093
C   C104      1.0  0.49690  0.98060  0.95890  1.0000 -0.1719351093
C   C105      1.0  0.52760  0.00576  0.51050  1.0000 0.0820566162
C   C106      1.0  0.52760  0.99424  0.01050  1.0000 0.0820566162
C   C107      1.0  0.49630  0.01602  0.56460  1.0000 -0.1810630875
C   C108      1.0  0.49630  0.98398  0.06460  1.0000 -0.1810630875
C   C109      1.0  0.43450  0.03706  0.56490  1.0000 -0.0509633485
C   C110      1.0  0.43450  0.96294  0.06490  1.0000 -0.0509633485
C   C111      1.0  0.13480  0.81869  0.09940  1.0000 -0.0509633485
C   C112      1.0  0.13480  0.18131  0.59940  1.0000 -0.0509633485
C   C113      1.0  0.08880  0.79442  0.11030  1.0000 -0.1810630875
C   C114      1.0  0.08880  0.20558  0.61030  1.0000 -0.1810630875
C   C115      1.0  0.12500  0.76823  0.09780  1.0000 0.0892731176
C   C116      1.0  0.12500  0.23177  0.59780  1.0000 0.0892731176
C   C117      1.0  0.20840  0.76816  0.07310  1.0000 -0.1879895944
C   C118      1.0  0.20840  0.23184  0.57310  1.0000 -0.1810630875
C   C119      1.0  0.25420  0.79274  0.06450  1.0000 -0.0702698304
C   C120      1.0  0.25420  0.20726  0.56450  1.0000 -0.0702698304
C   C121      1.0  0.07900  0.69236  0.13100  1.0000 -0.0369728968
C   C122      1.0  0.07900  0.30764  0.63100  1.0000 -0.0369728968
C   C123      1.0  0.12350  0.71731  0.12420  1.0000 -0.1719351093
C   C124      1.0  0.12350  0.28269  0.62420  1.0000 -0.1719351093
C   C125      1.0  0.07760  0.74171  0.10870  1.0000 0.0892731176
C   C126      1.0  0.07760  0.25829  0.60870  1.0000 0.0892731176
C   C127      1.0  0.98590  0.73964  0.10110  1.0000 -0.1810630875
C   C128      1.0  0.98590  0.26036  0.60110  1.0000 -0.1810630875
C   C129      1.0  0.94310  0.71445  0.10980  1.0000 -0.0509633485
C   C130      1.0  0.94310  0.28555  0.60980  1.0000 -0.0509633485
C   C131      1.0  0.99700  0.60136  0.92910  1.0000 -0.0590955165
C   C132      1.0  0.99700  0.39864  0.42910  1.0000 -0.0590955165
C   C133      1.0  0.04800  0.59745  0.88020  1.0000 -0.1879895944
C   C134      1.0  0.04800  0.40255  0.38020  1.0000 -0.1879895944
C   C135      1.0  0.08590  0.62037  0.85170  1.0000 0.0820566162
C   C136      1.0  0.08590  0.37963  0.35170  1.0000 0.0820566162
C   C137      1.0  0.06830  0.64705  0.87380  1.0000 -0.1879895944
C   C138      1.0  0.06830  0.35295  0.37380  1.0000 -0.1879895944
C   C139      1.0  0.01790  0.65024  0.92340  1.0000 -0.0509633485
C   C140      1.0  0.01790  0.34976  0.42340  1.0000 -0.0509633485
C   C141      1.0  0.97670  0.52919  0.01030  1.0000 -0.0793209179
C   C142      1.0  0.97670  0.47081  0.51030  1.0000 -0.0793209179
C   C143      1.0  0.03150  0.50624  0.01410  1.0000 -0.1879895944
C   C144      1.0  0.03150  0.49376  0.51410  1.0000 -0.1879895944
C   C145      1.0  0.09750  0.50393  0.05820  1.0000 0.0892731176
C   C146      1.0  0.09750  0.49607  0.55820  1.0000 0.0892731176
C   C147      1.0  0.10180  0.52572  0.09980  1.0000 -0.1810630875
C   C148      1.0  0.10180  0.47428  0.59980  1.0000 -0.1810630875
C   C149      1.0  0.04680  0.54866  0.09540  1.0000 -0.0793209179
C   C150      1.0  0.04680  0.45134  0.59540  1.0000 -0.0793209179
C   C151      1.0  0.64480  0.62353  0.01350  1.0000 -0.0233786283
C   C152      1.0  0.64480  0.37647  0.51350  1.0000 -0.0233786283
C   C153      1.0  0.59480  0.63020  0.96280  1.0000 -0.1810630875
C   C154      1.0  0.59480  0.36980  0.46280  1.0000 -0.1810630875
C   C155      1.0  0.61680  0.61878  0.90780  1.0000 0.0892731176
C   C156      1.0  0.61680  0.38122  0.40780  1.0000 0.0892731176
C   C157      1.0  0.68940  0.60096  0.90640  1.0000 -0.1719351093
C   C158      1.0  0.68940  0.39904  0.40640  1.0000 -0.1810630875
C   C159      1.0  0.73740  0.59437  0.95780  1.0000 -0.0793209179
C   C160      1.0  0.73740  0.40563  0.45780  1.0000 -0.0793209179
C   C161      1.0  0.77950  0.54630  0.21750  1.0000 -0.0908626458
C   C162      1.0  0.77950  0.45370  0.71750  1.0000 -0.0908626458
C   C163      1.0  0.72220  0.52406  0.22150  1.0000 -0.1719351093
C   C164      1.0  0.72220  0.47594  0.72150  1.0000 -0.1719351093
C   C165      1.0  0.69240  0.51005  0.17010  1.0000 0.0892731176
C   C166      1.0  0.69240  0.48995  0.67010  1.0000 0.0892731176
C   C167      1.0  0.72240  0.51991  0.11550  1.0000 -0.1879895944
C   C168      1.0  0.72240  0.48009  0.61550  1.0000 -0.1879895944
C   C169      1.0  0.77990  0.54234  0.11320  1.0000 -0.0509633485
C   C170      1.0  0.77990  0.45766  0.61320  1.0000 -0.0509633485
C   C171      1.0  0.58980  0.43955  0.13610  1.0000 -0.0702698304
C   C172      1.0  0.58980  0.56045  0.63610  1.0000 -0.0702698304
C   C173      1.0  0.64430  0.46258  0.13490  1.0000 -0.1719351093
C   C174      1.0  0.64430  0.53742  0.63490  1.0000 -0.1719351093
C   C175      1.0  0.63080  0.48572  0.17140  1.0000 0.0892731176
C   C176      1.0  0.63080  0.51428  0.67140  1.0000 0.0892731176
C   C177      1.0  0.55850  0.48466  0.20840  1.0000 -0.1810630875
C   C178      1.0  0.55850  0.51534  0.70840  1.0000 -0.1810630875
C   C179      1.0  0.50440  0.46147  0.20830  1.0000 -0.0793209179
C   C180      1.0  0.50440  0.53853  0.70830  1.0000 -0.0793209179
C   C181      1.0  0.28680  0.45742  0.10730  1.0000 -0.0509633485
C   C182      1.0  0.28680  0.54258  0.60730  1.0000 -0.0509633485
C   C183      1.0  0.21780  0.47604  0.10920  1.0000 -0.1810630875
C   C184      1.0  0.21780  0.52396  0.60920  1.0000 -0.1810630875
C   C185      1.0  0.16330  0.48130  0.05900  1.0000 0.0892731176
C   C186      1.0  0.16330  0.51870  0.55900  1.0000 0.0892731176
C   C187      1.0  0.18110  0.46562  0.00800  1.0000 -0.1719351093
C   C188      1.0  0.18110  0.53438  0.50800  1.0000 -0.1719351093
C   C189      1.0  0.25120  0.44742  0.00710  1.0000 -0.0908626458
C   C190      1.0  0.25120  0.55258  0.50710  1.0000 -0.0908626458
C   C191      1.0  0.55250  0.63030  0.74470  1.0000 -0.0369728968
C   C192      1.0  0.55250  0.36970  0.24470  1.0000 -0.0369728968
C   C193      1.0  0.60310  0.62440  0.79510  1.0000 -0.1810630875
C   C194      1.0  0.60310  0.37560  0.29510  1.0000 -0.1810630875
C   C195      1.0  0.56530  0.62480  0.85120  1.0000 0.0892731176
C   C196      1.0  0.56530  0.37520  0.35120  1.0000 0.0892731176
C   C197      1.0  0.47520  0.63070  0.85280  1.0000 -0.1810630875
C   C198      1.0  0.47520  0.36930  0.35280  1.0000 -0.1810630875
C   C199      1.0  0.42640  0.63620  0.80140  1.0000 -0.0793209179
C   C200      1.0  0.42640  0.36380  0.30140  1.0000 -0.0793209179
C   C201      1.0  0.17590  0.62957  0.69750  1.0000 -0.0590955165
C   C202      1.0  0.17590  0.37043  0.19750  1.0000 -0.0590955165
C   C203      1.0  0.12900  0.63456  0.74820  1.0000 -0.1810630875
C   C204      1.0  0.12900  0.36544  0.24820  1.0000 -0.1810630875
C   C205      1.0  0.14050  0.61690  0.79770  1.0000 0.0892731176
C   C206      1.0  0.14050  0.38310  0.29770  1.0000 0.0892731176
C   C207      1.0  0.20330  0.59560  0.79550  1.0000 -0.1879895944
C   C208      1.0  0.20330  0.40440  0.29550  1.0000 -0.1879895944
C   C209      1.0  0.24960  0.59131  0.74430  1.0000 -0.0702698304
C   C210      1.0  0.24960  0.40869  0.24430  1.0000 -0.0702698304
C   C211      1.0  0.48010  0.69780  0.63650  1.0000 -0.0509633485
C   C212      1.0  0.48010  0.30220  0.13650  1.0000 -0.0509633485
C   C213      1.0  0.53850  0.71980  0.64080  1.0000 -0.1719351093
C   C214      1.0  0.53850  0.28020  0.14080  1.0000 -0.1719351093
C   C215      1.0  0.56260  0.73471  0.59000  1.0000 0.0892731176
C   C216      1.0  0.56260  0.26529  0.09000  1.0000 0.0892731176
C   C217      1.0  0.52600  0.72566  0.53550  1.0000 -0.1642532451
C   C218      1.0  0.52600  0.27434  0.03550  1.0000 -0.1642532451
C   C219      1.0  0.46750  0.70361  0.53290  1.0000 -0.0793209179
C   C220      1.0  0.46750  0.29639  0.03290  1.0000 -0.0793209179
N   N1        1.0  0.69700  0.93462  0.50780  1.0000 0.2687555188
N   N2        1.0  0.69700  0.06538  0.00780  1.0000 0.2687555188
N   N3        1.0  0.89720  0.93684  0.62470  1.0000 0.2608430693
N   N4        1.0  0.89720  0.06316  0.12470  1.0000 0.2608430693
N   N5        1.0  0.74740  0.80163  0.59700  1.0000 0.2802870372
N   N6        1.0  0.74740  0.19837  0.09700  1.0000 0.2802870372
N   N7        1.0  0.72700  0.85962  0.43020  1.0000 0.2912111805
N   N8        1.0  0.72700  0.14038  0.93020  1.0000 0.2912111805
N   N9        1.0  0.97690  0.88065  0.47800  1.0000 0.2802870372
N   N10       1.0  0.97690  0.11935  0.97800  1.0000 0.2802870372
N   N11       1.0  0.24020  0.87548  0.22790  1.0000 0.3017658749
N   N12       1.0  0.24020  0.12452  0.72790  1.0000 0.3017658749
N   N13       1.0  0.48950  0.89786  0.16710  1.0000 0.2912111805
N   N14       1.0  0.48950  0.10214  0.66710  1.0000 0.2912111805
N   N15       1.0  0.22320  0.04103  0.63010  1.0000 0.2608430693
N   N16       1.0  0.22320  0.95897  0.13010  1.0000 0.2608430693
N   N17       1.0  0.40520  0.04938  0.51380  1.0000 0.2321475604
N   N18       1.0  0.40520  0.95062  0.01380  1.0000 0.2321475604
N   N19       1.0  0.21780  0.81762  0.07950  1.0000 0.2802870372
N   N20       1.0  0.21780  0.18238  0.57950  1.0000 0.2802870372
N   N21       1.0  0.98980  0.69123  0.12570  1.0000 0.2912111805
N   N22       1.0  0.98980  0.30877  0.62570  1.0000 0.2802870372
N   N23       1.0  0.98390  0.62755  0.95050  1.0000 0.2608430693
N   N24       1.0  0.98390  0.37245  0.45050  1.0000 0.2608430693
N   N25       1.0  0.98490  0.55039  0.05020  1.0000 0.2802870372
N   N26       1.0  0.98490  0.44961  0.55020  1.0000 0.2802870372
N   N27       1.0  0.71360  0.60567  0.01050  1.0000 0.3017658749
N   N28       1.0  0.71360  0.39433  0.51050  1.0000 0.3017658749
N   N29       1.0  0.80730  0.55533  0.16380  1.0000 0.2912111805
N   N30       1.0  0.80730  0.44467  0.66380  1.0000 0.2912111805
N   N31       1.0  0.51970  0.43929  0.17230  1.0000 0.2802870372
N   N32       1.0  0.51970  0.56071  0.67230  1.0000 0.2802870372
N   N33       1.0  0.30520  0.44418  0.05580  1.0000 0.2687555188
N   N34       1.0  0.30520  0.55582  0.55580  1.0000 0.2687555188
N   N35       1.0  0.46490  0.63569  0.74770  1.0000 0.2912111805
N   N36       1.0  0.46490  0.36431  0.24770  1.0000 0.2912111805
N   N37       1.0  0.23240  0.60789  0.69630  1.0000 0.2802870372
N   N38       1.0  0.23240  0.39211  0.19630  1.0000 0.2802870372
N   N39       1.0  0.44350  0.69014  0.58300  1.0000 0.2802870372
N   N40       1.0  0.44350  0.30986  0.08300  1.0000 0.2802870372
Cl  Cl1       1.0  0.61350  0.86293  0.58745  1.0000 -0.6803282639
Cl  Cl2       1.0  0.61350  0.13707  0.08745  1.0000 -0.6803282639
Cl  Cl3       1.0  0.11030  0.89306  0.10765  1.0000 -0.672275438
Cl  Cl4       1.0  0.11030  0.10694  0.60765  1.0000 -0.672275438
Cl  Cl5       1.0  0.58690  0.36677  0.09102  1.0000 -0.6803282639
Cl  Cl6       1.0  0.58690  0.63323  0.59102  1.0000 -0.6803282639
Cl  Cl7       1.0  0.05682  0.32826  0.77925  1.0000 -0.6489789924
Cl  Cl8       1.0  0.05682  0.67174  0.27925  1.0000 -0.6489789924
O   O1        1.0  0.76100  0.87505  0.69410  1.0000 -0.4408862433
O   O2        1.0  0.76100  0.12495  0.19410  1.0000 -0.4408862433
O   O3        1.0  0.93620  0.86139  0.64160  1.0000 -0.5197813651
O   O4        1.0  0.93620  0.13861  0.14160  1.0000 -0.5131979129
O   O5        1.0  0.41080  0.86881  0.01490  1.0000 -0.4492481491
O   O6        1.0  0.41080  0.13119  0.51490  1.0000 -0.4492481491
O   O7        1.0  0.21290  0.89003  0.97630  1.0000 -0.4924569121
O   O8        1.0  0.21290  0.10997  0.47630  1.0000 -0.4924569121
O   O9        1.0  0.96950  0.62045  0.20970  1.0000 -0.4924569121
O   O10       1.0  0.96950  0.37955  0.70970  1.0000 -0.4924569121
O   O11       1.0  0.79370  0.65952  0.05630  1.0000 -0.5498761138
O   O12       1.0  0.79370  0.34048  0.55630  1.0000 -0.5411628294
O   O13       1.0  0.06830  0.61518  0.10620  1.0000 -0.4714464089
O   O14       1.0  0.06830  0.38482  0.60620  1.0000 -0.4714464089
O   O15       1.0  0.77410  0.63482  0.16970  1.0000 -0.4335250995
O   O16       1.0  0.77410  0.36518  0.66970  1.0000 -0.4335250995
O   O17       1.0  0.26280  0.36966  0.03470  1.0000 -0.4564914844
O   O18       1.0  0.26280  0.63034  0.53470  1.0000 -0.4564914844
O   O19       1.0  0.44080  0.37952  0.98290  1.0000 -0.4408862433
O   O20       1.0  0.44080  0.62048  0.48290  1.0000 -0.4408862433
O   O21       1.0  0.74730  0.91141  0.50490  1.0000 -0.5597714988
O   O22       1.0  0.74730  0.08859  0.00490  1.0000 -0.5597714988
O   O23       1.0  0.82800  0.91904  0.62750  1.0000 -0.5498761138
O   O24       1.0  0.82800  0.08096  0.12750  1.0000 -0.5498761138
O   O25       1.0  0.80930  0.82248  0.59970  1.0000 -0.5411628294
O   O26       1.0  0.80930  0.17752  0.09970  1.0000 -0.5411628294
O   O27       1.0  0.77480  0.85216  0.47940  1.0000 -0.5701393178
O   O28       1.0  0.77480  0.14784  0.97940  1.0000 -0.5701393178
O   O29       1.0  0.93280  0.88396  0.52940  1.0000 -0.5498761138
O   O30       1.0  0.93280  0.11604  0.02940  1.0000 -0.5498761138
O   O31       1.0  0.29700  0.87503  0.18490  1.0000 -0.5411628294
O   O32       1.0  0.29700  0.12497  0.68490  1.0000 -0.5411628294
O   O33       1.0  0.44200  0.90396  0.11760  1.0000 -0.5701393178
O   O34       1.0  0.44200  0.09604  0.61760  1.0000 -0.5701393178
O   O35       1.0  0.27780  0.06299  0.63850  1.0000 -0.5597714988
O   O36       1.0  0.27780  0.93701  0.13850  1.0000 -0.5597714988
O   O37       1.0  0.34300  0.06937  0.51330  1.0000 -0.5048544547
O   O38       1.0  0.34300  0.93063  0.01330  1.0000 -0.5048544547
O   O39       1.0  0.26430  0.84115  0.06900  1.0000 -0.5597714988
O   O40       1.0  0.26430  0.15885  0.56900  1.0000 -0.5597714988
O   O41       1.0  0.95000  0.66617  0.13380  1.0000 -0.5498761138
O   O42       1.0  0.95000  0.33383  0.63380  1.0000 -0.5498761138
O   O43       1.0  0.93370  0.63126  0.99880  1.0000 -0.5411628294
O   O44       1.0  0.93370  0.36874  0.49880  1.0000 -0.5411628294
O   O45       1.0  0.93620  0.57351  0.04280  1.0000 -0.5411628294
O   O46       1.0  0.93620  0.42649  0.54280  1.0000 -0.5411628294
O   O47       1.0  0.75960  0.59936  0.06060  1.0000 -0.5701393178
O   O48       1.0  0.75960  0.40064  0.56060  1.0000 -0.5701393178
O   O49       1.0  0.86390  0.57645  0.16270  1.0000 -0.5498761138
O   O50       1.0  0.86390  0.42355  0.66270  1.0000 -0.5498761138
O   O51       1.0  0.46720  0.41730  0.17370  1.0000 -0.5280693909
O   O52       1.0  0.46720  0.58270  0.67370  1.0000 -0.5280693909
O   O53       1.0  0.37600  0.42763  0.05370  1.0000 -0.5597714988
O   O54       1.0  0.37600  0.57237  0.55370  1.0000 -0.5597714988
O   O55       1.0  0.41430  0.64126  0.69860  1.0000 -0.5701393178
O   O56       1.0  0.41430  0.35874  0.19860  1.0000 -0.5701393178
O   O57       1.0  0.27440  0.60224  0.64580  1.0000 -0.577750071
O   O58       1.0  0.27440  0.39776  0.14580  1.0000 -0.577750071
O   O59       1.0  0.38720  0.66891  0.57860  1.0000 -0.5597714988
O   O60       1.0  0.38720  0.33109  0.07860  1.0000 -0.5498761138
