# DDEC6 charges by PACMAN v1.1 (https://github.com/mtap-research/PACMAN-charge/)
data_2001[Zn][pcu]3[ION]1
_chemical_formula_sum              "Zn2 H50 C48 N2 O12"
_cell_length_a       9.9518
_cell_length_b       11.5761
_cell_length_c       15.5562
_cell_angle_alpha    72.377
_cell_angle_beta     83.165
_cell_angle_gamma    84.326

_symmetry_space_group_name_H-M    "P 1"
_symmetry_Int_Tables_number       1

loop_
  _symmetry_equiv_pos_as_xyz
  'x, y, z'

loop_
  _atom_site_type_symbol
  _atom_site_label
  _atom_site_symmetry_multiplicity
  _atom_site_fract_x
  _atom_site_fract_y
  _atom_site_fract_z
  _atom_site_occupancy
  _atom_site_charge
Zn  Zn1       1.0  0.41460  0.09270  0.88780  1.0000 0.9139378549
Zn  Zn2       1.0  0.58540  0.90730  0.11220  1.0000 0.9151398422
H   H1        1.0  0.24090  0.38530  0.97680  1.0000 0.1204078328
H   H2        1.0  0.75910  0.61470  0.02320  1.0000 0.1204078328
H   H3        1.0  0.23320  0.58750  0.00960  1.0000 0.1111414337
H   H4        1.0  0.76680  0.41250  0.99040  1.0000 0.1111414337
H   H5        1.0  0.89000  0.24930  0.96100  1.0000 0.1204078328
H   H6        1.0  0.11000  0.75070  0.03900  1.0000 0.1204078328
H   H7        1.0  0.48360  0.71650  0.87220  1.0000 0.1295706344
H   H8        1.0  0.51640  0.28350  0.12780  1.0000 0.1295706344
H   H9        1.0  0.53430  0.53250  0.82320  1.0000 0.1295706344
H   H10       1.0  0.46570  0.46750  0.17680  1.0000 0.1295706344
H   H11       1.0  0.43390  0.67890  0.14180  1.0000 0.1204078328
H   H12       1.0  0.56610  0.32110  0.85820  1.0000 0.1204078328
H   H13       1.0  0.25030  0.29580  0.56540  1.0000 0.1204078328
H   H14       1.0  0.74970  0.70420  0.43460  1.0000 0.1204078328
H   H15       1.0  0.28560  0.45190  0.43270  1.0000 0.1111414337
H   H16       1.0  0.71440  0.54810  0.56730  1.0000 0.1111414337
H   H17       1.0  0.57850  0.37590  0.66240  1.0000 0.1204078328
H   H18       1.0  0.42150  0.62410  0.33760  1.0000 0.1204078328
H   H19       1.0  0.95100  0.90800  0.19700  1.0000 0.2689049126
H   H20       1.0  0.79500  0.17590  0.23510  1.0000 0.1400579636
H   H21       1.0  0.91530  0.16910  0.15840  1.0000 0.1295706344
H   H22       1.0  0.78610  0.09110  0.17190  1.0000 0.151394728
H   H23       1.0  0.97530  0.05270  0.30190  1.0000 0.0933662461
H   H24       1.0  0.84710  0.97420  0.31430  1.0000 0.1111414337
H   H25       1.0  0.28450  0.08120  0.14240  1.0000 0.151394728
H   H26       1.0  0.17280  0.10810  0.21820  1.0000 0.1204078328
H   H27       1.0  0.26080  0.98100  0.23860  1.0000 0.1400579636
H   H28       1.0  0.06870  0.05750  0.10770  1.0000 0.1021889293
H   H29       1.0  0.15710  0.93090  0.12750  1.0000 0.1111414337
H   H30       1.0  0.10830  0.85430  0.33670  1.0000 0.1021889293
H   H31       1.0  0.97470  0.78660  0.33910  1.0000 0.1111414337
H   H32       1.0  0.16870  0.66490  0.31320  1.0000 0.1295706344
H   H33       1.0  0.08270  0.70140  0.22720  1.0000 0.1400579636
H   H34       1.0  0.21610  0.76980  0.22400  1.0000 0.1400579636
H   H35       1.0  0.04900  0.09200  0.80300  1.0000 0.2689049126
H   H36       1.0  0.20500  0.82410  0.76490  1.0000 0.1400579636
H   H37       1.0  0.08470  0.83090  0.84160  1.0000 0.1295706344
H   H38       1.0  0.21390  0.90890  0.82810  1.0000 0.151394728
H   H39       1.0  0.02470  0.94730  0.69810  1.0000 0.0933662461
H   H40       1.0  0.15290  0.02580  0.68570  1.0000 0.1111414337
H   H41       1.0  0.71550  0.91880  0.85760  1.0000 0.151394728
H   H42       1.0  0.82720  0.89190  0.78180  1.0000 0.1204078328
H   H43       1.0  0.73920  0.01900  0.76140  1.0000 0.1400579636
H   H44       1.0  0.93130  0.94250  0.89230  1.0000 0.1021889293
H   H45       1.0  0.84290  0.06910  0.87250  1.0000 0.1111414337
H   H46       1.0  0.89170  0.14570  0.66330  1.0000 0.1021889293
H   H47       1.0  0.02530  0.21340  0.66090  1.0000 0.1111414337
H   H48       1.0  0.83130  0.33510  0.68680  1.0000 0.1295706344
H   H49       1.0  0.91730  0.29860  0.77280  1.0000 0.1400579636
H   H50       1.0  0.78390  0.23020  0.77600  1.0000 0.1400579636
C   C1        1.0  0.15710  0.19760  0.93840  1.0000 0.5604296209
C   C2        1.0  0.84290  0.80240  0.06160  1.0000 0.5604296209
C   C3        1.0  0.08000  0.30230  0.96500  1.0000 -0.026191509
C   C4        1.0  0.92000  0.69770  0.03500  1.0000 -0.026191509
C   C5        1.0  0.14470  0.39190  0.97930  1.0000 -0.1504200442
C   C6        1.0  0.85530  0.60810  0.02070  1.0000 -0.1504200442
C   C7        1.0  0.07200  0.49610  0.99790  1.0000 0.0773991527
C   C8        1.0  0.92800  0.50390  0.00210  1.0000 0.0773991527
C   C9        1.0  0.13700  0.59150  0.01230  1.0000 -0.1437997563
C   C10       1.0  0.86300  0.40850  0.98770  1.0000 -0.1437997563
C   C11       1.0  0.93600  0.31210  0.97010  1.0000 -0.1203016123
C   C12       1.0  0.06400  0.68790  0.02990  1.0000 -0.1203016123
C   C13       1.0  0.43070  0.85360  0.98420  1.0000 0.5681967022
C   C14       1.0  0.56930  0.14640  0.01580  1.0000 0.5681967022
C   C15       1.0  0.45460  0.71710  0.00230  1.0000 -0.0195093496
C   C16       1.0  0.54540  0.28290  0.99770  1.0000 -0.0195093496
C   C17       1.0  0.48050  0.66667  0.93330  1.0000 -0.1504200442
C   C18       1.0  0.51950  0.33333  0.06670  1.0000 -0.1504200442
C   C19       1.0  0.50390  0.53330  0.95420  1.0000 0.0640499623
C   C20       1.0  0.49610  0.46670  0.04580  1.0000 0.0640499623
C   C21       1.0  0.52990  0.48300  0.88440  1.0000 -0.1504200442
C   C22       1.0  0.47010  0.51700  0.11560  1.0000 -0.1504200442
C   C23       1.0  0.45050  0.64210  0.09430  1.0000 -0.1060773252
C   C24       1.0  0.54950  0.35790  0.90570  1.0000 -0.1060773252
C   C25       1.0  0.38520  0.22150  0.71430  1.0000 0.5524579765
C   C26       1.0  0.61480  0.77850  0.28570  1.0000 0.5524579765
C   C27       1.0  0.41110  0.32100  0.62710  1.0000 -0.0128162481
C   C28       1.0  0.58890  0.67900  0.37290  1.0000 -0.0128162481
C   C29       1.0  0.32450  0.34480  0.55760  1.0000 -0.1203016123
C   C30       1.0  0.67550  0.65520  0.44240  1.0000 -0.1203016123
C   C31       1.0  0.34520  0.43750  0.47880  1.0000 -0.1623761474
C   C32       1.0  0.65480  0.56250  0.52120  1.0000 -0.1623761474
C   C33       1.0  0.45570  0.51190  0.46580  1.0000 0.0727992089
C   C34       1.0  0.54430  0.48810  0.53420  1.0000 0.0727992089
C   C35       1.0  0.51980  0.39170  0.61570  1.0000 -0.1663995801
C   C36       1.0  0.48020  0.60830  0.38430  1.0000 -0.1663995801
C   C37       1.0  0.84730  0.12280  0.20300  1.0000 -0.409490694
C   C38       1.0  0.91660  0.01960  0.26920  1.0000 -0.038839379
C   C39       1.0  0.21660  0.04520  0.19190  1.0000 -0.4026847003
C   C40       1.0  0.11140  0.99220  0.15570  1.0000 -0.050444
C   C41       1.0  0.05290  0.82570  0.29930  1.0000 -0.038839379
C   C42       1.0  0.13750  0.73230  0.26270  1.0000 -0.409490694
C   C43       1.0  0.15270  0.87720  0.79700  1.0000 -0.409490694
C   C44       1.0  0.08340  0.98040  0.73080  1.0000 -0.038839379
C   C45       1.0  0.78340  0.95480  0.80810  1.0000 -0.4026847003
C   C46       1.0  0.88860  0.00780  0.84430  1.0000 -0.050444
C   C47       1.0  0.94710  0.17430  0.70070  1.0000 -0.038839379
C   C48       1.0  0.86250  0.26770  0.73730  1.0000 -0.409490694
N   N1        1.0  0.00130  0.93300  0.22690  1.0000 -0.026191509
N   N2        1.0  0.99870  0.06700  0.77310  1.0000 -0.026191509
O   O1        1.0  0.28670  0.19060  0.94390  1.0000 -0.5788789807
O   O2        1.0  0.71330  0.80940  0.05610  1.0000 -0.5788789807
O   O3        1.0  0.09730  0.12750  0.91310  1.0000 -0.5412817715
O   O4        1.0  0.90270  0.87250  0.08690  1.0000 -0.5412817715
O   O5        1.0  0.42100  0.91860  0.90250  1.0000 -0.5412817715
O   O6        1.0  0.57900  0.08140  0.09750  1.0000 -0.5412817715
O   O7        1.0  0.41970  0.89510  0.04990  1.0000 -0.5342686294
O   O8        1.0  0.58030  0.10490  0.95010  1.0000 -0.5342686294
O   O9        1.0  0.47820  0.19350  0.76750  1.0000 -0.5563747405
O   O10       1.0  0.52180  0.80650  0.23250  1.0000 -0.5563747405
O   O11       1.0  0.27420  0.17370  0.72940  1.0000 -0.5788789807
O   O12       1.0  0.72580  0.82630  0.27060  1.0000 -0.5788789807
