# DDEC6 charges by PACMAN v1.1 (https://github.com/mtap-research/PACMAN-charge/)
data_2001[Cu][lvt]3[ION]1
_chemical_formula_sum              "Cu8 B12 H160 C176 N32 Cl4 F48"
_cell_length_a       21.1031
_cell_length_b       21.1031
_cell_length_c       21.1031
_cell_angle_alpha    118.818
_cell_angle_beta     118.818
_cell_angle_gamma    92.0599

_symmetry_space_group_name_H-M    "P 1"
_symmetry_Int_Tables_number       1

loop_
  _symmetry_equiv_pos_as_xyz
  'x, y, z'

loop_
  _atom_site_type_symbol
  _atom_site_label
  _atom_site_symmetry_multiplicity
  _atom_site_fract_x
  _atom_site_fract_y
  _atom_site_fract_z
  _atom_site_occupancy
  _atom_site_charge
Cu  Cu1       1.0  0.93609  0.03431  0.39494  1.0000 0.616353388
Cu  Cu2       1.0  0.63937  0.54115  0.60506  1.0000 0.616353388
Cu  Cu3       1.0  0.81391  0.70885  0.59822  1.0000 0.616353388
Cu  Cu4       1.0  0.11063  0.21569  0.40178  1.0000 0.616353388
Cu  Cu5       1.0  0.78431  0.18609  0.89494  1.0000 0.616353388
Cu  Cu6       1.0  0.29115  0.88937  0.10506  1.0000 0.616353388
Cu  Cu7       1.0  0.45885  0.06391  0.09822  1.0000 0.616353388
Cu  Cu8       1.0  0.96569  0.36063  0.90178  1.0000 0.616353388
B   B1        1.0  0.93270  0.43270  0.50000  1.0000 0.9945887877
B   B2        1.0  0.81730  0.81730  0.00000  1.0000 0.9962880565
B   B3        1.0  0.18270  0.18270  0.00000  1.0000 0.9962880565
B   B4        1.0  0.56730  0.06730  0.50000  1.0000 0.9945887877
B   B5        1.0  0.02970  0.44380  0.80230  1.0000 1.0120635284
B   B6        1.0  0.64150  0.22740  0.19770  1.0000 1.0120635284
B   B7        1.0  0.10850  0.80620  0.08590  1.0000 1.0120635284
B   B8        1.0  0.72030  0.02260  0.91410  1.0000 1.0120635284
B   B9        1.0  0.19380  0.27970  0.30230  1.0000 1.0120635284
B   B10       1.0  0.97740  0.89150  0.69770  1.0000 1.0120635284
B   B11       1.0  0.55620  0.35850  0.58590  1.0000 1.0120635284
B   B12       1.0  0.77260  0.97030  0.41410  1.0000 1.0120635284
H   H1        1.0  0.84260  0.94670  0.19110  1.0000 0.1082447318
H   H2        1.0  0.75560  0.65150  0.80890  1.0000 0.1082447318
H   H3        1.0  0.90740  0.59850  0.60410  1.0000 0.1082447318
H   H4        1.0  0.99440  0.30330  0.39590  1.0000 0.1082447318
H   H5        1.0  0.69670  0.09260  0.69110  1.0000 0.1082447318
H   H6        1.0  0.40150  0.00560  0.30890  1.0000 0.1082447318
H   H7        1.0  0.34850  0.15740  0.10410  1.0000 0.1082447318
H   H8        1.0  0.05330  0.24440  0.89590  1.0000 0.1082447318
H   H9        1.0  0.74520  0.96430  0.08770  1.0000 0.1515282446
H   H10       1.0  0.87660  0.65750  0.91230  1.0000 0.1515282446
H   H11       1.0  0.00480  0.59250  0.71910  1.0000 0.1515282446
H   H12       1.0  0.87340  0.28570  0.28090  1.0000 0.1515282446
H   H13       1.0  0.71430  0.99520  0.58770  1.0000 0.1515282446
H   H14       1.0  0.40750  0.12660  0.41230  1.0000 0.1515282446
H   H15       1.0  0.34250  0.25480  0.21910  1.0000 0.1515282446
H   H16       1.0  0.03570  0.12340  0.78090  1.0000 0.1515282446
H   H17       1.0  0.71540  0.06770  0.13170  1.0000 0.1309094046
H   H18       1.0  0.93600  0.58370  0.86830  1.0000 0.1309094046
H   H19       1.0  0.03460  0.66630  0.85230  1.0000 0.1309094046
H   H20       1.0  0.81400  0.18230  0.14770  1.0000 0.1309094046
H   H21       1.0  0.81770  0.96540  0.63170  1.0000 0.1309094046
H   H22       1.0  0.33370  0.18600  0.36830  1.0000 0.1309094046
H   H23       1.0  0.41630  0.28460  0.35230  1.0000 0.1179376718
H   H24       1.0  0.93230  0.06400  0.64770  1.0000 0.1309094046
H   H25       1.0  0.77050  0.15900  0.28590  1.0000 0.1384055303
H   H26       1.0  0.87310  0.48460  0.71410  1.0000 0.1384055303
H   H27       1.0  0.97950  0.76540  0.88850  1.0000 0.1384055303
H   H28       1.0  0.87690  0.09100  0.11150  1.0000 0.1384055303
H   H29       1.0  0.90900  0.02050  0.78590  1.0000 0.1384055303
H   H30       1.0  0.23460  0.12310  0.21410  1.0000 0.1384055303
H   H31       1.0  0.51540  0.22950  0.38850  1.0000 0.1384055303
H   H32       1.0  0.84100  0.12690  0.61150  1.0000 0.1384055303
H   H33       1.0  0.83140  0.23790  0.43010  1.0000 0.1384055303
H   H34       1.0  0.80780  0.40130  0.56990  1.0000 0.1384055303
H   H35       1.0  0.91860  0.84870  0.90650  1.0000 0.1384055303
H   H36       1.0  0.94220  0.01210  0.09350  1.0000 0.1384055303
H   H37       1.0  0.98790  0.08140  0.93010  1.0000 0.1384055303
H   H38       1.0  0.15130  0.05780  0.06990  1.0000 0.1384055303
H   H39       1.0  0.59870  0.16860  0.40650  1.0000 0.1384055303
H   H40       1.0  0.76210  0.19220  0.59350  1.0000 0.1384055303
H   H41       1.0  0.91790  0.32340  0.58250  1.0000 0.1309094046
H   H42       1.0  0.74090  0.33540  0.41750  1.0000 0.1309094046
H   H43       1.0  0.83210  0.91460  0.90550  1.0000 0.1309094046
H   H44       1.0  0.00910  0.92660  0.09450  1.0000 0.1309094046
H   H45       1.0  0.07340  0.16790  0.08250  1.0000 0.1309094046
H   H46       1.0  0.08540  0.99090  0.91750  1.0000 0.1309094046
H   H47       1.0  0.66460  0.08210  0.40550  1.0000 0.1309094046
H   H48       1.0  0.67660  0.25910  0.59450  1.0000 0.1309094046
H   H49       1.0  0.01230  0.97520  0.30330  1.0000 0.1082447318
H   H50       1.0  0.67190  0.70900  0.69670  1.0000 0.1082447318
H   H51       1.0  0.73770  0.54100  0.46290  1.0000 0.1082447318
H   H52       1.0  0.07810  0.27480  0.53710  1.0000 0.1082447318
H   H53       1.0  0.72520  0.26230  0.80330  1.0000 0.1082447318
H   H54       1.0  0.45900  0.92190  0.19670  1.0000 0.1082447318
H   H55       1.0  0.29100  0.98770  0.96290  1.0000 0.1082447318
H   H56       1.0  0.02480  0.32810  0.03710  1.0000 0.1082447318
H   H57       1.0  0.01390  0.86200  0.20830  1.0000 0.1515282446
H   H58       1.0  0.65370  0.80560  0.79170  1.0000 0.1515282446
H   H59       1.0  0.73610  0.44440  0.34810  1.0000 0.1515282446
H   H60       1.0  0.09630  0.38800  0.65190  1.0000 0.1515282446
H   H61       1.0  0.61200  0.26390  0.70830  1.0000 0.1515282446
H   H62       1.0  0.55560  0.90370  0.29170  1.0000 0.1515282446
H   H63       1.0  0.19440  0.98610  0.84810  1.0000 0.1515282446
H   H64       1.0  0.13800  0.34630  0.15190  1.0000 0.1515282446
H   H65       1.0  0.86490  0.75020  0.21630  1.0000 0.1384055303
H   H66       1.0  0.53390  0.64860  0.78370  1.0000 0.1384055303
H   H67       1.0  0.88510  0.60140  0.38530  1.0000 0.1384055303
H   H68       1.0  0.21610  0.49980  0.61470  1.0000 0.1384055303
H   H69       1.0  0.50020  0.11490  0.71630  1.0000 0.1309094046
H   H70       1.0  0.39860  0.78390  0.28370  1.0000 0.1309094046
H   H71       1.0  0.35140  0.13510  0.88530  1.0000 0.1309094046
H   H72       1.0  0.24980  0.46610  0.11470  1.0000 0.1309094046
H   H73       1.0  0.85930  0.86930  0.30320  1.0000 0.1179376718
H   H74       1.0  0.56610  0.55610  0.69680  1.0000 0.1179376718
H   H75       1.0  0.89070  0.69390  0.51000  1.0000 0.1179376718
H   H76       1.0  0.18390  0.38070  0.49000  1.0000 0.1179376718
H   H77       1.0  0.61930  0.10930  0.80320  1.0000 0.1179376718
H   H78       1.0  0.30610  0.81610  0.19680  1.0000 0.1179376718
H   H79       1.0  0.44390  0.14070  0.01000  1.0000 0.1179376718
H   H80       1.0  0.13070  0.43390  0.99000  1.0000 0.1179376718
H   H81       1.0  0.88810  0.67160  0.09770  1.0000 0.0988574515
H   H82       1.0  0.57390  0.79040  0.90230  1.0000 0.0988574515
H   H83       1.0  0.86190  0.45960  0.28350  1.0000 0.0988574515
H   H84       1.0  0.17610  0.57840  0.71650  1.0000 0.0988574515
H   H85       1.0  0.42160  0.13810  0.59770  1.0000 0.0988574515
H   H86       1.0  0.54040  0.82390  0.40230  1.0000 0.0988574515
H   H87       1.0  0.20960  0.11190  0.78350  1.0000 0.0988574515
H   H88       1.0  0.32840  0.42610  0.21650  1.0000 0.0988574515
H   H89       1.0  0.92670  0.71710  0.07660  1.0000 0.1179376718
H   H90       1.0  0.64050  0.85010  0.92340  1.0000 0.1179376718
H   H91       1.0  0.82330  0.39990  0.29040  1.0000 0.1179376718
H   H92       1.0  0.10950  0.53290  0.70960  1.0000 0.1179376718
H   H93       1.0  0.46710  0.17670  0.57660  1.0000 0.1179376718
H   H94       1.0  0.60010  0.89050  0.42340  1.0000 0.1179376718
H   H95       1.0  0.14990  0.07330  0.79040  1.0000 0.1179376718
H   H96       1.0  0.28290  0.35950  0.20960  1.0000 0.1179376718
H   H97       1.0  0.02440  0.51970  0.95490  1.0000 0.1179376718
H   H98       1.0  0.56480  0.06950  0.04510  1.0000 0.1179376718
H   H99       1.0  0.72560  0.18050  0.99530  1.0000 0.1179376718
H   H100      1.0  0.18520  0.73030  0.00470  1.0000 0.1179376718
H   H101      1.0  0.26970  0.27440  0.45490  1.0000 0.1179376718
H   H102      1.0  0.81950  0.81480  0.54510  1.0000 0.1179376718
H   H103      1.0  0.93050  0.97560  0.49530  1.0000 0.1179376718
H   H104      1.0  0.48030  0.43520  0.50470  1.0000 0.1179376718
H   H105      1.0  0.03760  0.64320  0.04700  1.0000 0.1515282446
H   H106      1.0  0.59620  0.99060  0.95300  1.0000 0.1515282446
H   H107      1.0  0.71240  0.25940  0.10560  1.0000 0.1515282446
H   H108      1.0  0.15380  0.60680  0.89440  1.0000 0.1515282446
H   H109      1.0  0.39320  0.28760  0.54700  1.0000 0.1515282446
H   H110      1.0  0.74060  0.84620  0.45300  1.0000 0.1515282446
H   H111      1.0  0.00940  0.96240  0.60560  1.0000 0.1515282446
H   H112      1.0  0.35680  0.40380  0.39440  1.0000 0.1515282446
H   H113      1.0  0.92820  0.56320  0.11520  1.0000 0.1384055303
H   H114      1.0  0.44800  0.81300  0.88480  1.0000 0.1384055303
H   H115      1.0  0.82180  0.43700  0.13500  1.0000 0.1384055303
H   H116      1.0  0.30200  0.68680  0.86500  1.0000 0.1384055303
H   H117      1.0  0.31320  0.17820  0.61520  1.0000 0.1384055303
H   H118      1.0  0.56300  0.69800  0.38480  1.0000 0.1384055303
H   H119      1.0  0.18700  0.07180  0.63500  1.0000 0.1384055303
H   H120      1.0  0.43680  0.55200  0.36500  1.0000 0.1384055303
H   H121      1.0  0.91580  0.43970  0.01630  1.0000 0.0988574515
H   H122      1.0  0.42340  0.89950  0.98370  1.0000 0.0988574515
H   H123      1.0  0.83420  0.35050  0.02390  1.0000 0.0988574515
H   H124      1.0  0.32660  0.81030  0.97610  1.0000 0.0988574515
H   H125      1.0  0.18970  0.16580  0.51630  1.0000 0.0988574515
H   H126      1.0  0.64950  0.67340  0.48370  1.0000 0.0988574515
H   H127      1.0  0.10050  0.08420  0.52390  1.0000 0.0988574515
H   H128      1.0  0.56030  0.57660  0.47610  1.0000 0.0988574515
H   H129      1.0  0.01750  0.70590  0.22140  1.0000 0.0988574515
H   H130      1.0  0.48450  0.79610  0.77860  1.0000 0.0988574515
H   H131      1.0  0.73250  0.45390  0.18840  1.0000 0.0988574515
H   H132      1.0  0.26550  0.54410  0.81160  1.0000 0.0988574515
H   H133      1.0  0.45590  0.26750  0.72140  1.0000 0.0988574515
H   H134      1.0  0.54610  0.73450  0.27860  1.0000 0.0988574515
H   H135      1.0  0.20390  0.98250  0.68840  1.0000 0.0988574515
H   H136      1.0  0.29410  0.51550  0.31160  1.0000 0.0988574515
H   H137      1.0  0.05020  0.73620  0.18400  1.0000 0.1179376718
H   H138      1.0  0.55220  0.86620  0.81600  1.0000 0.1179376718
H   H139      1.0  0.69980  0.38380  0.18600  1.0000 0.1179376718
H   H140      1.0  0.19780  0.51380  0.81400  1.0000 0.1179376718
H   H141      1.0  0.48620  0.30020  0.68400  1.0000 0.1179376718
H   H142      1.0  0.61620  0.80220  0.31600  1.0000 0.1179376718
H   H143      1.0  0.13380  0.94980  0.68600  1.0000 0.1179376718
H   H144      1.0  0.26380  0.44780  0.31400  1.0000 0.1179376718
H   H145      1.0  0.97970  0.27050  0.65840  1.0000 0.1384055303
H   H146      1.0  0.61210  0.32130  0.34160  1.0000 0.1384055303
H   H147      1.0  0.77030  0.92870  0.79080  1.0000 0.1384055303
H   H148      1.0  0.13790  0.97950  0.20920  1.0000 0.1384055303
H   H149      1.0  0.02050  0.22970  0.15840  1.0000 0.1384055303
H   H150      1.0  0.07130  0.86210  0.84160  1.0000 0.1384055303
H   H151      1.0  0.67870  0.02030  0.29080  1.0000 0.1384055303
H   H152      1.0  0.72950  0.38790  0.70920  1.0000 0.1384055303
H   H153      1.0  0.99050  0.15800  0.58210  1.0000 0.1082447318
H   H154      1.0  0.57590  0.40840  0.41790  1.0000 0.1082447318
H   H155      1.0  0.75950  0.84160  0.66750  1.0000 0.1082447318
H   H156      1.0  0.17410  0.09200  0.33250  1.0000 0.1082447318
H   H157      1.0  0.90800  0.24050  0.08210  1.0000 0.1082447318
H   H158      1.0  0.15840  0.82590  0.91790  1.0000 0.1082447318
H   H159      1.0  0.59160  0.00950  0.16750  1.0000 0.1082447318
H   H160      1.0  0.84200  0.42410  0.83250  1.0000 0.1082447318
C   C1        1.0  0.82500  0.98730  0.20970  1.0000 0.0988574515
C   C2        1.0  0.77760  0.61530  0.79030  1.0000 0.0929182557
C   C3        1.0  0.92500  0.63470  0.66230  1.0000 0.0929182557
C   C4        1.0  0.97240  0.26270  0.33770  1.0000 0.0988574515
C   C5        1.0  0.73730  0.07500  0.70970  1.0000 0.0929182557
C   C6        1.0  0.36530  0.02760  0.29030  1.0000 0.0929182557
C   C7        1.0  0.38470  0.17500  0.16230  1.0000 0.0929182557
C   C8        1.0  0.01270  0.22240  0.83770  1.0000 0.0929182557
C   C9        1.0  0.76850  0.00030  0.14760  1.0000 -0.1179914893
C   C10       1.0  0.85270  0.62090  0.85240  1.0000 -0.1179914893
C   C11       1.0  0.98150  0.62910  0.73180  1.0000 -0.1179914893
C   C12       1.0  0.89730  0.24970  0.26820  1.0000 -0.1179914893
C   C13       1.0  0.75030  0.01850  0.64760  1.0000 -0.1179914893
C   C14       1.0  0.37090  0.10270  0.35240  1.0000 -0.1179914893
C   C15       1.0  0.37910  0.23150  0.23180  1.0000 -0.1179914893
C   C16       1.0  0.99970  0.14730  0.76820  1.0000 -0.1179914893
C   C17       1.0  0.75020  0.05940  0.17280  1.0000 -0.0401106807
C   C18       1.0  0.88660  0.57740  0.82720  1.0000 -0.0401106807
C   C19       1.0  0.99980  0.67260  0.80920  1.0000 -0.0401106807
C   C20       1.0  0.86340  0.19060  0.19080  1.0000 -0.0401106807
C   C21       1.0  0.80940  0.00020  0.67280  1.0000 -0.0401106807
C   C22       1.0  0.32740  0.13660  0.32720  1.0000 -0.0401106807
C   C23       1.0  0.42260  0.24980  0.30920  1.0000 -0.0401106807
C   C24       1.0  0.94060  0.11340  0.69080  1.0000 -0.0401106807
C   C25       1.0  0.78300  0.11490  0.26530  1.0000 -0.1495038085
C   C26       1.0  0.84960  0.51770  0.73470  1.0000 -0.1495038085
C   C27       1.0  0.96700  0.73230  0.83190  1.0000 -0.1495038085
C   C28       1.0  0.90040  0.13510  0.16810  1.0000 -0.1495038085
C   C29       1.0  0.86490  0.03300  0.76530  1.0000 -0.1495038085
C   C30       1.0  0.26770  0.09960  0.23470  1.0000 -0.1495038085
C   C31       1.0  0.48230  0.21700  0.33190  1.0000 -0.1495038085
C   C32       1.0  0.88510  0.15040  0.66810  1.0000 -0.1495038085
C   C33       1.0  0.83240  0.09750  0.31870  1.0000 0.1613172885
C   C34       1.0  0.77880  0.51370  0.68130  1.0000 0.1613172885
C   C35       1.0  0.91760  0.73630  0.76510  1.0000 0.1613172885
C   C36       1.0  0.97120  0.15250  0.23490  1.0000 0.1613172885
C   C37       1.0  0.84750  0.08240  0.81870  1.0000 0.1613172885
C   C38       1.0  0.26370  0.02880  0.18130  1.0000 0.1613172885
C   C39       1.0  0.48630  0.16760  0.26510  1.0000 0.1613172885
C   C40       1.0  0.90250  0.22120  0.73490  1.0000 0.1613172885
C   C41       1.0  0.87570  0.15360  0.41870  1.0000 0.1613172885
C   C42       1.0  0.73490  0.45700  0.58130  1.0000 0.169174336
C   C43       1.0  0.87430  0.79300  0.77790  1.0000 0.1613172885
C   C44       1.0  0.01510  0.09640  0.22210  1.0000 0.1613172885
C   C45       1.0  0.90360  0.12570  0.91870  1.0000 0.169174336
C   C46       1.0  0.20700  0.98490  0.08130  1.0000 0.1613172885
C   C47       1.0  0.54300  0.12430  0.27790  1.0000 0.1613172885
C   C48       1.0  0.84640  0.26510  0.72210  1.0000 0.169174336
C   C49       1.0  0.86820  0.22340  0.46220  1.0000 -0.1552969412
C   C50       1.0  0.76120  0.40600  0.53780  1.0000 -0.1552969412
C   C51       1.0  0.88180  0.84400  0.85520  1.0000 -0.1552969412
C   C52       1.0  0.98880  0.02660  0.14480  1.0000 -0.1495038085
C   C53       1.0  0.97340  0.11820  0.96220  1.0000 -0.1552969412
C   C54       1.0  0.15600  0.01120  0.03780  1.0000 -0.1552969412
C   C55       1.0  0.59400  0.13180  0.35520  1.0000 -0.1552969412
C   C56       1.0  0.77660  0.23880  0.64480  1.0000 -0.1552969412
C   C57       1.0  0.91470  0.27210  0.55320  1.0000 -0.0160590737
C   C58       1.0  0.71890  0.36150  0.44680  1.0000 -0.0160590737
C   C59       1.0  0.83530  0.88850  0.85740  1.0000 -0.0160590737
C   C60       1.0  0.03110  0.97790  0.14260  1.0000 -0.0160590737
C   C61       1.0  0.02210  0.16470  0.05320  1.0000 -0.0160590737
C   C62       1.0  0.11150  0.96890  0.94680  1.0000 -0.0160590737
C   C63       1.0  0.63850  0.08530  0.35740  1.0000 -0.0160590737
C   C64       1.0  0.72790  0.28110  0.64260  1.0000 -0.0160590737
C   C65       1.0  0.98090  0.92930  0.28460  1.0000 0.0929182557
C   C66       1.0  0.64470  0.69630  0.71540  1.0000 0.0929182557
C   C67       1.0  0.76910  0.55370  0.44840  1.0000 0.0929182557
C   C68       1.0  0.10530  0.32070  0.55160  1.0000 0.0929182557
C   C69       1.0  0.67930  0.23090  0.78460  1.0000 0.0929182557
C   C70       1.0  0.44630  0.89470  0.21540  1.0000 0.0929182557
C   C71       1.0  0.30370  0.01910  0.94840  1.0000 0.0929182557
C   C72       1.0  0.07070  0.35530  0.05160  1.0000 0.0929182557
C   C73       1.0  0.98180  0.86010  0.22630  1.0000 -0.1928893076
C   C74       1.0  0.63380  0.75550  0.77370  1.0000 -0.1928893076
C   C75       1.0  0.76820  0.49450  0.37830  1.0000 -0.1928893076
C   C76       1.0  0.11620  0.38990  0.62170  1.0000 -0.1928893076
C   C77       1.0  0.61010  0.23180  0.72630  1.0000 -0.1928893076
C   C78       1.0  0.50550  0.88380  0.27370  1.0000 -0.1928893076
C   C79       1.0  0.24450  0.01820  0.87830  1.0000 -0.1928893076
C   C80       1.0  0.13990  0.36620  0.12170  1.0000 -0.1928893076
C   C81       1.0  0.93790  0.78990  0.19460  1.0000 0.169174336
C   C82       1.0  0.59530  0.74330  0.80540  1.0000 0.169174336
C   C83       1.0  0.81210  0.50670  0.35200  1.0000 0.169174336
C   C84       1.0  0.15470  0.46010  0.64800  1.0000 0.169174336
C   C85       1.0  0.53990  0.18790  0.69460  1.0000 0.169174336
C   C86       1.0  0.49330  0.84530  0.30540  1.0000 0.169174336
C   C87       1.0  0.25670  0.06210  0.85200  1.0000 0.169174336
C   C88       1.0  0.21010  0.40470  0.14800  1.0000 0.169174336
C   C89       1.0  0.89340  0.79480  0.23000  1.0000 -0.2009063484
C   C90       1.0  0.56480  0.66340  0.77000  1.0000 -0.2009063484
C   C91       1.0  0.85660  0.58660  0.40140  1.0000 -0.2009063484
C   C92       1.0  0.18520  0.45520  0.59860  1.0000 -0.2009063484
C   C93       1.0  0.54480  0.14340  0.73000  1.0000 -0.2009063484
C   C94       1.0  0.41340  0.81480  0.27000  1.0000 -0.2009063484
C   C95       1.0  0.33660  0.10660  0.90140  1.0000 -0.2009063484
C   C96       1.0  0.20520  0.43520  0.09860  1.0000 -0.2009063484
C   C97       1.0  0.89260  0.86740  0.28580  1.0000 0.0613584658
C   C98       1.0  0.58160  0.60680  0.71420  1.0000 0.0613584658
C   C99       1.0  0.85740  0.64320  0.47480  1.0000 0.0613584658
C   C100      1.0  0.16840  0.38260  0.52520  1.0000 0.0613584658
C   C101      1.0  0.61740  0.14260  0.78580  1.0000 0.0613584658
C   C102      1.0  0.35680  0.83160  0.21420  1.0000 0.0613584658
C   C103      1.0  0.39320  0.10740  0.97480  1.0000 0.0613584658
C   C104      1.0  0.13260  0.41840  0.02520  1.0000 0.0613584658
C   C105      1.0  0.93210  0.71350  0.12300  1.0000 -0.2274528117
C   C106      1.0  0.59050  0.80910  0.87700  1.0000 -0.2274528117
C   C107      1.0  0.81790  0.44090  0.28140  1.0000 -0.2274528117
C   C108      1.0  0.15950  0.53650  0.71860  1.0000 -0.2274528117
C   C109      1.0  0.46350  0.18210  0.62300  1.0000 -0.2274528117
C   C110      1.0  0.55910  0.84050  0.37700  1.0000 -0.2274528117
C   C111      1.0  0.19090  0.06790  0.78140  1.0000 -0.2274528117
C   C112      1.0  0.28650  0.40950  0.21860  1.0000 -0.2274528117
C   C113      1.0  0.00570  0.52890  0.98940  1.0000 0.0436586835
C   C114      1.0  0.53950  0.01630  0.01060  1.0000 0.0436586835
C   C115      1.0  0.74430  0.23370  0.02320  1.0000 0.0451748511
C   C116      1.0  0.21050  0.72110  0.97680  1.0000 0.0436586835
C   C117      1.0  0.27890  0.25570  0.48940  1.0000 0.0436586835
C   C118      1.0  0.76630  0.78950  0.51060  1.0000 0.0436586835
C   C119      1.0  0.98370  0.99430  0.52320  1.0000 0.0436586835
C   C120      1.0  0.47110  0.46050  0.47680  1.0000 0.0436586835
C   C121      1.0  0.01560  0.60320  0.04560  1.0000 -0.1846462534
C   C122      1.0  0.55760  0.97000  0.95440  1.0000 -0.1846462534
C   C123      1.0  0.73440  0.28000  0.08760  1.0000 -0.1846462534
C   C124      1.0  0.19240  0.64680  0.91240  1.0000 -0.1846462534
C   C125      1.0  0.35320  0.26560  0.54560  1.0000 -0.1846462534
C   C126      1.0  0.72000  0.80760  0.45440  1.0000 -0.1846462534
C   C127      1.0  0.03000  0.98440  0.58760  1.0000 -0.1846462534
C   C128      1.0  0.39680  0.44240  0.41240  1.0000 -0.1846462534
C   C129      1.0  0.99230  0.61770  0.10040  1.0000 0.1613172885
C   C130      1.0  0.51730  0.89190  0.89960  1.0000 0.1613172885
C   C131      1.0  0.75770  0.35810  0.12540  1.0000 0.1613172885
C   C132      1.0  0.23270  0.63230  0.87460  1.0000 0.1613172885
C   C133      1.0  0.36770  0.24230  0.60040  1.0000 0.1613172885
C   C134      1.0  0.64190  0.76730  0.39960  1.0000 0.1613172885
C   C135      1.0  0.10810  0.00770  0.62540  1.0000 0.1613172885
C   C136      1.0  0.38230  0.48270  0.37460  1.0000 0.1613172885
C   C137      1.0  0.95140  0.55650  0.08550  1.0000 -0.2172864516
C   C138      1.0  0.47100  0.86590  0.91450  1.0000 -0.2172864516
C   C139      1.0  0.79860  0.38410  0.10510  1.0000 -0.2172864516
C   C140      1.0  0.27900  0.69350  0.89490  1.0000 -0.2172864516
C   C141      1.0  0.30650  0.20140  0.58550  1.0000 -0.2172864516
C   C142      1.0  0.61590  0.72100  0.41450  1.0000 -0.2172864516
C   C143      1.0  0.13410  0.04860  0.60510  1.0000 -0.2172864516
C   C144      1.0  0.44350  0.52900  0.39490  1.0000 -0.2172864516
C   C145      1.0  0.94310  0.48160  0.02450  1.0000 0.0840104437
C   C146      1.0  0.45710  0.91860  0.97550  1.0000 0.0840104437
C   C147      1.0  0.80690  0.33140  0.03850  1.0000 0.0840104437
C   C148      1.0  0.29290  0.76840  0.96150  1.0000 0.0840104437
C   C149      1.0  0.23160  0.19310  0.52450  1.0000 0.0840104437
C   C150      1.0  0.66860  0.70710  0.47550  1.0000 0.0840104437
C   C151      1.0  0.08140  0.05690  0.53850  1.0000 0.0840104437
C   C152      1.0  0.51840  0.54290  0.46150  1.0000 0.0840104437
C   C153      1.0  0.00690  0.70020  0.16850  1.0000 -0.2172864516
C   C154      1.0  0.53170  0.83840  0.83150  1.0000 -0.2172864516
C   C155      1.0  0.74310  0.41160  0.19330  1.0000 -0.2172864516
C   C156      1.0  0.21830  0.54980  0.80670  1.0000 -0.2172864516
C   C157      1.0  0.45020  0.25690  0.66850  1.0000 -0.2172864516
C   C158      1.0  0.58840  0.78170  0.33150  1.0000 -0.2172864516
C   C159      1.0  0.16160  0.99310  0.69330  1.0000 -0.2172864516
C   C160      1.0  0.29980  0.46830  0.30670  1.0000 -0.2172864516
C   C161      1.0  0.95480  0.24380  0.59780  1.0000 -0.1400700481
C   C162      1.0  0.64600  0.35700  0.40220  1.0000 -0.1400700481
C   C163      1.0  0.79520  0.89300  0.78900  1.0000 -0.1400700481
C   C164      1.0  0.10400  0.00620  0.21100  1.0000 -0.1400700481
C   C165      1.0  0.99380  0.20480  0.09780  1.0000 -0.1400700481
C   C166      1.0  0.10700  0.89600  0.90220  1.0000 -0.1400700481
C   C167      1.0  0.64300  0.04520  0.28900  1.0000 -0.1400700481
C   C168      1.0  0.75620  0.35400  0.71100  1.0000 -0.1400700481
C   C169      1.0  0.95720  0.17480  0.55020  1.0000 0.0613584658
C   C170      1.0  0.62460  0.40700  0.44980  1.0000 0.0613584658
C   C171      1.0  0.79280  0.84300  0.71760  1.0000 0.0613584658
C   C172      1.0  0.12540  0.07520  0.28240  1.0000 0.0613584658
C   C173      1.0  0.92480  0.20720  0.05020  1.0000 0.0613584658
C   C174      1.0  0.15700  0.87460  0.94980  1.0000 0.0613584658
C   C175      1.0  0.59300  0.04280  0.21760  1.0000 0.0613584658
C   C176      1.0  0.82520  0.37540  0.78240  1.0000 0.0613584658
N   N1        1.0  0.93920  0.93310  0.31370  1.0000 -0.2172864516
N   N2        1.0  0.61940  0.62550  0.68630  1.0000 -0.2172864516
N   N3        1.0  0.81080  0.62450  0.49390  1.0000 -0.2172864516
N   N4        1.0  0.13060  0.31690  0.50610  1.0000 -0.2172864516
N   N5        1.0  0.68310  0.18920  0.81370  1.0000 -0.2172864516
N   N6        1.0  0.37550  0.86940  0.18630  1.0000 -0.2172864516
N   N7        1.0  0.37450  0.06080  0.99390  1.0000 -0.2172864516
N   N8        1.0  0.06690  0.38060  0.00610  1.0000 -0.2172864516
N   N9        1.0  0.97110  0.46940  0.98110  1.0000 -0.2009063484
N   N10       1.0  0.48830  0.99000  0.01890  1.0000 -0.2009063484
N   N11       1.0  0.77890  0.26000  0.99830  1.0000 -0.2009063484
N   N12       1.0  0.26170  0.78060  0.00170  1.0000 -0.2009063484
N   N13       1.0  0.21940  0.22110  0.48110  1.0000 -0.2009063484
N   N14       1.0  0.74000  0.73830  0.51890  1.0000 -0.2009063484
N   N15       1.0  0.01000  0.02890  0.49830  1.0000 -0.2009063484
N   N16       1.0  0.53060  0.51170  0.50170  1.0000 -0.2009063484
N   N17       1.0  0.85180  0.03490  0.29470  1.0000 -0.2274528117
N   N18       1.0  0.74020  0.55710  0.70530  1.0000 -0.2274528117
N   N19       1.0  0.89820  0.69290  0.68310  1.0000 -0.2274528117
N   N20       1.0  0.00980  0.21510  0.31690  1.0000 -0.2274528117
N   N21       1.0  0.78490  0.10180  0.79470  1.0000 -0.2274528117
N   N22       1.0  0.30710  0.99020  0.20530  1.0000 -0.2274528117
N   N23       1.0  0.44290  0.14820  0.18310  1.0000 -0.2274528117
N   N24       1.0  0.96510  0.25980  0.81690  1.0000 -0.2274528117
N   N25       1.0  0.91930  0.12830  0.46560  1.0000 -0.2274528117
N   N26       1.0  0.66270  0.45370  0.53440  1.0000 -0.2274528117
N   N27       1.0  0.83070  0.79630  0.70900  1.0000 -0.2274528117
N   N28       1.0  0.08730  0.12170  0.29100  1.0000 -0.2274528117
N   N29       1.0  0.87830  0.16930  0.96560  1.0000 -0.2274528117
N   N30       1.0  0.20370  0.91270  0.03440  1.0000 -0.2274528117
N   N31       1.0  0.54630  0.08070  0.20900  1.0000 -0.2274528117
N   N32       1.0  0.87170  0.33730  0.79100  1.0000 -0.2274528117
Cl  Cl1       1.0  0.03975  0.12500  0.41475  1.0000 -0.6211206214
Cl  Cl2       1.0  0.71025  0.62500  0.58525  1.0000 -0.6211206214
Cl  Cl3       1.0  0.87500  0.28975  0.91475  1.0000 -0.6211206214
Cl  Cl4       1.0  0.37500  0.96025  0.08525  1.0000 -0.6211206214
F   F1        1.0  0.94690  0.43680  0.57190  1.0000 -0.4440392439
F   F2        1.0  0.86490  0.37500  0.42810  1.0000 -0.4440392439
F   F3        1.0  0.92850  0.50010  0.51020  1.0000 -0.4311210932
F   F4        1.0  0.98990  0.41830  0.48980  1.0000 -0.4311210932
F   F5        1.0  0.88510  0.81320  0.01010  1.0000 -0.4440392439
F   F6        1.0  0.80310  0.87500  0.98990  1.0000 -0.4440392439
F   F7        1.0  0.76010  0.74990  0.92840  1.0000 -0.4311210932
F   F8        1.0  0.82150  0.83170  0.07160  1.0000 -0.4311210932
F   F9        1.0  0.18680  0.19690  0.07190  1.0000 -0.4440392439
F   F10       1.0  0.12500  0.11490  0.92810  1.0000 -0.4440392439
F   F11       1.0  0.25010  0.17850  0.01020  1.0000 -0.4311210932
F   F12       1.0  0.16830  0.23990  0.98980  1.0000 -0.4311210932
F   F13       1.0  0.56320  0.13510  0.51010  1.0000 -0.4440392439
F   F14       1.0  0.62500  0.05310  0.48990  1.0000 -0.4440392439
F   F15       1.0  0.49990  0.01010  0.42840  1.0000 -0.4311210932
F   F16       1.0  0.58170  0.07150  0.57160  1.0000 -0.4311210932
F   F17       1.0  0.04060  0.41180  0.84740  1.0000 -0.4610281186
F   F18       1.0  0.95330  0.40960  0.73410  1.0000 -0.4440392439
F   F19       1.0  0.04450  0.52010  0.85300  1.0000 -0.449523312
F   F20       1.0  0.07540  0.43190  0.77330  1.0000 -0.4440392439
F   F21       1.0  0.56440  0.19320  0.15260  1.0000 -0.4610281186
F   F22       1.0  0.67550  0.21920  0.26590  1.0000 -0.4440392439
F   F23       1.0  0.66710  0.19150  0.14700  1.0000 -0.449523312
F   F24       1.0  0.65860  0.30210  0.22670  1.0000 -0.4440392439
F   F25       1.0  0.18560  0.83820  0.12880  1.0000 -0.4610281186
F   F26       1.0  0.07450  0.84040  0.04370  1.0000 -0.4440392439
F   F27       1.0  0.08290  0.72990  0.02440  1.0000 -0.449523312
F   F28       1.0  0.09140  0.81810  0.14350  1.0000 -0.4440392439
F   F29       1.0  0.70940  0.05680  0.87120  1.0000 -0.4610281186
F   F30       1.0  0.79670  0.03080  0.95630  1.0000 -0.4440392439
F   F31       1.0  0.70550  0.05850  0.97560  1.0000 -0.449523312
F   F32       1.0  0.67460  0.94790  0.85650  1.0000 -0.4440392439
F   F33       1.0  0.16180  0.29060  0.34740  1.0000 -0.4610281186
F   F34       1.0  0.15960  0.20330  0.23410  1.0000 -0.4440392439
F   F35       1.0  0.27010  0.29450  0.35300  1.0000 -0.449523312
F   F36       1.0  0.18190  0.32540  0.27330  1.0000 -0.4440392439
F   F37       1.0  0.94320  0.81440  0.65260  1.0000 -0.4610281186
F   F38       1.0  0.96920  0.92550  0.76590  1.0000 -0.4440392439
F   F39       1.0  0.94150  0.91710  0.64700  1.0000 -0.449523312
F   F40       1.0  0.05210  0.90860  0.72670  1.0000 -0.4440392439
F   F41       1.0  0.58820  0.43560  0.62880  1.0000 -0.4610281186
F   F42       1.0  0.59040  0.32450  0.54370  1.0000 -0.4440392439
F   F43       1.0  0.47990  0.33290  0.52440  1.0000 -0.449523312
F   F44       1.0  0.56810  0.34140  0.64350  1.0000 -0.4440392439
F   F45       1.0  0.80680  0.95940  0.37120  1.0000 -0.4610281186
F   F46       1.0  0.78080  0.04670  0.45630  1.0000 -0.4440392439
F   F47       1.0  0.80850  0.95550  0.47560  1.0000 -0.449523312
F   F48       1.0  0.69790  0.92460  0.35650  1.0000 -0.4440392439
