# DDEC6 charges by PACMAN v1.1 (https://github.com/mtap-research/PACMAN-charge/)
data_2001[Cu][cag]3[ION]1
_chemical_formula_sum              "Cu8 B8 H88 C136 N40 F32"
_cell_length_a       8.9646
_cell_length_b       22.8924
_cell_length_c       23.9497
_cell_angle_alpha    90
_cell_angle_beta     90
_cell_angle_gamma    90

_symmetry_space_group_name_H-M    "P 1"
_symmetry_Int_Tables_number       1

loop_
  _symmetry_equiv_pos_as_xyz
  'x, y, z'

loop_
  _atom_site_type_symbol
  _atom_site_label
  _atom_site_symmetry_multiplicity
  _atom_site_fract_x
  _atom_site_fract_y
  _atom_site_fract_z
  _atom_site_occupancy
  _atom_site_charge
Cu  Cu1       1.0  0.49722  0.72061  0.42177  1.0000 0.5272545097
Cu  Cu2       1.0  0.99722  0.72061  0.07823  1.0000 0.5272545097
Cu  Cu3       1.0  0.49722  0.77939  0.92177  1.0000 0.5272545097
Cu  Cu4       1.0  0.00278  0.22061  0.42177  1.0000 0.5272545097
Cu  Cu5       1.0  0.50278  0.27939  0.57823  1.0000 0.5272545097
Cu  Cu6       1.0  0.00278  0.27939  0.92177  1.0000 0.5272545097
Cu  Cu7       1.0  0.50278  0.22061  0.07823  1.0000 0.5234637933
Cu  Cu8       1.0  0.99722  0.77939  0.57823  1.0000 0.5234637933
B   B1        1.0  0.77610  0.11030  0.57980  1.0000 1.0293951367
B   B2        1.0  0.72390  0.88970  0.07980  1.0000 1.0293951367
B   B3        1.0  0.22390  0.61030  0.92020  1.0000 1.0293951367
B   B4        1.0  0.72390  0.61030  0.57980  1.0000 1.0293951367
B   B5        1.0  0.22390  0.88970  0.42020  1.0000 1.0356325584
B   B6        1.0  0.27610  0.11030  0.92020  1.0000 1.0293951367
B   B7        1.0  0.77610  0.38970  0.07980  1.0000 1.0293951367
B   B8        1.0  0.27610  0.38970  0.42020  1.0000 1.0293951367
H   H1        1.0  0.21780  0.78010  0.47990  1.0000 0.1189988457
H   H2        1.0  0.71780  0.78010  0.02010  1.0000 0.1189988457
H   H3        1.0  0.21780  0.71990  0.97990  1.0000 0.1189988457
H   H4        1.0  0.28220  0.28010  0.47990  1.0000 0.1189988457
H   H5        1.0  0.78220  0.21990  0.52010  1.0000 0.1189988457
H   H6        1.0  0.28220  0.21990  0.97990  1.0000 0.1189988457
H   H7        1.0  0.78220  0.28010  0.02010  1.0000 0.1189988457
H   H8        1.0  0.71780  0.71990  0.52010  1.0000 0.1189988457
H   H9        1.0  0.39650  0.63090  0.52260  1.0000 0.129643566
H   H10       1.0  0.89650  0.63090  0.97740  1.0000 0.129643566
H   H11       1.0  0.39650  0.86910  0.02260  1.0000 0.129643566
H   H12       1.0  0.10350  0.13090  0.52260  1.0000 0.129643566
H   H13       1.0  0.60350  0.36910  0.47740  1.0000 0.129643566
H   H14       1.0  0.10350  0.36910  0.02260  1.0000 0.129643566
H   H15       1.0  0.60350  0.13090  0.97740  1.0000 0.129643566
H   H16       1.0  0.89650  0.86910  0.47740  1.0000 0.129643566
H   H17       1.0  0.05250  0.64080  0.60210  1.0000 0.1189988457
H   H18       1.0  0.55250  0.64080  0.89790  1.0000 0.1189988457
H   H19       1.0  0.05250  0.85920  0.10210  1.0000 0.1189988457
H   H20       1.0  0.44750  0.14080  0.60210  1.0000 0.1189988457
H   H21       1.0  0.94750  0.35920  0.39790  1.0000 0.1189988457
H   H22       1.0  0.44750  0.35920  0.10210  1.0000 0.1189988457
H   H23       1.0  0.94750  0.14080  0.89790  1.0000 0.1189988457
H   H24       1.0  0.55250  0.85920  0.39790  1.0000 0.1189988457
H   H25       1.0  0.35470  0.72990  0.62800  1.0000 0.129643566
H   H26       1.0  0.85470  0.72990  0.87200  1.0000 0.129643566
H   H27       1.0  0.35470  0.77010  0.12800  1.0000 0.129643566
H   H28       1.0  0.14530  0.22990  0.62800  1.0000 0.129643566
H   H29       1.0  0.64530  0.27010  0.37200  1.0000 0.1189988457
H   H30       1.0  0.14530  0.27010  0.12800  1.0000 0.129643566
H   H31       1.0  0.64530  0.22990  0.87200  1.0000 0.1189988457
H   H32       1.0  0.85470  0.77010  0.37200  1.0000 0.129643566
H   H33       1.0  0.43050  0.76590  0.71510  1.0000 0.1189988457
H   H34       1.0  0.93050  0.76590  0.78490  1.0000 0.1189988457
H   H35       1.0  0.43050  0.73410  0.21510  1.0000 0.1189988457
H   H36       1.0  0.06950  0.26590  0.71510  1.0000 0.1189988457
H   H37       1.0  0.56950  0.23410  0.28490  1.0000 0.1189988457
H   H38       1.0  0.06950  0.23410  0.21510  1.0000 0.1189988457
H   H39       1.0  0.56950  0.26590  0.78490  1.0000 0.1189988457
H   H40       1.0  0.93050  0.73410  0.28490  1.0000 0.1189988457
H   H41       1.0  0.15530  0.65220  0.79270  1.0000 0.129643566
H   H42       1.0  0.65530  0.65220  0.70730  1.0000 0.129643566
H   H43       1.0  0.15530  0.84780  0.29270  1.0000 0.129643566
H   H44       1.0  0.34470  0.15220  0.79270  1.0000 0.129643566
H   H45       1.0  0.84470  0.34780  0.20730  1.0000 0.129643566
H   H46       1.0  0.34470  0.34780  0.29270  1.0000 0.129643566
H   H47       1.0  0.84470  0.15220  0.70730  1.0000 0.129643566
H   H48       1.0  0.65530  0.84780  0.20730  1.0000 0.129643566
H   H49       1.0  0.07780  0.61560  0.70630  1.0000 0.129643566
H   H50       1.0  0.57780  0.61560  0.79370  1.0000 0.129643566
H   H51       1.0  0.07780  0.88440  0.20630  1.0000 0.129643566
H   H52       1.0  0.42220  0.11560  0.70630  1.0000 0.129643566
H   H53       1.0  0.92220  0.38440  0.29370  1.0000 0.129643566
H   H54       1.0  0.42220  0.38440  0.20630  1.0000 0.129643566
H   H55       1.0  0.92220  0.11560  0.79370  1.0000 0.129643566
H   H56       1.0  0.57780  0.88440  0.29370  1.0000 0.129643566
H   H57       1.0  0.40490  0.58660  0.64440  1.0000 0.1189988457
H   H58       1.0  0.90490  0.58660  0.85560  1.0000 0.1189988457
H   H59       1.0  0.40490  0.91340  0.14440  1.0000 0.1189988457
H   H60       1.0  0.09510  0.08660  0.64440  1.0000 0.1189988457
H   H61       1.0  0.59510  0.41340  0.35560  1.0000 0.1189988457
H   H62       1.0  0.09510  0.41340  0.14440  1.0000 0.1189988457
H   H63       1.0  0.59510  0.08660  0.85560  1.0000 0.1189988457
H   H64       1.0  0.90490  0.91340  0.35560  1.0000 0.1189988457
H   H65       1.0  0.48390  0.48930  0.63490  1.0000 0.129643566
H   H66       1.0  0.98390  0.48930  0.86510  1.0000 0.129643566
H   H67       1.0  0.48390  0.01070  0.13490  1.0000 0.129643566
H   H68       1.0  0.01610  0.98930  0.63490  1.0000 0.129643566
H   H69       1.0  0.51610  0.51070  0.36510  1.0000 0.129643566
H   H70       1.0  0.01610  0.51070  0.13490  1.0000 0.129643566
H   H71       1.0  0.51610  0.98930  0.86510  1.0000 0.129643566
H   H72       1.0  0.98390  0.01070  0.36510  1.0000 0.129643566
H   H73       1.0  0.12240  0.45300  0.54220  1.0000 0.129643566
H   H74       1.0  0.62240  0.45300  0.95780  1.0000 0.129643566
H   H75       1.0  0.12240  0.04700  0.04220  1.0000 0.129643566
H   H76       1.0  0.37760  0.95300  0.54220  1.0000 0.129643566
H   H77       1.0  0.87760  0.54700  0.45780  1.0000 0.129643566
H   H78       1.0  0.37760  0.54700  0.04220  1.0000 0.129643566
H   H79       1.0  0.87760  0.95300  0.95780  1.0000 0.129643566
H   H80       1.0  0.62240  0.04700  0.45780  1.0000 0.129643566
H   H81       1.0  0.04060  0.55040  0.55140  1.0000 0.129643566
H   H82       1.0  0.54060  0.55040  0.94860  1.0000 0.129643566
H   H83       1.0  0.04060  0.94960  0.05140  1.0000 0.129643566
H   H84       1.0  0.45940  0.05040  0.55140  1.0000 0.129643566
H   H85       1.0  0.95940  0.44960  0.44860  1.0000 0.129643566
H   H86       1.0  0.45940  0.44960  0.05140  1.0000 0.129643566
H   H87       1.0  0.95940  0.05040  0.94860  1.0000 0.129643566
H   H88       1.0  0.54060  0.94960  0.44860  1.0000 0.129643566
C   C1        1.0  0.23580  0.74440  0.49900  1.0000 0.1589394326
C   C2        1.0  0.73580  0.74440  0.00100  1.0000 0.1589394326
C   C3        1.0  0.23580  0.75560  0.99900  1.0000 0.1589394326
C   C4        1.0  0.26420  0.24440  0.49900  1.0000 0.1589394326
C   C5        1.0  0.76420  0.25560  0.50100  1.0000 0.1589394326
C   C6        1.0  0.26420  0.25560  0.99900  1.0000 0.1589394326
C   C7        1.0  0.76420  0.24440  0.00100  1.0000 0.1589394326
C   C8        1.0  0.73580  0.75560  0.50100  1.0000 0.1589394326
C   C9        1.0  0.33370  0.66430  0.52100  1.0000 0.1189988457
C   C10       1.0  0.83370  0.66430  0.97900  1.0000 0.1189988457
C   C11       1.0  0.33370  0.83570  0.02100  1.0000 0.1189988457
C   C12       1.0  0.16630  0.16430  0.52100  1.0000 0.1189988457
C   C13       1.0  0.66630  0.33570  0.47900  1.0000 0.1189988457
C   C14       1.0  0.16630  0.33570  0.02100  1.0000 0.1189988457
C   C15       1.0  0.66630  0.16430  0.97900  1.0000 0.1189988457
C   C16       1.0  0.83370  0.83570  0.47900  1.0000 0.1189988457
C   C17       1.0  0.16400  0.64060  0.60360  1.0000 -0.0373254565
C   C18       1.0  0.66400  0.64060  0.89640  1.0000 -0.0373254565
C   C19       1.0  0.16400  0.85940  0.10360  1.0000 -0.0373254565
C   C20       1.0  0.33600  0.14060  0.60360  1.0000 -0.0373254565
C   C21       1.0  0.83600  0.35940  0.39640  1.0000 -0.0373254565
C   C22       1.0  0.33600  0.35940  0.10360  1.0000 -0.0373254565
C   C23       1.0  0.83600  0.14060  0.89640  1.0000 -0.0373254565
C   C24       1.0  0.66400  0.85940  0.39640  1.0000 -0.0373254565
C   C25       1.0  0.21180  0.66950  0.65890  1.0000 0.0858990515
C   C26       1.0  0.71180  0.66950  0.84110  1.0000 0.0858990515
C   C27       1.0  0.21180  0.83050  0.15890  1.0000 0.0858990515
C   C28       1.0  0.28820  0.16950  0.65890  1.0000 0.0858990515
C   C29       1.0  0.78820  0.33050  0.34110  1.0000 0.0858990515
C   C30       1.0  0.28820  0.33050  0.15890  1.0000 0.0858990515
C   C31       1.0  0.78820  0.16950  0.84110  1.0000 0.0858990515
C   C32       1.0  0.71180  0.83050  0.34110  1.0000 0.0858990515
C   C33       1.0  0.31450  0.71390  0.66140  1.0000 -0.1514150125
C   C34       1.0  0.81450  0.71390  0.83860  1.0000 -0.1514150125
C   C35       1.0  0.31450  0.78610  0.16140  1.0000 -0.1514150125
C   C36       1.0  0.18550  0.21390  0.66140  1.0000 -0.1514150125
C   C37       1.0  0.68550  0.28610  0.33860  1.0000 -0.1514150125
C   C38       1.0  0.18550  0.28610  0.16140  1.0000 -0.1514150125
C   C39       1.0  0.68550  0.21390  0.83860  1.0000 -0.1514150125
C   C40       1.0  0.81450  0.78610  0.33860  1.0000 -0.1514150125
C   C41       1.0  0.35900  0.73530  0.71310  1.0000 -0.110463185
C   C42       1.0  0.85900  0.73530  0.78690  1.0000 -0.110463185
C   C43       1.0  0.35900  0.76470  0.21310  1.0000 -0.110463185
C   C44       1.0  0.14100  0.23530  0.71310  1.0000 -0.110463185
C   C45       1.0  0.64100  0.26470  0.28690  1.0000 -0.110463185
C   C46       1.0  0.14100  0.26470  0.21310  1.0000 -0.110463185
C   C47       1.0  0.64100  0.23530  0.78690  1.0000 -0.110463185
C   C48       1.0  0.85900  0.76470  0.28690  1.0000 -0.110463185
C   C49       1.0  0.29960  0.71230  0.76140  1.0000 0.0316383501
C   C50       1.0  0.79960  0.71230  0.73860  1.0000 0.0316383501
C   C51       1.0  0.29960  0.78770  0.26140  1.0000 0.0316383501
C   C52       1.0  0.20040  0.21230  0.76140  1.0000 0.0316383501
C   C53       1.0  0.70040  0.28770  0.23860  1.0000 0.0316383501
C   C54       1.0  0.20040  0.28770  0.26140  1.0000 0.0316383501
C   C55       1.0  0.70040  0.21230  0.73860  1.0000 0.0316383501
C   C56       1.0  0.79960  0.78770  0.23860  1.0000 0.0316383501
C   C57       1.0  0.19550  0.66780  0.75920  1.0000 -0.110463185
C   C58       1.0  0.69550  0.66780  0.74080  1.0000 -0.110463185
C   C59       1.0  0.19550  0.83220  0.25920  1.0000 -0.110463185
C   C60       1.0  0.30450  0.16780  0.75920  1.0000 -0.110463185
C   C61       1.0  0.80450  0.33220  0.24080  1.0000 -0.110463185
C   C62       1.0  0.30450  0.33220  0.25920  1.0000 -0.110463185
C   C63       1.0  0.80450  0.16780  0.74080  1.0000 -0.110463185
C   C64       1.0  0.69550  0.83220  0.24080  1.0000 -0.110463185
C   C65       1.0  0.14980  0.64600  0.70820  1.0000 -0.1366466421
C   C66       1.0  0.64980  0.64600  0.79180  1.0000 -0.1366466421
C   C67       1.0  0.14980  0.85400  0.20820  1.0000 -0.1366466421
C   C68       1.0  0.35020  0.14600  0.70820  1.0000 -0.1366466421
C   C69       1.0  0.85020  0.35400  0.29180  1.0000 -0.1366466421
C   C70       1.0  0.35020  0.35400  0.20820  1.0000 -0.1366466421
C   C71       1.0  0.85020  0.14600  0.79180  1.0000 -0.1366466421
C   C72       1.0  0.64980  0.85400  0.29180  1.0000 -0.1366466421
C   C73       1.0  0.21550  0.57760  0.59930  1.0000 0.0674256163
C   C74       1.0  0.71550  0.57760  0.90070  1.0000 0.0674256163
C   C75       1.0  0.21550  0.92240  0.09930  1.0000 0.0674256163
C   C76       1.0  0.28450  0.07760  0.59930  1.0000 0.0674256163
C   C77       1.0  0.78450  0.42240  0.40070  1.0000 0.0674256163
C   C78       1.0  0.28450  0.42240  0.09930  1.0000 0.0674256163
C   C79       1.0  0.78450  0.07760  0.90070  1.0000 0.0674256163
C   C80       1.0  0.71550  0.92240  0.40070  1.0000 0.0674256163
C   C81       1.0  0.34640  0.55970  0.62370  1.0000 -0.1366466421
C   C82       1.0  0.84640  0.55970  0.87630  1.0000 -0.1366466421
C   C83       1.0  0.34640  0.94030  0.12370  1.0000 -0.1366466421
C   C84       1.0  0.15360  0.05970  0.62370  1.0000 -0.1366466421
C   C85       1.0  0.65360  0.44030  0.37630  1.0000 -0.1366466421
C   C86       1.0  0.15360  0.44030  0.12370  1.0000 -0.1366466421
C   C87       1.0  0.65360  0.05970  0.87630  1.0000 -0.1366466421
C   C88       1.0  0.84640  0.94030  0.37630  1.0000 -0.1366466421
C   C89       1.0  0.39350  0.50190  0.61810  1.0000 -0.1035180015
C   C90       1.0  0.89350  0.50190  0.88190  1.0000 -0.1035180015
C   C91       1.0  0.39350  0.99810  0.11810  1.0000 -0.1035180015
C   C92       1.0  0.10650  0.00190  0.61810  1.0000 -0.1035180015
C   C93       1.0  0.60650  0.49810  0.38190  1.0000 -0.1035180015
C   C94       1.0  0.10650  0.49810  0.11810  1.0000 -0.1035180015
C   C95       1.0  0.60650  0.00190  0.88190  1.0000 -0.1035180015
C   C96       1.0  0.89350  0.99810  0.38190  1.0000 -0.1035180015
C   C97       1.0  0.30810  0.46350  0.58800  1.0000 0.0387440494
C   C98       1.0  0.80810  0.46350  0.91200  1.0000 0.0387440494
C   C99       1.0  0.30810  0.03650  0.08800  1.0000 0.0387440494
C   C100      1.0  0.19190  0.96350  0.58800  1.0000 0.0387440494
C   C101      1.0  0.69190  0.53650  0.41200  1.0000 0.0387440494
C   C102      1.0  0.19190  0.53650  0.08800  1.0000 0.0387440494
C   C103      1.0  0.69190  0.96350  0.91200  1.0000 0.0387440494
C   C104      1.0  0.80810  0.03650  0.41200  1.0000 0.0387440494
C   C105      1.0  0.17940  0.48020  0.56320  1.0000 -0.0910496895
C   C106      1.0  0.67940  0.48020  0.93680  1.0000 -0.0910496895
C   C107      1.0  0.17940  0.01980  0.06320  1.0000 -0.0910496895
C   C108      1.0  0.32060  0.98020  0.56320  1.0000 -0.0910496895
C   C109      1.0  0.82060  0.51980  0.43680  1.0000 -0.0910496895
C   C110      1.0  0.32060  0.51980  0.06320  1.0000 -0.0910496895
C   C111      1.0  0.82060  0.98020  0.93680  1.0000 -0.0910496895
C   C112      1.0  0.67940  0.01980  0.43680  1.0000 -0.0910496895
C   C113      1.0  0.13080  0.53820  0.56860  1.0000 -0.1343486996
C   C114      1.0  0.63080  0.53820  0.93140  1.0000 -0.1343486996
C   C115      1.0  0.13080  0.96180  0.06860  1.0000 -0.1343486996
C   C116      1.0  0.36920  0.03820  0.56860  1.0000 -0.1343486996
C   C117      1.0  0.86920  0.46180  0.43140  1.0000 -0.1343486996
C   C118      1.0  0.36920  0.46180  0.06860  1.0000 -0.1343486996
C   C119      1.0  0.86920  0.03820  0.93140  1.0000 -0.1343486996
C   C120      1.0  0.63080  0.96180  0.43140  1.0000 -0.1343486996
C   C121      1.0  0.35420  0.73360  0.81420  1.0000 0.3096181032
C   C122      1.0  0.85420  0.73360  0.68580  1.0000 0.3096181032
C   C123      1.0  0.35420  0.76640  0.31420  1.0000 0.3096181032
C   C124      1.0  0.14580  0.23360  0.81420  1.0000 0.3096181032
C   C125      1.0  0.64580  0.26640  0.18580  1.0000 0.3096181032
C   C126      1.0  0.14580  0.26640  0.31420  1.0000 0.3096181032
C   C127      1.0  0.64580  0.23360  0.68580  1.0000 0.3096181032
C   C128      1.0  0.85420  0.76640  0.18580  1.0000 0.3049942928
C   C129      1.0  0.35760  0.40290  0.58440  1.0000 0.3096181032
C   C130      1.0  0.85760  0.40290  0.91560  1.0000 0.3096181032
C   C131      1.0  0.35760  0.09710  0.08440  1.0000 0.3096181032
C   C132      1.0  0.14240  0.90290  0.58440  1.0000 0.3096181032
C   C133      1.0  0.64240  0.59710  0.41560  1.0000 0.3096181032
C   C134      1.0  0.14240  0.59710  0.08440  1.0000 0.3096181032
C   C135      1.0  0.64240  0.90290  0.91560  1.0000 0.3096181032
C   C136      1.0  0.85760  0.09710  0.41560  1.0000 0.3096181032
N   N1        1.0  0.15530  0.72717  0.54161  1.0000 -0.2277851139
N   N2        1.0  0.65530  0.72717  0.95839  1.0000 -0.2277851139
N   N3        1.0  0.15530  0.77283  0.04161  1.0000 -0.2277851139
N   N4        1.0  0.34470  0.22717  0.54161  1.0000 -0.2277851139
N   N5        1.0  0.84470  0.27283  0.45839  1.0000 -0.2277851139
N   N6        1.0  0.34470  0.27283  0.04161  1.0000 -0.2277851139
N   N7        1.0  0.84470  0.22717  0.95839  1.0000 -0.2277851139
N   N8        1.0  0.65530  0.77283  0.45839  1.0000 -0.2277851139
N   N9        1.0  0.34670  0.70720  0.48444  1.0000 -0.2962429446
N   N10       1.0  0.84670  0.70720  0.01556  1.0000 -0.2962429446
N   N11       1.0  0.34670  0.79280  0.98444  1.0000 -0.2962429446
N   N12       1.0  0.15330  0.20720  0.48444  1.0000 -0.2962429446
N   N13       1.0  0.65330  0.29280  0.51556  1.0000 -0.2962429446
N   N14       1.0  0.15330  0.29280  0.98444  1.0000 -0.2962429446
N   N15       1.0  0.65330  0.20720  0.01556  1.0000 -0.2962429446
N   N16       1.0  0.84670  0.79280  0.51556  1.0000 -0.2962429446
N   N17       1.0  0.21930  0.67459  0.55536  1.0000 0.129643566
N   N18       1.0  0.71930  0.67459  0.94464  1.0000 0.129643566
N   N19       1.0  0.21930  0.82541  0.05536  1.0000 0.129643566
N   N20       1.0  0.28070  0.17459  0.55536  1.0000 0.129643566
N   N21       1.0  0.78070  0.32541  0.44464  1.0000 0.129643566
N   N22       1.0  0.28070  0.32541  0.05536  1.0000 0.129643566
N   N23       1.0  0.78070  0.17459  0.94464  1.0000 0.129643566
N   N24       1.0  0.71930  0.82541  0.44464  1.0000 0.129643566
N   N25       1.0  0.40270  0.75080  0.85520  1.0000 -0.3836625663
N   N26       1.0  0.90270  0.75080  0.64480  1.0000 -0.3836625663
N   N27       1.0  0.40270  0.74920  0.35520  1.0000 -0.3836625663
N   N28       1.0  0.09730  0.25080  0.85520  1.0000 -0.3836625663
N   N29       1.0  0.59730  0.24920  0.14480  1.0000 -0.3836625663
N   N30       1.0  0.09730  0.24920  0.35520  1.0000 -0.3836625663
N   N31       1.0  0.59730  0.25080  0.64480  1.0000 -0.3836625663
N   N32       1.0  0.90270  0.74920  0.14480  1.0000 -0.3836625663
N   N33       1.0  0.40050  0.35640  0.58360  1.0000 -0.3927247968
N   N34       1.0  0.90050  0.35640  0.91640  1.0000 -0.3927247968
N   N35       1.0  0.40050  0.14360  0.08360  1.0000 -0.3927247968
N   N36       1.0  0.09950  0.85640  0.58360  1.0000 -0.3927247968
N   N37       1.0  0.59950  0.64360  0.41640  1.0000 -0.3927247968
N   N38       1.0  0.09950  0.64360  0.08360  1.0000 -0.3927247968
N   N39       1.0  0.59950  0.85640  0.91640  1.0000 -0.3927247968
N   N40       1.0  0.90050  0.14360  0.41640  1.0000 -0.3927247968
F   F1        1.0  0.66210  0.12930  0.54385  1.0000 -0.4705985484
F   F2        1.0  0.87120  0.15410  0.59263  1.0000 -0.4705985484
F   F3        1.0  0.84720  0.06490  0.55470  1.0000 -0.4631803704
F   F4        1.0  0.70250  0.09340  0.62910  1.0000 -0.4705985484
F   F5        1.0  0.83790  0.87070  0.04385  1.0000 -0.4705985484
F   F6        1.0  0.62880  0.84590  0.09263  1.0000 -0.4705985484
F   F7        1.0  0.65280  0.93510  0.05470  1.0000 -0.4631803704
F   F8        1.0  0.79750  0.90660  0.12910  1.0000 -0.4705985484
F   F9        1.0  0.33790  0.62930  0.95615  1.0000 -0.4705985484
F   F10       1.0  0.12880  0.65410  0.90737  1.0000 -0.4705985484
F   F11       1.0  0.15280  0.56490  0.94530  1.0000 -0.4631803704
F   F12       1.0  0.29750  0.59340  0.87090  1.0000 -0.4705985484
F   F13       1.0  0.83790  0.62930  0.54385  1.0000 -0.4705985484
F   F14       1.0  0.62880  0.65410  0.59263  1.0000 -0.4705985484
F   F15       1.0  0.65280  0.56490  0.55470  1.0000 -0.4631803704
F   F16       1.0  0.79750  0.59340  0.62910  1.0000 -0.4705985484
F   F17       1.0  0.33790  0.87070  0.45615  1.0000 -0.4705985484
F   F18       1.0  0.12880  0.84590  0.40737  1.0000 -0.4705985484
F   F19       1.0  0.15280  0.93510  0.44530  1.0000 -0.4631803704
F   F20       1.0  0.29750  0.90660  0.37090  1.0000 -0.4705985484
F   F21       1.0  0.16210  0.12930  0.95615  1.0000 -0.4705985484
F   F22       1.0  0.37120  0.15410  0.90737  1.0000 -0.4705985484
F   F23       1.0  0.34720  0.06490  0.94530  1.0000 -0.4631803704
F   F24       1.0  0.20250  0.09340  0.87090  1.0000 -0.4705985484
F   F25       1.0  0.66210  0.37070  0.04385  1.0000 -0.4705985484
F   F26       1.0  0.87120  0.34590  0.09263  1.0000 -0.4705985484
F   F27       1.0  0.84720  0.43510  0.05470  1.0000 -0.4631803704
F   F28       1.0  0.70250  0.40660  0.12910  1.0000 -0.4705985484
F   F29       1.0  0.16210  0.37070  0.45615  1.0000 -0.4705985484
F   F30       1.0  0.37120  0.34590  0.40737  1.0000 -0.4705985484
F   F31       1.0  0.34720  0.43510  0.44530  1.0000 -0.4631803704
F   F32       1.0  0.20250  0.40660  0.37090  1.0000 -0.4705985484
