# DDEC6 charges by PACMAN v1.1 (https://github.com/mtap-research/PACMAN-charge/)
data_2002[CdZr][qtz]3[ION]1
_chemical_formula_sum              "Zr3 Cd3 H24 C24 N6 O48"
_cell_length_a       9.061
_cell_length_b       9.061
_cell_length_c       23.394
_cell_angle_alpha    90
_cell_angle_beta     90
_cell_angle_gamma    120

_symmetry_space_group_name_H-M    "P 1"
_symmetry_Int_Tables_number       1

loop_
  _symmetry_equiv_pos_as_xyz
  'x, y, z'

loop_
  _atom_site_type_symbol
  _atom_site_label
  _atom_site_symmetry_multiplicity
  _atom_site_fract_x
  _atom_site_fract_y
  _atom_site_fract_z
  _atom_site_occupancy
  _atom_site_charge
Zr  Zr1       1.0  0.50000  0.00000  0.50000  1.0000 2.1182955448
Zr  Zr2       1.0  0.00000  0.50000  0.83333  1.0000 2.1182955448
Zr  Zr3       1.0  0.50000  0.50000  0.16667  1.0000 2.1182955448
Cd  Cd1       1.0  0.00000  0.50000  0.33333  1.0000 1.0097753152
Cd  Cd2       1.0  0.50000  0.50000  0.66667  1.0000 1.0097753152
Cd  Cd3       1.0  0.50000  0.00000  0.00000  1.0000 1.0097753152
H   H1        1.0  0.02100  0.92100  0.02437  1.0000 0.3180307405
H   H2        1.0  0.97900  0.07900  0.02437  1.0000 0.3180307405
H   H3        1.0  0.10000  0.07900  0.97563  1.0000 0.3180307405
H   H4        1.0  0.90000  0.92100  0.97563  1.0000 0.3180307405
H   H5        1.0  0.90000  0.97900  0.69103  1.0000 0.3180307405
H   H6        1.0  0.10000  0.02100  0.69103  1.0000 0.3180307405
H   H7        1.0  0.97900  0.90000  0.64230  1.0000 0.3180307405
H   H8        1.0  0.02100  0.10000  0.64230  1.0000 0.3180307405
H   H9        1.0  0.07900  0.10000  0.35770  1.0000 0.3180307405
H   H10       1.0  0.92100  0.90000  0.35770  1.0000 0.3180307405
H   H11       1.0  0.92100  0.02100  0.30897  1.0000 0.3180307405
H   H12       1.0  0.07900  0.97900  0.30897  1.0000 0.3180307405
H   H13       1.0  0.02580  0.10020  0.14227  1.0000 0.3180307405
H   H14       1.0  0.97420  0.89980  0.14227  1.0000 0.3180307405
H   H15       1.0  0.10020  0.02580  0.19107  1.0000 0.3180307405
H   H16       1.0  0.89980  0.97420  0.19107  1.0000 0.3180307405
H   H17       1.0  0.07440  0.97420  0.80893  1.0000 0.3180307405
H   H18       1.0  0.92560  0.02580  0.80893  1.0000 0.3180307405
H   H19       1.0  0.92560  0.89980  0.85773  1.0000 0.3180307405
H   H20       1.0  0.07440  0.10020  0.85773  1.0000 0.3180307405
H   H21       1.0  0.89980  0.92560  0.47560  1.0000 0.3180307405
H   H22       1.0  0.10020  0.07440  0.47560  1.0000 0.3180307405
H   H23       1.0  0.97420  0.07440  0.52440  1.0000 0.3180307405
H   H24       1.0  0.02580  0.92560  0.52440  1.0000 0.3180307405
C   C1        1.0  0.79160  0.21090  0.41857  1.0000 0.4644896432
C   C2        1.0  0.78910  0.58070  0.75190  1.0000 0.4644896432
C   C3        1.0  0.41930  0.20840  0.08524  1.0000 0.4644896432
C   C4        1.0  0.20840  0.78910  0.41857  1.0000 0.4644896432
C   C5        1.0  0.21090  0.41930  0.75190  1.0000 0.4644896432
C   C6        1.0  0.58070  0.79160  0.08524  1.0000 0.4644896432
C   C7        1.0  0.21090  0.79160  0.91476  1.0000 0.4644896432
C   C8        1.0  0.58070  0.78910  0.58143  1.0000 0.4644896432
C   C9        1.0  0.20840  0.41930  0.24810  1.0000 0.4644896432
C   C10       1.0  0.78910  0.20840  0.91476  1.0000 0.4644896432
C   C11       1.0  0.41930  0.21090  0.58143  1.0000 0.4644896432
C   C12       1.0  0.79160  0.58070  0.24810  1.0000 0.4644896432
C   C13       1.0  0.68540  0.30110  0.41763  1.0000 0.490262175
C   C14       1.0  0.69890  0.38430  0.75096  1.0000 0.490262175
C   C15       1.0  0.61570  0.31460  0.08430  1.0000 0.490262175
C   C16       1.0  0.31460  0.69890  0.41763  1.0000 0.490262175
C   C17       1.0  0.30110  0.61570  0.75096  1.0000 0.490262175
C   C18       1.0  0.38430  0.68540  0.08430  1.0000 0.490262175
C   C19       1.0  0.30110  0.68540  0.91570  1.0000 0.490262175
C   C20       1.0  0.38430  0.69890  0.58237  1.0000 0.490262175
C   C21       1.0  0.31460  0.61570  0.24904  1.0000 0.490262175
C   C22       1.0  0.69890  0.31460  0.91570  1.0000 0.490262175
C   C23       1.0  0.61570  0.30110  0.58237  1.0000 0.490262175
C   C24       1.0  0.68540  0.38430  0.24904  1.0000 0.490262175
N   N1        1.0  0.00000  0.00000  0.00000  1.0000 -0.768555607
N   N2        1.0  0.00000  0.00000  0.66667  1.0000 -0.768555607
N   N3        1.0  0.00000  0.00000  0.33333  1.0000 -0.768555607
N   N4        1.0  0.00000  0.00000  0.16667  1.0000 -0.744637018
N   N5        1.0  0.00000  0.00000  0.83333  1.0000 -0.744637018
N   N6        1.0  0.00000  0.00000  0.50000  1.0000 -0.744637018
O   O1        1.0  0.91990  0.26290  0.38899  1.0000 -0.4246366496
O   O2        1.0  0.73710  0.65700  0.72232  1.0000 -0.4246366496
O   O3        1.0  0.34300  0.08010  0.05566  1.0000 -0.4246366496
O   O4        1.0  0.08010  0.73710  0.38899  1.0000 -0.4246366496
O   O5        1.0  0.26290  0.34300  0.72232  1.0000 -0.4246366496
O   O6        1.0  0.65700  0.91990  0.05566  1.0000 -0.4254065509
O   O7        1.0  0.26290  0.91990  0.94434  1.0000 -0.4254065509
O   O8        1.0  0.65700  0.73710  0.61101  1.0000 -0.4246366496
O   O9        1.0  0.08010  0.34300  0.27768  1.0000 -0.4246366496
O   O10       1.0  0.73710  0.08010  0.94434  1.0000 -0.4246366496
O   O11       1.0  0.34300  0.26290  0.61101  1.0000 -0.4246366496
O   O12       1.0  0.91990  0.65700  0.27768  1.0000 -0.4246366496
O   O13       1.0  0.73440  0.08320  0.45216  1.0000 -0.5500983055
O   O14       1.0  0.91680  0.65120  0.78549  1.0000 -0.5500983055
O   O15       1.0  0.34880  0.26560  0.11883  1.0000 -0.5500983055
O   O16       1.0  0.26560  0.91680  0.45216  1.0000 -0.5500983055
O   O17       1.0  0.08320  0.34880  0.78549  1.0000 -0.5500983055
O   O18       1.0  0.65120  0.73440  0.11883  1.0000 -0.5500983055
O   O19       1.0  0.08320  0.73440  0.88117  1.0000 -0.5500983055
O   O20       1.0  0.65120  0.91680  0.54784  1.0000 -0.5500983055
O   O21       1.0  0.26560  0.34880  0.21451  1.0000 -0.5500983055
O   O22       1.0  0.91680  0.26560  0.88117  1.0000 -0.5500983055
O   O23       1.0  0.34880  0.08320  0.54784  1.0000 -0.5500983055
O   O24       1.0  0.73440  0.65120  0.21451  1.0000 -0.5500983055
O   O25       1.0  0.54610  0.22090  0.44576  1.0000 -0.5692441121
O   O26       1.0  0.77910  0.32520  0.77909  1.0000 -0.5692441121
O   O27       1.0  0.67480  0.45390  0.11243  1.0000 -0.5692441121
O   O28       1.0  0.45390  0.77910  0.44576  1.0000 -0.5692441121
O   O29       1.0  0.22090  0.67480  0.77909  1.0000 -0.5692441121
O   O30       1.0  0.32520  0.54610  0.11243  1.0000 -0.5692441121
O   O31       1.0  0.22090  0.54610  0.88757  1.0000 -0.5692441121
O   O32       1.0  0.32520  0.77910  0.55424  1.0000 -0.5692441121
O   O33       1.0  0.45390  0.67480  0.22091  1.0000 -0.5692441121
O   O34       1.0  0.77910  0.45390  0.88757  1.0000 -0.5692441121
O   O35       1.0  0.67480  0.22090  0.55424  1.0000 -0.5692441121
O   O36       1.0  0.54610  0.32520  0.22091  1.0000 -0.5692441121
O   O37       1.0  0.73880  0.43540  0.39134  1.0000 -0.4504254739
O   O38       1.0  0.56460  0.30340  0.72467  1.0000 -0.4504254739
O   O39       1.0  0.69660  0.26120  0.05801  1.0000 -0.4504254739
O   O40       1.0  0.26120  0.56460  0.39134  1.0000 -0.4504254739
O   O41       1.0  0.43540  0.69660  0.72467  1.0000 -0.4504254739
O   O42       1.0  0.30340  0.73880  0.05801  1.0000 -0.4504254739
O   O43       1.0  0.43540  0.73880  0.94199  1.0000 -0.4504254739
O   O44       1.0  0.30340  0.56460  0.60866  1.0000 -0.4504254739
O   O45       1.0  0.26120  0.69660  0.27533  1.0000 -0.4504254739
O   O46       1.0  0.56460  0.26120  0.94199  1.0000 -0.4504254739
O   O47       1.0  0.69660  0.43540  0.60866  1.0000 -0.4504254739
O   O48       1.0  0.73880  0.30340  0.27533  1.0000 -0.4504254739
