# DDEC6 charges by PACMAN v1.1 (https://github.com/mtap-research/PACMAN-charge/)
data_2002[Ga][nan]3[ION]1
_chemical_formula_sum              "Ga24 P24 H84 C24 N16 O96 F16"
_cell_length_a       17.9491
_cell_length_b       16.9797
_cell_length_c       10.3636
_cell_angle_alpha    90
_cell_angle_beta     90
_cell_angle_gamma    90

_symmetry_space_group_name_H-M    "P 1"
_symmetry_Int_Tables_number       1

loop_
  _symmetry_equiv_pos_as_xyz
  'x, y, z'

loop_
  _atom_site_type_symbol
  _atom_site_label
  _atom_site_symmetry_multiplicity
  _atom_site_fract_x
  _atom_site_fract_y
  _atom_site_fract_z
  _atom_site_occupancy
  _atom_site_charge
Ga  Ga1       1.0  0.20366  0.24445  0.09026  1.0000 1.5133280366
Ga  Ga2       1.0  0.40061  0.19905  0.11577  1.0000 1.5610188901
Ga  Ga3       1.0  0.22050  0.42171  0.90823  1.0000 1.5784344541
Ga  Ga4       1.0  0.30136  0.25807  0.59510  1.0000 1.530621311
Ga  Ga5       1.0  0.10089  0.30286  0.61400  1.0000 1.5610188901
Ga  Ga6       1.0  0.28106  0.08030  0.40693  1.0000 1.5784344541
Ga  Ga7       1.0  0.80043  0.24436  0.40762  1.0000 1.5215727299
Ga  Ga8       1.0  0.59875  0.19859  0.38517  1.0000 1.5610188901
Ga  Ga9       1.0  0.78171  0.41816  0.59060  1.0000 1.5784344541
Ga  Ga10      1.0  0.70169  0.25549  0.91327  1.0000 1.5215727299
Ga  Ga11      1.0  0.90192  0.30094  0.88877  1.0000 1.5610188901
Ga  Ga12      1.0  0.72037  0.07935  0.09200  1.0000 1.590221704
Ga  Ga13      1.0  0.80033  0.75649  0.91003  1.0000 1.530621311
Ga  Ga14      1.0  0.59836  0.80177  0.88772  1.0000 1.5610188901
Ga  Ga15      1.0  0.78104  0.58097  0.09185  1.0000 1.5784344541
Ga  Ga16      1.0  0.70029  0.74433  0.40899  1.0000 1.5215727299
Ga  Ga17      1.0  0.90035  0.69835  0.38588  1.0000 1.5610188901
Ga  Ga18      1.0  0.71797  0.92019  0.59006  1.0000 1.5784344541
Ga  Ga19      1.0  0.19991  0.75755  0.59227  1.0000 1.5215727299
Ga  Ga20      1.0  0.39857  0.80225  0.61535  1.0000 1.5610188901
Ga  Ga21      1.0  0.21935  0.57933  0.40697  1.0000 1.5784344541
Ga  Ga22      1.0  0.29841  0.74392  0.09302  1.0000 1.5133280366
Ga  Ga23      1.0  0.09998  0.69855  0.11791  1.0000 1.5610188901
Ga  Ga24      1.0  0.27978  0.92050  0.90721  1.0000 1.5784344541
P   P1        1.0  0.32949  0.28535  0.89077  1.0000 1.536904458
P   P2        1.0  0.27096  0.07190  0.10342  1.0000 1.6008345246
P   P3        1.0  0.07695  0.30892  0.90337  1.0000 1.6008345246
P   P4        1.0  0.17719  0.22155  0.38642  1.0000 1.536904458
P   P5        1.0  0.22989  0.42996  0.60657  1.0000 1.590221704
P   P6        1.0  0.42508  0.19161  0.40500  1.0000 1.6085095415
P   P7        1.0  0.67666  0.27886  0.61549  1.0000 1.536904458
P   P8        1.0  0.72866  0.07110  0.39414  1.0000 1.6008345246
P   P9        1.0  0.92603  0.30691  0.60040  1.0000 1.6085095415
P   P10       1.0  0.82775  0.21682  0.11615  1.0000 1.536904458
P   P11       1.0  0.77146  0.42895  0.89635  1.0000 1.6008345246
P   P12       1.0  0.57454  0.19051  0.09803  1.0000 1.6085095415
P   P13       1.0  0.67366  0.71840  0.11486  1.0000 1.536904458
P   P14       1.0  0.72883  0.92910  0.89391  1.0000 1.6008345246
P   P15       1.0  0.92520  0.69182  0.09954  1.0000 1.6085095415
P   P16       1.0  0.82609  0.78347  0.61047  1.0000 1.536904458
P   P17       1.0  0.77014  0.57053  0.39691  1.0000 1.6008345246
P   P18       1.0  0.57389  0.80886  0.59899  1.0000 1.6085095415
P   P19       1.0  0.32473  0.71881  0.38821  1.0000 1.530621311
P   P20       1.0  0.26919  0.92969  0.60394  1.0000 1.6008345246
P   P21       1.0  0.07390  0.69000  0.40653  1.0000 1.6085095415
P   P22       1.0  0.17391  0.78121  0.88753  1.0000 1.536904458
P   P23       1.0  0.22921  0.57158  0.10609  1.0000 1.590221704
P   P24       1.0  0.42380  0.80840  0.90418  1.0000 1.6008345246
H   H1        1.0  0.81314  0.89984  0.10983  1.0000 0.3311495768
H   H2        1.0  0.77185  0.91731  0.25024  1.0000 0.3311495768
H   H3        1.0  0.94815  0.13196  0.33585  1.0000 0.1085485896
H   H4        1.0  0.04552  0.13696  0.36633  1.0000 0.1085485896
H   H5        1.0  0.97840  0.09974  0.10053  1.0000 0.0938452956
H   H6        1.0  0.07419  0.09214  0.14605  1.0000 0.0993522169
H   H7        1.0  0.95551  0.91414  0.09653  1.0000 0.0798969877
H   H8        1.0  0.90559  0.00437  0.10740  1.0000 0.0993522169
H   H9        1.0  0.91429  0.88015  0.32193  1.0000 0.0993522169
H   H10       1.0  0.86873  0.97273  0.33281  1.0000 0.0993522169
H   H11       1.0  0.71684  0.56623  0.68478  1.0000 0.3311495768
H   H12       1.0  0.70429  0.65618  0.75341  1.0000 0.3381776981
H   H13       1.0  0.53071  0.57957  0.63665  1.0000 0.0798969877
H   H14       1.0  0.58503  0.49179  0.64609  1.0000 0.0993522169
H   H15       1.0  0.59111  0.63165  0.83301  1.0000 0.0993522169
H   H16       1.0  0.64089  0.54278  0.85786  1.0000 0.0993522169
H   H17       1.0  0.16887  0.83902  0.33062  1.0000 0.3311495768
H   H18       1.0  0.20214  0.93039  0.35820  1.0000 0.3311495768
H   H19       1.0  0.03298  0.91937  0.35733  1.0000 0.0798969877
H   H20       1.0  0.08506  0.00892  0.35357  1.0000 0.0938452956
H   H21       1.0  0.09680  0.87583  0.15328  1.0000 0.0993522169
H   H22       1.0  0.14373  0.96735  0.14394  1.0000 0.0993522169
H   H23       1.0  0.27910  0.62340  0.71441  1.0000 0.3311495768
H   H24       1.0  0.32709  0.66192  0.83645  1.0000 0.3311495768
H   H25       1.0  0.46061  0.37037  0.64642  1.0000 0.1085485896
H   H26       1.0  0.55928  0.36725  0.64476  1.0000 0.1085485896
H   H27       1.0  0.47394  0.40032  0.89329  1.0000 0.0938452956
H   H28       1.0  0.57138  0.41152  0.86138  1.0000 0.0938452956
H   H29       1.0  0.45393  0.58740  0.89949  1.0000 0.0798969877
H   H30       1.0  0.40359  0.49746  0.88833  1.0000 0.0993522169
H   H31       1.0  0.41273  0.62326  0.67565  1.0000 0.0993522169
H   H32       1.0  0.36741  0.53028  0.66174  1.0000 0.0993522169
H   H33       1.0  0.20591  0.06661  0.84758  1.0000 0.3311495768
H   H34       1.0  0.16322  0.15445  0.85401  1.0000 0.3311495768
H   H35       1.0  0.08621  0.99094  0.85075  1.0000 0.0993522169
H   H36       1.0  0.03172  0.07891  0.85825  1.0000 0.0798969877
H   H37       1.0  0.14288  0.03978  0.64056  1.0000 0.0993522169
H   H38       1.0  0.09382  0.12967  0.66081  1.0000 0.0993522169
H   H39       1.0  0.27429  0.37960  0.23332  1.0000 0.3311495768
H   H40       1.0  0.29626  0.43241  0.36463  1.0000 0.3311495768
H   H41       1.0  0.41378  0.51067  0.35779  1.0000 0.0938452956
H   H42       1.0  0.46688  0.42166  0.36509  1.0000 0.0798969877
H   H43       1.0  0.35564  0.46545  0.14995  1.0000 0.0993522169
H   H44       1.0  0.40265  0.37411  0.16398  1.0000 0.0993522169
H   H45       1.0  0.83718  0.14779  0.62016  1.0000 0.3311495768
H   H46       1.0  0.79589  0.14988  0.76162  1.0000 0.3381776981
H   H47       1.0  0.04472  0.86684  0.87275  1.0000 0.0993522169
H   H48       1.0  0.94751  0.87093  0.84459  1.0000 0.1085485896
H   H49       1.0  0.07402  0.90504  0.65260  1.0000 0.0993522169
H   H50       1.0  0.97858  0.89634  0.60447  1.0000 0.0993522169
H   H51       1.0  0.90524  0.99378  0.60796  1.0000 0.0993522169
H   H52       1.0  0.95731  0.08202  0.58962  1.0000 0.0798969877
H   H53       1.0  0.86897  0.03564  0.83316  1.0000 0.0993522169
H   H54       1.0  0.91876  0.12560  0.80964  1.0000 0.0993522169
H   H55       1.0  0.69433  0.33915  0.25002  1.0000 0.3381776981
H   H56       1.0  0.72411  0.43447  0.23394  1.0000 0.3311495768
H   H57       1.0  0.47117  0.63677  0.38159  1.0000 0.1085485896
H   H58       1.0  0.56464  0.63293  0.32576  1.0000 0.1085485896
H   H59       1.0  0.42417  0.59595  0.16585  1.0000 0.0993522169
H   H60       1.0  0.51652  0.60020  0.10153  1.0000 0.0938452956
H   H61       1.0  0.59419  0.50737  0.11554  1.0000 0.0938452956
H   H62       1.0  0.54421  0.41786  0.09708  1.0000 0.0798969877
H   H63       1.0  0.62567  0.46642  0.34507  1.0000 0.0993522169
H   H64       1.0  0.58172  0.37442  0.31407  1.0000 0.0993522169
H   H65       1.0  0.97170  0.23226  0.16182  1.0000 0.3311495768
H   H66       1.0  0.06011  0.24255  0.22723  1.0000 0.3381776981
H   H67       1.0  0.52689  0.24198  0.67679  1.0000 0.3311495768
H   H68       1.0  0.44915  0.26096  0.76323  1.0000 0.3381776981
H   H69       1.0  0.03587  0.76441  0.68043  1.0000 0.3311495768
H   H70       1.0  0.94500  0.75805  0.73937  1.0000 0.3381776981
H   H71       1.0  0.52404  0.76100  0.31639  1.0000 0.3311495768
H   H72       1.0  0.44251  0.73985  0.23710  1.0000 0.3381776981
H   H73       1.0  0.68044  0.38957  0.11240  1.0000 0.32442092
H   H74       1.0  0.52872  0.73241  0.16342  1.0000 0.3311495768
H   H75       1.0  0.32999  0.34092  0.34387  1.0000 0.3311495768
H   H76       1.0  0.53797  0.26547  0.83132  1.0000 0.3311495768
H   H77       1.0  0.29037  0.57146  0.85095  1.0000 0.3311495768
H   H78       1.0  0.66166  0.63410  0.61676  1.0000 0.3311495768
H   H79       1.0  0.02004  0.74150  0.83369  1.0000 0.3311495768
H   H80       1.0  0.21924  0.13355  0.73097  1.0000 0.3311495768
H   H81       1.0  0.22546  0.88043  0.22404  1.0000 0.3311495768
H   H82       1.0  0.81415  0.83104  0.22773  1.0000 0.3381776981
H   H83       1.0  0.98170  0.26001  0.31455  1.0000 0.3311495768
H   H84       1.0  0.78591  0.07013  0.66459  1.0000 0.3311495768
C   C1        1.0  0.00270  0.14186  0.29133  1.0000 -0.0095056232
C   C2        1.0  0.01626  0.08432  0.17963  1.0000 -0.0999107687
C   C3        1.0  0.93815  0.96147  0.16320  1.0000 -0.0999107687
C   C4        1.0  0.88682  0.92648  0.26605  1.0000 -0.0025608964
C   C5        1.0  0.55697  0.53747  0.70319  1.0000 -0.0999107687
C   C6        1.0  0.61563  0.58066  0.78415  1.0000 -0.0025608964
C   C7        1.0  0.05863  0.96341  0.29362  1.0000 -0.0999107687
C   C8        1.0  0.11918  0.92462  0.21071  1.0000 -0.0025608964
C   C9        1.0  0.51016  0.36035  0.70594  1.0000 -0.0154895928
C   C10       1.0  0.51485  0.41749  0.82001  1.0000 -0.0999107687
C   C11       1.0  0.43645  0.54018  0.83272  1.0000 -0.0999107687
C   C12       1.0  0.38552  0.57582  0.72973  1.0000 -0.0025608964
C   C13       1.0  0.05828  0.03639  0.79283  1.0000 -0.0999107687
C   C14       1.0  0.11752  0.07906  0.71213  1.0000 -0.0025608964
C   C15       1.0  0.44060  0.46446  0.29980  1.0000 -0.0999107687
C   C16       1.0  0.38016  0.42393  0.21880  1.0000 -0.0095056232
C   C17       1.0  0.00160  0.85943  0.79915  1.0000 -0.0095056232
C   C18       1.0  0.01568  0.91377  0.68356  1.0000 -0.0999107687
C   C19       1.0  0.93895  0.03730  0.66036  1.0000 -0.0999107687
C   C20       1.0  0.88951  0.07744  0.76078  1.0000 -0.0025608964
C   C21       1.0  0.50668  0.64215  0.29598  1.0000 -0.0095056232
C   C22       1.0  0.48352  0.58584  0.18756  1.0000 -0.0999107687
C   C23       1.0  0.56094  0.46333  0.16759  1.0000 -0.0999107687
C   C24       1.0  0.61027  0.42440  0.26928  1.0000 -0.0025608964
N   N1        1.0  0.81823  0.89126  0.20828  1.0000 -0.427862534
N   N2        1.0  0.67828  0.61027  0.70365  1.0000 -0.4217291948
N   N3        1.0  0.18181  0.89219  0.28795  1.0000 -0.4217291948
N   N4        1.0  0.31704  0.60987  0.78787  1.0000 -0.4217291948
N   N5        1.0  0.17950  0.10972  0.79281  1.0000 -0.4217291948
N   N6        1.0  0.31745  0.39283  0.29683  1.0000 -0.4217291948
N   N7        1.0  0.82308  0.11248  0.69752  1.0000 -0.4217291948
N   N8        1.0  0.68121  0.39499  0.21192  1.0000 -0.4217291948
N   N9        1.0  0.00178  0.00332  0.21768  1.0000 -0.1492091135
N   N10       1.0  0.00435  0.22470  0.24391  1.0000 -0.4114264042
N   N11       1.0  0.50012  0.49784  0.77940  1.0000 -0.1492091135
N   N12       1.0  0.50580  0.27681  0.74965  1.0000 -0.4114264042
N   N13       1.0  0.00224  0.99575  0.71614  1.0000 -0.1492091135
N   N14       1.0  0.00071  0.77526  0.75817  1.0000 -0.4114264042
N   N15       1.0  0.49664  0.50401  0.22141  1.0000 -0.1492091135
N   N16       1.0  0.49954  0.72463  0.24903  1.0000 -0.4114264042
O   O1        1.0  0.25915  0.23973  0.92878  1.0000 -0.8298311249
O   O2        1.0  0.20396  0.12928  0.09553  1.0000 -0.8077342302
O   O3        1.0  0.10695  0.25132  0.00694  1.0000 -0.7983824422
O   O4        1.0  0.35765  0.25305  0.75943  1.0000 -0.771420689
O   O5        1.0  0.39634  0.27612  0.98565  1.0000 -0.7909253457
O   O6        1.0  0.31434  0.37525  0.88445  1.0000 -0.7909253457
O   O7        1.0  0.34760  0.10922  0.07228  1.0000 -0.7909253457
O   O8        1.0  0.07713  0.26118  0.77515  1.0000 -0.7983824422
O   O9        1.0  0.99825  0.33700  0.93954  1.0000 -0.761073262
O   O10       1.0  0.27392  0.02941  0.23514  1.0000 -0.7983824422
O   O11       1.0  0.25354  0.01225  0.99264  1.0000 -0.7909253457
O   O12       1.0  0.12521  0.38396  0.88599  1.0000 -0.7983824422
O   O13       1.0  0.24755  0.26543  0.42878  1.0000 -0.8298311249
O   O14       1.0  0.29658  0.37277  0.60131  1.0000 -0.8077342302
O   O15       1.0  0.39697  0.24800  0.51142  1.0000 -0.7909253457
O   O16       1.0  0.15070  0.25470  0.25449  1.0000 -0.771420689
O   O17       1.0  0.10938  0.23029  0.47914  1.0000 -0.7909253457
O   O18       1.0  0.19042  0.13133  0.37841  1.0000 -0.7983824422
O   O19       1.0  0.15281  0.39333  0.57509  1.0000 -0.7909253457
O   O20       1.0  0.42484  0.24047  0.27808  1.0000 -0.7983824422
O   O21       1.0  0.50372  0.16220  0.43891  1.0000 -0.761073262
O   O22       1.0  0.22588  0.47338  0.73736  1.0000 -0.7983824422
O   O23       1.0  0.24767  0.48874  0.49442  1.0000 -0.783135751
O   O24       1.0  0.37669  0.11665  0.38616  1.0000 -0.7909253457
O   O25       1.0  0.74702  0.23575  0.57078  1.0000 -0.8298311249
O   O26       1.0  0.79509  0.12875  0.40029  1.0000 -0.8077342302
O   O27       1.0  0.89731  0.24941  0.49533  1.0000 -0.7983824422
O   O28       1.0  0.65277  0.24718  0.74801  1.0000 -0.771420689
O   O29       1.0  0.60755  0.26710  0.52532  1.0000 -0.7983824422
O   O30       1.0  0.68899  0.36938  0.61791  1.0000 -0.7983824422
O   O31       1.0  0.65158  0.10860  0.42014  1.0000 -0.783135751
O   O32       1.0  0.92723  0.25857  0.72813  1.0000 -0.7983824422
O   O33       1.0  0.00413  0.33647  0.56264  1.0000 -0.761073262
O   O34       1.0  0.72650  0.02659  0.26351  1.0000 -0.7983824422
O   O35       1.0  0.74393  0.01290  0.50701  1.0000 -0.7909253457
O   O36       1.0  0.87698  0.38101  0.62154  1.0000 -0.7983824422
O   O37       1.0  0.75779  0.26150  0.07330  1.0000 -0.8298311249
O   O38       1.0  0.70405  0.37191  0.91222  1.0000 -0.8168803444
O   O39       1.0  0.60101  0.24600  0.98782  1.0000 -0.7909253457
O   O40       1.0  0.85365  0.24920  0.24747  1.0000 -0.771420689
O   O41       1.0  0.89748  0.22813  0.02611  1.0000 -0.7909253457
O   O42       1.0  0.81401  0.12665  0.11860  1.0000 -0.7909253457
O   O43       1.0  0.84849  0.39117  0.92351  1.0000 -0.7909253457
O   O44       1.0  0.57521  0.24068  0.22408  1.0000 -0.7909253457
O   O45       1.0  0.49592  0.15990  0.06719  1.0000 -0.761073262
O   O46       1.0  0.77184  0.46910  0.76215  1.0000 -0.7983824422
O   O47       1.0  0.75744  0.49066  0.00314  1.0000 -0.7909253457
O   O48       1.0  0.62491  0.11750  0.11896  1.0000 -0.7983824422
O   O49       1.0  0.74310  0.76338  0.07121  1.0000 -0.8298311249
O   O50       1.0  0.79589  0.87169  0.90490  1.0000 -0.8168803444
O   O51       1.0  0.89708  0.74679  0.99124  1.0000 -0.7909253457
O   O52       1.0  0.64799  0.74984  0.24689  1.0000 -0.783135751
O   O53       1.0  0.60382  0.72898  0.02455  1.0000 -0.7983824422
O   O54       1.0  0.68751  0.62814  0.11726  1.0000 -0.7983824422
O   O55       1.0  0.65186  0.89135  0.92281  1.0000 -0.783135751
O   O56       1.0  0.92555  0.74164  0.22575  1.0000 -0.7909253457
O   O57       1.0  0.00408  0.66226  0.06613  1.0000 -0.771420689
O   O58       1.0  0.72668  0.97083  0.76151  1.0000 -0.7983824422
O   O59       1.0  0.74450  0.98874  0.00372  1.0000 -0.7909253457
O   O60       1.0  0.87635  0.61763  0.12262  1.0000 -0.7983824422
O   O61       1.0  0.75566  0.73847  0.57047  1.0000 -0.8298311249
O   O62       1.0  0.70320  0.62793  0.40614  1.0000 -0.8168803444
O   O63       1.0  0.60233  0.75252  0.49216  1.0000 -0.7983824422
O   O64       1.0  0.85314  0.75087  0.74235  1.0000 -0.771420689
O   O65       1.0  0.89376  0.77332  0.51753  1.0000 -0.7909253457
O   O66       1.0  0.81177  0.87332  0.61656  1.0000 -0.7909253457
O   O67       1.0  0.84689  0.60851  0.42404  1.0000 -0.783135751
O   O68       1.0  0.57468  0.76016  0.72647  1.0000 -0.7909253457
O   O69       1.0  0.49497  0.83745  0.56461  1.0000 -0.761073262
O   O70       1.0  0.77213  0.52782  0.26399  1.0000 -0.7983824422
O   O71       1.0  0.75549  0.51033  0.50659  1.0000 -0.7909253457
O   O72       1.0  0.62238  0.88354  0.61784  1.0000 -0.7983824422
O   O73       1.0  0.25365  0.76293  0.42799  1.0000 -0.8298311249
O   O74       1.0  0.20195  0.87269  0.59643  1.0000 -0.8077342302
O   O75       1.0  0.10005  0.74540  0.51683  1.0000 -0.7983824422
O   O76       1.0  0.35218  0.75231  0.25708  1.0000 -0.771420689
O   O77       1.0  0.39160  0.72766  0.48249  1.0000 -0.7909253457
O   O78       1.0  0.31102  0.62878  0.37900  1.0000 -0.7909253457
O   O79       1.0  0.34606  0.89264  0.57280  1.0000 -0.7909253457
O   O80       1.0  0.07654  0.74028  0.28080  1.0000 -0.7983824422
O   O81       1.0  0.99526  0.65921  0.43548  1.0000 -0.761073262
O   O82       1.0  0.27243  0.97165  0.73615  1.0000 -0.7983824422
O   O83       1.0  0.25165  0.98950  0.49327  1.0000 -0.7909253457
O   O84       1.0  0.12372  0.61614  0.38827  1.0000 -0.7909253457
O   O85       1.0  0.24460  0.73738  0.92984  1.0000 -0.8298311249
O   O86       1.0  0.29594  0.62909  0.10175  1.0000 -0.8077342302
O   O87       1.0  0.39518  0.75197  0.01031  1.0000 -0.7909253457
O   O88       1.0  0.14845  0.74920  0.75606  1.0000 -0.771420689
O   O89       1.0  0.10590  0.77076  0.98063  1.0000 -0.7983824422
O   O90       1.0  0.18730  0.87167  0.88390  1.0000 -0.7983824422
O   O91       1.0  0.15220  0.60843  0.07588  1.0000 -0.783135751
O   O92       1.0  0.42348  0.75978  0.77680  1.0000 -0.7983824422
O   O93       1.0  0.50237  0.83800  0.93794  1.0000 -0.761073262
O   O94       1.0  0.22563  0.52749  0.23646  1.0000 -0.7983824422
O   O95       1.0  0.24706  0.51368  0.99324  1.0000 -0.783135751
O   O96       1.0  0.37484  0.88292  0.88550  1.0000 -0.7983824422
F   F1        1.0  0.29819  0.24643  0.17769  1.0000 -0.5303801686
F   F2        1.0  0.21597  0.36344  0.08801  1.0000 -0.5616028526
F   F3        1.0  0.20554  0.25383  0.67757  1.0000 -0.5303801686
F   F4        1.0  0.28648  0.13978  0.58890  1.0000 -0.5616028526
F   F5        1.0  0.70323  0.25378  0.32348  1.0000 -0.5303801686
F   F6        1.0  0.79096  0.36199  0.41710  1.0000 -0.5616028526
F   F7        1.0  0.79887  0.25016  0.82820  1.0000 -0.5303801686
F   F8        1.0  0.71423  0.13817  0.91840  1.0000 -0.5616028526
F   F9        1.0  0.70396  0.74933  0.82482  1.0000 -0.5303801686
F   F10       1.0  0.78920  0.63938  0.91708  1.0000 -0.5616028526
F   F11       1.0  0.79625  0.74807  0.32055  1.0000 -0.5303801686
F   F12       1.0  0.71132  0.86276  0.41501  1.0000 -0.5653942019
F   F13       1.0  0.29579  0.75628  0.67730  1.0000 -0.5303801686
F   F14       1.0  0.21611  0.63879  0.58836  1.0000 -0.5616028526
F   F15       1.0  0.20232  0.74713  0.17732  1.0000 -0.5303801686
F   F16       1.0  0.28506  0.86275  0.09049  1.0000 -0.5616028526
