# DDEC6 charges by PACMAN v1.1 (https://github.com/mtap-research/PACMAN-charge/)
data_2002[Cd][nan]3[ION]1
_chemical_formula_sum              "Cd24 H56 C104 N64"
_cell_length_a       13.718
_cell_length_b       27.232
_cell_length_c       13.639
_cell_angle_alpha    90
_cell_angle_beta     90
_cell_angle_gamma    90

_symmetry_space_group_name_H-M    "P 1"
_symmetry_Int_Tables_number       1

loop_
  _symmetry_equiv_pos_as_xyz
  'x, y, z'

loop_
  _atom_site_type_symbol
  _atom_site_label
  _atom_site_symmetry_multiplicity
  _atom_site_fract_x
  _atom_site_fract_y
  _atom_site_fract_z
  _atom_site_occupancy
  _atom_site_charge
Cd  Cd1       1.0  0.83374  0.87367  0.99599  1.0000 0.9577469063
Cd  Cd2       1.0  0.47048  0.80752  0.13743  1.0000 0.5356952381
Cd  Cd3       1.0  0.22245  0.92530  0.89199  1.0000 0.4201234002
Cd  Cd4       1.0  0.66626  0.12633  0.49599  1.0000 0.9577469063
Cd  Cd5       1.0  0.02952  0.19248  0.63743  1.0000 0.532208873
Cd  Cd6       1.0  0.27755  0.07470  0.39199  1.0000 0.4201234002
Cd  Cd7       1.0  0.16626  0.37367  0.50401  1.0000 0.9577469063
Cd  Cd8       1.0  0.52952  0.30752  0.36257  1.0000 0.532208873
Cd  Cd9       1.0  0.77755  0.42530  0.60801  1.0000 0.4201234002
Cd  Cd10      1.0  0.33374  0.62633  0.00401  1.0000 0.9577469063
Cd  Cd11      1.0  0.97048  0.69248  0.86257  1.0000 0.532208873
Cd  Cd12      1.0  0.72245  0.57470  0.10801  1.0000 0.4201234002
Cd  Cd13      1.0  0.16626  0.12633  0.00401  1.0000 0.9577469063
Cd  Cd14      1.0  0.52952  0.19248  0.86257  1.0000 0.532208873
Cd  Cd15      1.0  0.77755  0.07470  0.10801  1.0000 0.4201234002
Cd  Cd16      1.0  0.33374  0.87367  0.50401  1.0000 0.9577469063
Cd  Cd17      1.0  0.97048  0.80752  0.36257  1.0000 0.532208873
Cd  Cd18      1.0  0.72245  0.92530  0.60801  1.0000 0.4201234002
Cd  Cd19      1.0  0.83374  0.62633  0.49599  1.0000 0.9577469063
Cd  Cd20      1.0  0.47048  0.69248  0.63743  1.0000 0.5356952381
Cd  Cd21      1.0  0.22245  0.57470  0.39199  1.0000 0.4201234002
Cd  Cd22      1.0  0.66626  0.37367  0.99599  1.0000 0.9577469063
Cd  Cd23      1.0  0.02952  0.30752  0.13743  1.0000 0.532208873
Cd  Cd24      1.0  0.27755  0.42530  0.89199  1.0000 0.4201234002
H   H1        1.0  0.59250  0.91940  0.20870  1.0000 0.1232372132
H   H2        1.0  0.56820  0.92940  0.04300  1.0000 0.1412698971
H   H3        1.0  0.45990  0.06250  0.09770  1.0000 0.1412698971
H   H4        1.0  0.49660  0.05310  0.25980  1.0000 0.1232372132
H   H5        1.0  0.51790  0.95430  0.38360  1.0000 0.1563119349
H   H6        1.0  0.55880  0.00800  0.39030  1.0000 0.1497420576
H   H7        1.0  0.62920  0.96420  0.36650  1.0000 0.1497420576
H   H8        1.0  0.90750  0.08060  0.70870  1.0000 0.1232372132
H   H9        1.0  0.93180  0.07060  0.54300  1.0000 0.1412698971
H   H10       1.0  0.04010  0.93750  0.59770  1.0000 0.1412698971
H   H11       1.0  0.00340  0.94690  0.75980  1.0000 0.1232372132
H   H12       1.0  0.98210  0.04570  0.88360  1.0000 0.1563119349
H   H13       1.0  0.94120  0.99200  0.89030  1.0000 0.1497420576
H   H14       1.0  0.87080  0.03580  0.86650  1.0000 0.1497420576
H   H15       1.0  0.40750  0.41940  0.29130  1.0000 0.1232372132
H   H16       1.0  0.43180  0.42940  0.45700  1.0000 0.1412698971
H   H17       1.0  0.54010  0.56250  0.40230  1.0000 0.1412698971
H   H18       1.0  0.50340  0.55310  0.24020  1.0000 0.1232372132
H   H19       1.0  0.48210  0.45430  0.11640  1.0000 0.1563119349
H   H20       1.0  0.44120  0.50800  0.10970  1.0000 0.1497420576
H   H21       1.0  0.37080  0.46420  0.13350  1.0000 0.1497420576
H   H22       1.0  0.09250  0.58060  0.79130  1.0000 0.1232372132
H   H23       1.0  0.06820  0.57060  0.95700  1.0000 0.1412698971
H   H24       1.0  0.95990  0.43750  0.90230  1.0000 0.1412698971
H   H25       1.0  0.99660  0.44690  0.74020  1.0000 0.1232372132
H   H26       1.0  0.01790  0.54570  0.61640  1.0000 0.1563119349
H   H27       1.0  0.05880  0.49200  0.60970  1.0000 0.1497420576
H   H28       1.0  0.12920  0.53580  0.63350  1.0000 0.1497420576
H   H29       1.0  0.40750  0.08060  0.79130  1.0000 0.1232372132
H   H30       1.0  0.43180  0.07060  0.95700  1.0000 0.1412698971
H   H31       1.0  0.54010  0.93750  0.90230  1.0000 0.1412698971
H   H32       1.0  0.50340  0.94690  0.74020  1.0000 0.1232372132
H   H33       1.0  0.48210  0.04570  0.61640  1.0000 0.1563119349
H   H34       1.0  0.44120  0.99200  0.60970  1.0000 0.1497420576
H   H35       1.0  0.37080  0.03580  0.63350  1.0000 0.1497420576
H   H36       1.0  0.09250  0.91940  0.29130  1.0000 0.1232372132
H   H37       1.0  0.06820  0.92940  0.45700  1.0000 0.1412698971
H   H38       1.0  0.95990  0.06250  0.40230  1.0000 0.1412698971
H   H39       1.0  0.99660  0.05310  0.24020  1.0000 0.1232372132
H   H40       1.0  0.01790  0.95430  0.11640  1.0000 0.1563119349
H   H41       1.0  0.05880  0.00800  0.10970  1.0000 0.1497420576
H   H42       1.0  0.12920  0.96420  0.13350  1.0000 0.1497420576
H   H43       1.0  0.59250  0.58060  0.70870  1.0000 0.1232372132
H   H44       1.0  0.56820  0.57060  0.54300  1.0000 0.1412698971
H   H45       1.0  0.45990  0.43750  0.59770  1.0000 0.1412698971
H   H46       1.0  0.49660  0.44690  0.75980  1.0000 0.1232372132
H   H47       1.0  0.51790  0.54570  0.88360  1.0000 0.1563119349
H   H48       1.0  0.55880  0.49200  0.89030  1.0000 0.1497420576
H   H49       1.0  0.62920  0.53580  0.86650  1.0000 0.1497420576
H   H50       1.0  0.90750  0.41940  0.20870  1.0000 0.1232372132
H   H51       1.0  0.93180  0.42940  0.04300  1.0000 0.1412698971
H   H52       1.0  0.04010  0.56250  0.09770  1.0000 0.1412698971
H   H53       1.0  0.00340  0.55310  0.25980  1.0000 0.1232372132
H   H54       1.0  0.98210  0.45430  0.38360  1.0000 0.1563119349
H   H55       1.0  0.94120  0.50800  0.39030  1.0000 0.1497420576
H   H56       1.0  0.87080  0.46420  0.36650  1.0000 0.1497420576
C   C1        1.0  0.61030  0.83490  0.07510  1.0000 -0.0173011532
C   C2        1.0  0.92010  0.84170  0.22450  1.0000 -0.0325690726
C   C3        1.0  0.06980  0.90450  0.92750  1.0000 -0.0414657532
C   C4        1.0  0.75710  0.91070  0.76540  1.0000 -0.0450925435
C   C5        1.0  0.32770  0.88760  0.99000  1.0000 -0.0325690726
C   C6        1.0  0.78810  0.99400  0.07360  1.0000 -0.062040864
C   C7        1.0  0.90240  0.76070  0.91710  1.0000 0.0720708464
C   C8        1.0  0.56640  0.94870  0.18560  1.0000 0.0320829745
C   C9        1.0  0.55030  0.95410  0.08640  1.0000 -0.1777248736
C   C10       1.0  0.50820  0.99590  0.05290  1.0000 0.1021461152
C   C11       1.0  0.48800  0.03340  0.11960  1.0000 -0.1777248736
C   C12       1.0  0.50800  0.02760  0.21600  1.0000 -0.0021503139
C   C13       1.0  0.56460  0.97700  0.35720  1.0000 -0.3579166624
C   C14       1.0  0.88970  0.16510  0.57510  1.0000 -0.0173011532
C   C15       1.0  0.57990  0.15830  0.72450  1.0000 -0.0325690726
C   C16       1.0  0.43020  0.09550  0.42750  1.0000 -0.0414657532
C   C17       1.0  0.74290  0.08930  0.26540  1.0000 -0.0450925435
C   C18       1.0  0.17230  0.11240  0.49000  1.0000 -0.0325690726
C   C19       1.0  0.71190  0.00600  0.57360  1.0000 -0.062040864
C   C20       1.0  0.59760  0.23930  0.41710  1.0000 0.0720708464
C   C21       1.0  0.93360  0.05130  0.68560  1.0000 0.0320829745
C   C22       1.0  0.94970  0.04590  0.58640  1.0000 -0.1777248736
C   C23       1.0  0.99180  0.00410  0.55290  1.0000 0.1021461152
C   C24       1.0  0.01200  0.96660  0.61960  1.0000 -0.1777248736
C   C25       1.0  0.99200  0.97240  0.71600  1.0000 -0.0021503139
C   C26       1.0  0.93540  0.02300  0.85720  1.0000 -0.3579166624
C   C27       1.0  0.38970  0.33490  0.42490  1.0000 -0.0173011532
C   C28       1.0  0.07990  0.34170  0.27550  1.0000 -0.0325690726
C   C29       1.0  0.93020  0.40450  0.57250  1.0000 -0.0414657532
C   C30       1.0  0.24290  0.41070  0.73460  1.0000 -0.0450925435
C   C31       1.0  0.67230  0.38760  0.51000  1.0000 -0.0325690726
C   C32       1.0  0.21190  0.49400  0.42640  1.0000 -0.062040864
C   C33       1.0  0.09760  0.26070  0.58290  1.0000 0.0720708464
C   C34       1.0  0.43360  0.44870  0.31440  1.0000 0.0320829745
C   C35       1.0  0.44970  0.45410  0.41360  1.0000 -0.1777248736
C   C36       1.0  0.49180  0.49590  0.44710  1.0000 0.1021461152
C   C37       1.0  0.51200  0.53340  0.38040  1.0000 -0.1777248736
C   C38       1.0  0.49200  0.52760  0.28400  1.0000 -0.0021503139
C   C39       1.0  0.43540  0.47700  0.14280  1.0000 -0.3579166624
C   C40       1.0  0.11030  0.66510  0.92490  1.0000 -0.0173011532
C   C41       1.0  0.42010  0.65830  0.77550  1.0000 -0.0325690726
C   C42       1.0  0.56980  0.59550  0.07250  1.0000 -0.0414657532
C   C43       1.0  0.25710  0.58930  0.23460  1.0000 -0.0450925435
C   C44       1.0  0.82770  0.61240  0.01000  1.0000 -0.0325690726
C   C45       1.0  0.28810  0.50600  0.92640  1.0000 -0.062040864
C   C46       1.0  0.40240  0.73930  0.08290  1.0000 0.0720708464
C   C47       1.0  0.06640  0.55130  0.81440  1.0000 0.0320829745
C   C48       1.0  0.05030  0.54590  0.91360  1.0000 -0.1777248736
C   C49       1.0  0.00820  0.50410  0.94710  1.0000 0.1021461152
C   C50       1.0  0.98800  0.46660  0.88040  1.0000 -0.1777248736
C   C51       1.0  0.00800  0.47240  0.78400  1.0000 -0.0021503139
C   C52       1.0  0.06460  0.52300  0.64280  1.0000 -0.3579166624
C   C53       1.0  0.38970  0.16510  0.92490  1.0000 -0.0173011532
C   C54       1.0  0.07990  0.15830  0.77550  1.0000 -0.0325690726
C   C55       1.0  0.93020  0.09550  0.07250  1.0000 -0.0414657532
C   C56       1.0  0.24290  0.08930  0.23460  1.0000 -0.0450925435
C   C57       1.0  0.67230  0.11240  0.01000  1.0000 -0.0325690726
C   C58       1.0  0.21190  0.00600  0.92640  1.0000 -0.062040864
C   C59       1.0  0.09760  0.23930  0.08290  1.0000 0.0720708464
C   C60       1.0  0.43360  0.05130  0.81440  1.0000 0.0320829745
C   C61       1.0  0.44970  0.04590  0.91360  1.0000 -0.1777248736
C   C62       1.0  0.49180  0.00410  0.94710  1.0000 0.1021461152
C   C63       1.0  0.51200  0.96660  0.88040  1.0000 -0.1777248736
C   C64       1.0  0.49200  0.97240  0.78400  1.0000 -0.0021503139
C   C65       1.0  0.43540  0.02300  0.64280  1.0000 -0.3579166624
C   C66       1.0  0.11030  0.83490  0.42490  1.0000 -0.0173011532
C   C67       1.0  0.42010  0.84170  0.27550  1.0000 -0.0325690726
C   C68       1.0  0.56980  0.90450  0.57250  1.0000 -0.0414657532
C   C69       1.0  0.25710  0.91070  0.73460  1.0000 -0.0414657532
C   C70       1.0  0.82770  0.88760  0.51000  1.0000 -0.0325690726
C   C71       1.0  0.28810  0.99400  0.42640  1.0000 -0.062040864
C   C72       1.0  0.40240  0.76070  0.58290  1.0000 0.0720708464
C   C73       1.0  0.06640  0.94870  0.31440  1.0000 0.0320829745
C   C74       1.0  0.05030  0.95410  0.41360  1.0000 -0.1777248736
C   C75       1.0  0.00820  0.99590  0.44710  1.0000 0.1021461152
C   C76       1.0  0.98800  0.03340  0.38040  1.0000 -0.1777248736
C   C77       1.0  0.00800  0.02760  0.28400  1.0000 -0.0021503139
C   C78       1.0  0.06460  0.97700  0.14280  1.0000 -0.3579166624
C   C79       1.0  0.61030  0.66510  0.57510  1.0000 -0.0173011532
C   C80       1.0  0.92010  0.65830  0.72450  1.0000 -0.0325690726
C   C81       1.0  0.06980  0.59550  0.42750  1.0000 -0.0414657532
C   C82       1.0  0.75710  0.58930  0.26540  1.0000 -0.0450925435
C   C83       1.0  0.32770  0.61240  0.49000  1.0000 -0.0325690726
C   C84       1.0  0.78810  0.50600  0.57360  1.0000 -0.062040864
C   C85       1.0  0.90240  0.73930  0.41710  1.0000 0.0720708464
C   C86       1.0  0.56640  0.55130  0.68560  1.0000 0.0320829745
C   C87       1.0  0.55030  0.54590  0.58640  1.0000 -0.1777248736
C   C88       1.0  0.50820  0.50410  0.55290  1.0000 0.1021461152
C   C89       1.0  0.48800  0.46660  0.61960  1.0000 -0.1777248736
C   C90       1.0  0.50800  0.47240  0.71600  1.0000 -0.0021503139
C   C91       1.0  0.56460  0.52300  0.85720  1.0000 -0.3579166624
C   C92       1.0  0.88970  0.33490  0.07510  1.0000 -0.0173011532
C   C93       1.0  0.57990  0.34170  0.22450  1.0000 -0.0325690726
C   C94       1.0  0.43020  0.40450  0.92750  1.0000 -0.0414657532
C   C95       1.0  0.74290  0.41070  0.76540  1.0000 -0.0450925435
C   C96       1.0  0.17230  0.38760  0.99000  1.0000 -0.0325690726
C   C97       1.0  0.71190  0.49400  0.07360  1.0000 -0.062040864
C   C98       1.0  0.59760  0.26070  0.91710  1.0000 0.0720708464
C   C99       1.0  0.93360  0.44870  0.18560  1.0000 0.0320829745
C   C100      1.0  0.94970  0.45410  0.08640  1.0000 -0.1777248736
C   C101      1.0  0.99180  0.49590  0.05290  1.0000 0.1021461152
C   C102      1.0  0.01200  0.53340  0.11960  1.0000 -0.1777248736
C   C103      1.0  0.99200  0.52760  0.21600  1.0000 -0.0021503139
C   C104      1.0  0.93540  0.47700  0.35720  1.0000 -0.3579166624
N   N1        1.0  0.68030  0.84980  0.04290  1.0000 -0.3424468152
N   N2        1.0  0.89420  0.85810  0.15380  1.0000 -0.3292765002
N   N3        1.0  0.99080  0.89820  0.94820  1.0000 -0.3292765002
N   N4        1.0  0.77920  0.90140  0.84100  1.0000 -0.3292765002
N   N5        1.0  0.37710  0.86690  0.03740  1.0000 -0.3102714475
N   N6        1.0  0.80010  0.95530  0.05000  1.0000 -0.3292765002
N   N7        1.0  0.87110  0.79490  0.94470  1.0000 -0.3424468152
N   N8        1.0  0.54570  0.98410  0.24890  1.0000 0.1563119349
N   N9        1.0  0.81970  0.15020  0.54290  1.0000 -0.3424468152
N   N10       1.0  0.60580  0.14190  0.65380  1.0000 -0.3292765002
N   N11       1.0  0.50920  0.10180  0.44820  1.0000 -0.3292765002
N   N12       1.0  0.72080  0.09860  0.34100  1.0000 -0.3292765002
N   N13       1.0  0.12290  0.13310  0.53740  1.0000 -0.3102714475
N   N14       1.0  0.69990  0.04470  0.55000  1.0000 -0.3292765002
N   N15       1.0  0.62890  0.20510  0.44470  1.0000 -0.3424468152
N   N16       1.0  0.95430  0.01590  0.74890  1.0000 0.1563119349
N   N17       1.0  0.31970  0.34980  0.45710  1.0000 -0.3424468152
N   N18       1.0  0.10580  0.35810  0.34620  1.0000 -0.3292765002
N   N19       1.0  0.00920  0.39820  0.55180  1.0000 -0.3292765002
N   N20       1.0  0.22080  0.40140  0.65900  1.0000 -0.3292765002
N   N21       1.0  0.62290  0.36690  0.46260  1.0000 -0.3102714475
N   N22       1.0  0.19990  0.45530  0.45000  1.0000 -0.3292765002
N   N23       1.0  0.12890  0.29490  0.55530  1.0000 -0.3424468152
N   N24       1.0  0.45430  0.48410  0.25110  1.0000 0.1563119349
N   N25       1.0  0.18030  0.65020  0.95710  1.0000 -0.3424468152
N   N26       1.0  0.39420  0.64190  0.84620  1.0000 -0.3292765002
N   N27       1.0  0.49080  0.60180  0.05180  1.0000 -0.3292765002
N   N28       1.0  0.27920  0.59860  0.15900  1.0000 -0.3292765002
N   N29       1.0  0.87710  0.63310  0.96260  1.0000 -0.3102714475
N   N30       1.0  0.30010  0.54470  0.95000  1.0000 -0.3292765002
N   N31       1.0  0.37110  0.70510  0.05530  1.0000 -0.3424468152
N   N32       1.0  0.04570  0.51590  0.75110  1.0000 0.1563119349
N   N33       1.0  0.31970  0.15020  0.95710  1.0000 -0.3424468152
N   N34       1.0  0.10580  0.14190  0.84620  1.0000 -0.3292765002
N   N35       1.0  0.00920  0.10180  0.05180  1.0000 -0.3292765002
N   N36       1.0  0.22080  0.09860  0.15900  1.0000 -0.3292765002
N   N37       1.0  0.62290  0.13310  0.96260  1.0000 -0.3102714475
N   N38       1.0  0.19990  0.04470  0.95000  1.0000 -0.3292765002
N   N39       1.0  0.12890  0.20510  0.05530  1.0000 -0.3424468152
N   N40       1.0  0.45430  0.01590  0.75110  1.0000 0.1563119349
N   N41       1.0  0.18030  0.84980  0.45710  1.0000 -0.3424468152
N   N42       1.0  0.39420  0.85810  0.34620  1.0000 -0.3292765002
N   N43       1.0  0.49080  0.89820  0.55180  1.0000 -0.3292765002
N   N44       1.0  0.27920  0.90140  0.65900  1.0000 -0.3292765002
N   N45       1.0  0.87710  0.86690  0.46260  1.0000 -0.3102714475
N   N46       1.0  0.30010  0.95530  0.45000  1.0000 -0.3292765002
N   N47       1.0  0.37110  0.79490  0.55530  1.0000 -0.3424468152
N   N48       1.0  0.04570  0.98410  0.25110  1.0000 0.1563119349
N   N49       1.0  0.68030  0.65020  0.54290  1.0000 -0.3424468152
N   N50       1.0  0.89420  0.64190  0.65380  1.0000 -0.3292765002
N   N51       1.0  0.99080  0.60180  0.44820  1.0000 -0.3292765002
N   N52       1.0  0.77920  0.59860  0.34100  1.0000 -0.3292765002
N   N53       1.0  0.37710  0.63310  0.53740  1.0000 -0.3102714475
N   N54       1.0  0.80010  0.54470  0.55000  1.0000 -0.3292765002
N   N55       1.0  0.87110  0.70510  0.44470  1.0000 -0.3424468152
N   N56       1.0  0.54570  0.51590  0.74890  1.0000 0.1563119349
N   N57       1.0  0.81970  0.34980  0.04290  1.0000 -0.3424468152
N   N58       1.0  0.60580  0.35810  0.15380  1.0000 -0.3292765002
N   N59       1.0  0.50920  0.39820  0.94820  1.0000 -0.3292765002
N   N60       1.0  0.72080  0.40140  0.84100  1.0000 -0.3292765002
N   N61       1.0  0.12290  0.36690  0.03740  1.0000 -0.3102714475
N   N62       1.0  0.69990  0.45530  0.05000  1.0000 -0.3292765002
N   N63       1.0  0.62890  0.29490  0.94470  1.0000 -0.3424468152
N   N64       1.0  0.95430  0.48410  0.24890  1.0000 0.1563119349
