# DDEC6 charges by PACMAN v1.1 (https://github.com/mtap-research/PACMAN-charge/)
data_2002[Ag][dia]3[ION]1
_chemical_formula_sum              "Ag4 H32 C32 N16"
_cell_length_a       15.078
_cell_length_b       15.078
_cell_length_c       5.7
_cell_angle_alpha    90
_cell_angle_beta     90
_cell_angle_gamma    90

_symmetry_space_group_name_H-M    "P 1"
_symmetry_Int_Tables_number       1

loop_
  _symmetry_equiv_pos_as_xyz
  'x, y, z'

loop_
  _atom_site_type_symbol
  _atom_site_label
  _atom_site_symmetry_multiplicity
  _atom_site_fract_x
  _atom_site_fract_y
  _atom_site_fract_z
  _atom_site_occupancy
  _atom_site_charge
Ag  Ag1       1.0  0.00000  0.25000  0.87500  1.0000 0.5142566178
Ag  Ag2       1.0  0.50000  0.75000  0.37500  1.0000 0.5142566178
Ag  Ag3       1.0  0.00000  0.75000  0.12500  1.0000 0.5142566178
Ag  Ag4       1.0  0.50000  0.25000  0.62500  1.0000 0.5142566178
H   H1        1.0  0.70220  0.30240  0.41650  1.0000 0.1234477785
H   H2        1.0  0.20220  0.80240  0.91650  1.0000 0.1234477785
H   H3        1.0  0.79780  0.69760  0.91650  1.0000 0.1234477785
H   H4        1.0  0.29780  0.19760  0.41650  1.0000 0.1234477785
H   H5        1.0  0.94760  0.45220  0.66650  1.0000 0.1234477785
H   H6        1.0  0.44760  0.95220  0.16650  1.0000 0.1234477785
H   H7        1.0  0.55240  0.54780  0.16650  1.0000 0.1234477785
H   H8        1.0  0.05240  0.04780  0.66650  1.0000 0.1234477785
H   H9        1.0  0.79780  0.30240  0.08350  1.0000 0.1234477785
H   H10       1.0  0.29780  0.80240  0.58350  1.0000 0.1234477785
H   H11       1.0  0.70220  0.69760  0.58350  1.0000 0.1234477785
H   H12       1.0  0.20220  0.19760  0.08350  1.0000 0.1234477785
H   H13       1.0  0.55240  0.45220  0.83350  1.0000 0.1234477785
H   H14       1.0  0.05240  0.95220  0.33350  1.0000 0.1234477785
H   H15       1.0  0.94760  0.54780  0.33350  1.0000 0.1234477785
H   H16       1.0  0.44760  0.04780  0.83350  1.0000 0.1234477785
H   H17       1.0  0.29780  0.69760  0.58350  1.0000 0.1234477785
H   H18       1.0  0.79780  0.19760  0.08350  1.0000 0.1234477785
H   H19       1.0  0.20220  0.30240  0.08350  1.0000 0.1234477785
H   H20       1.0  0.70220  0.80240  0.58350  1.0000 0.1234477785
H   H21       1.0  0.05240  0.54780  0.33350  1.0000 0.1234477785
H   H22       1.0  0.55240  0.04780  0.83350  1.0000 0.1234477785
H   H23       1.0  0.44760  0.45220  0.83350  1.0000 0.1234477785
H   H24       1.0  0.94760  0.95220  0.33350  1.0000 0.1234477785
H   H25       1.0  0.20220  0.69760  0.91650  1.0000 0.1234477785
H   H26       1.0  0.70220  0.19760  0.41650  1.0000 0.1234477785
H   H27       1.0  0.29780  0.30240  0.41650  1.0000 0.1234477785
H   H28       1.0  0.79780  0.80240  0.91650  1.0000 0.1234477785
H   H29       1.0  0.44760  0.54780  0.16650  1.0000 0.1234477785
H   H30       1.0  0.94760  0.04780  0.66650  1.0000 0.1234477785
H   H31       1.0  0.05240  0.45220  0.66650  1.0000 0.1234477785
H   H32       1.0  0.55240  0.95220  0.16650  1.0000 0.1234477785
C   C1        1.0  0.82300  0.25000  0.50000  1.0000 0.3191886608
C   C2        1.0  0.73700  0.25000  0.37800  1.0000 -0.2408836122
C   C3        1.0  0.67700  0.75000  0.00000  1.0000 0.3191886608
C   C4        1.0  0.76300  0.75000  0.87800  1.0000 -0.2408836122
C   C5        1.0  0.00000  0.57300  0.75000  1.0000 0.3191886608
C   C6        1.0  0.00000  0.48700  0.62800  1.0000 -0.2408836122
C   C7        1.0  0.50000  0.07300  0.25000  1.0000 0.3191886608
C   C8        1.0  0.50000  0.98700  0.12800  1.0000 -0.2408836122
C   C9        1.0  0.50000  0.42700  0.25000  1.0000 0.3191886608
C   C10       1.0  0.50000  0.51300  0.12800  1.0000 -0.2408836122
C   C11       1.0  0.00000  0.92700  0.75000  1.0000 0.3191886608
C   C12       1.0  0.00000  0.01300  0.62800  1.0000 -0.2408836122
C   C13       1.0  0.67700  0.25000  0.00000  1.0000 0.3191886608
C   C14       1.0  0.76300  0.25000  0.12200  1.0000 -0.2408836122
C   C15       1.0  0.82300  0.75000  0.50000  1.0000 0.3191886608
C   C16       1.0  0.73700  0.75000  0.62200  1.0000 -0.2408836122
C   C17       1.0  0.32300  0.25000  0.00000  1.0000 0.3191886608
C   C18       1.0  0.23700  0.25000  0.12200  1.0000 -0.2408836122
C   C19       1.0  0.50000  0.57300  0.75000  1.0000 0.3191886608
C   C20       1.0  0.50000  0.48700  0.87200  1.0000 -0.2408836122
C   C21       1.0  0.00000  0.07300  0.25000  1.0000 0.3191886608
C   C22       1.0  0.00000  0.98700  0.37200  1.0000 -0.2408836122
C   C23       1.0  0.00000  0.42700  0.25000  1.0000 0.3191886608
C   C24       1.0  0.00000  0.51300  0.37200  1.0000 -0.2408836122
C   C25       1.0  0.50000  0.92700  0.75000  1.0000 0.3191886608
C   C26       1.0  0.50000  0.01300  0.87200  1.0000 -0.2408836122
C   C27       1.0  0.17700  0.75000  0.50000  1.0000 0.3191886608
C   C28       1.0  0.26300  0.75000  0.62200  1.0000 -0.2408836122
C   C29       1.0  0.32300  0.75000  0.00000  1.0000 0.3191886608
C   C30       1.0  0.23700  0.75000  0.87800  1.0000 -0.2408836122
C   C31       1.0  0.17700  0.25000  0.50000  1.0000 0.3191886608
C   C32       1.0  0.26300  0.25000  0.37800  1.0000 -0.2408836122
N   N1        1.0  0.88300  0.25000  0.62800  1.0000 -0.4537647601
N   N2        1.0  0.61700  0.75000  0.12800  1.0000 -0.4537647601
N   N3        1.0  0.00000  0.63300  0.87800  1.0000 -0.4537647601
N   N4        1.0  0.50000  0.13300  0.37800  1.0000 -0.4537647601
N   N5        1.0  0.50000  0.36700  0.37800  1.0000 -0.4537647601
N   N6        1.0  0.00000  0.86700  0.87800  1.0000 -0.4537647601
N   N7        1.0  0.61700  0.25000  0.87200  1.0000 -0.4537647601
N   N8        1.0  0.88300  0.75000  0.37200  1.0000 -0.4537647601
N   N9        1.0  0.38300  0.25000  0.87200  1.0000 -0.4537647601
N   N10       1.0  0.50000  0.63300  0.62200  1.0000 -0.4537647601
N   N11       1.0  0.00000  0.13300  0.12200  1.0000 -0.4537647601
N   N12       1.0  0.00000  0.36700  0.12200  1.0000 -0.4537647601
N   N13       1.0  0.50000  0.86700  0.62200  1.0000 -0.4537647601
N   N14       1.0  0.11700  0.75000  0.37200  1.0000 -0.4537647601
N   N15       1.0  0.38300  0.75000  0.12800  1.0000 -0.4537647601
N   N16       1.0  0.11700  0.25000  0.62800  1.0000 -0.4537647601
