# DDEC6 charges by PACMAN v1.1 (https://github.com/mtap-research/PACMAN-charge/)
data_2002[CdZr][qtz]3[ION]2
_chemical_formula_sum              "Zr3 Cd3 H30 C30 N6 O48"
_cell_length_a       9.105
_cell_length_b       9.105
_cell_length_c       23.656
_cell_angle_alpha    90
_cell_angle_beta     90
_cell_angle_gamma    120

_symmetry_space_group_name_H-M    "P 1"
_symmetry_Int_Tables_number       1

loop_
  _symmetry_equiv_pos_as_xyz
  'x, y, z'

loop_
  _atom_site_type_symbol
  _atom_site_label
  _atom_site_symmetry_multiplicity
  _atom_site_fract_x
  _atom_site_fract_y
  _atom_site_fract_z
  _atom_site_occupancy
  _atom_site_charge
Zr  Zr1       1.0  0.85128  0.70257  0.16667  1.0000 2.1096381073
Zr  Zr2       1.0  0.29743  0.14872  0.50000  1.0000 2.1096381073
Zr  Zr3       1.0  0.85128  0.14872  0.83333  1.0000 2.1096381073
Cd  Cd1       1.0  0.81331  0.18669  0.33333  1.0000 0.9973185187
Cd  Cd2       1.0  0.81331  0.62662  0.66667  1.0000 0.9973185187
Cd  Cd3       1.0  0.37338  0.18669  0.00000  1.0000 0.9973185187
H   H1        1.0  0.08110  0.55690  0.95237  1.0000 0.1326861804
H   H2        1.0  0.08110  0.52420  0.04763  1.0000 0.1326861804
H   H3        1.0  0.19350  0.73980  0.97687  1.0000 0.1222676014
H   H4        1.0  0.19350  0.45370  0.02313  1.0000 0.1222676014
H   H5        1.0  0.32840  0.54500  0.92877  1.0000 0.3110902434
H   H6        1.0  0.32840  0.78340  0.07123  1.0000 0.3110902434
H   H7        1.0  0.44230  0.74410  0.95117  1.0000 0.3018750076
H   H8        1.0  0.44230  0.69820  0.04883  1.0000 0.3018750076
H   H9        1.0  0.31680  0.69920  0.89507  1.0000 0.3110902434
H   H10       1.0  0.31680  0.61760  0.10493  1.0000 0.3110902434
H   H11       1.0  0.47580  0.91890  0.61903  1.0000 0.1326861804
H   H12       1.0  0.44310  0.91890  0.71430  1.0000 0.1326861804
H   H13       1.0  0.54630  0.80650  0.64353  1.0000 0.1222676014
H   H14       1.0  0.26020  0.80650  0.68980  1.0000 0.1222676014
H   H15       1.0  0.21660  0.67160  0.59543  1.0000 0.3110902434
H   H16       1.0  0.45500  0.67160  0.73790  1.0000 0.3110902434
H   H17       1.0  0.30180  0.55770  0.61783  1.0000 0.3018750076
H   H18       1.0  0.25590  0.55770  0.71550  1.0000 0.3018750076
H   H19       1.0  0.38240  0.68320  0.56173  1.0000 0.3110902434
H   H20       1.0  0.30080  0.68320  0.77160  1.0000 0.3110902434
H   H21       1.0  0.44310  0.52420  0.28570  1.0000 0.1326861804
H   H22       1.0  0.47580  0.55690  0.38097  1.0000 0.1326861804
H   H23       1.0  0.26020  0.45370  0.31020  1.0000 0.1222676014
H   H24       1.0  0.54630  0.73980  0.35647  1.0000 0.1222676014
H   H25       1.0  0.45500  0.78340  0.26210  1.0000 0.3110902434
H   H26       1.0  0.21660  0.54500  0.40457  1.0000 0.3110902434
H   H27       1.0  0.25590  0.69820  0.28450  1.0000 0.3018750076
H   H28       1.0  0.30180  0.74410  0.38217  1.0000 0.3018750076
H   H29       1.0  0.30080  0.61760  0.22840  1.0000 0.3110902434
H   H30       1.0  0.38240  0.69920  0.43827  1.0000 0.3110902434
C   C1        1.0  0.71730  0.39870  0.24809  1.0000 0.4877787505
C   C2        1.0  0.60130  0.31860  0.58142  1.0000 0.4877787505
C   C3        1.0  0.68140  0.28270  0.91476  1.0000 0.4877787505
C   C4        1.0  0.60130  0.28270  0.41858  1.0000 0.4877787505
C   C5        1.0  0.68140  0.39870  0.08524  1.0000 0.4877787505
C   C6        1.0  0.71730  0.31860  0.75191  1.0000 0.4877787505
C   C7        1.0  0.91090  0.48610  0.25148  1.0000 0.4839299594
C   C8        1.0  0.51390  0.42480  0.58481  1.0000 0.4839299594
C   C9        1.0  0.57520  0.08910  0.91815  1.0000 0.4839299594
C   C10       1.0  0.51390  0.08910  0.41519  1.0000 0.4839299594
C   C11       1.0  0.57520  0.48610  0.08185  1.0000 0.4839299594
C   C12       1.0  0.91090  0.42480  0.74852  1.0000 0.4839299594
C   C13       1.0  0.08820  0.23820  0.42187  1.0000 0.4839299594
C   C14       1.0  0.76180  0.85000  0.75520  1.0000 0.4839299594
C   C15       1.0  0.15000  0.91180  0.08854  1.0000 0.4839299594
C   C16       1.0  0.76180  0.91180  0.24480  1.0000 0.4839299594
C   C17       1.0  0.15000  0.23820  0.91146  1.0000 0.4839299594
C   C18       1.0  0.08820  0.85000  0.57813  1.0000 0.4839299594
C   C19       1.0  0.99960  0.04530  0.41722  1.0000 0.4877787505
C   C20       1.0  0.95470  0.95430  0.75055  1.0000 0.4877787505
C   C21       1.0  0.04570  0.00040  0.08389  1.0000 0.4877787505
C   C22       1.0  0.95470  0.00040  0.24945  1.0000 0.4877787505
C   C23       1.0  0.04570  0.04530  0.91611  1.0000 0.4877787505
C   C24       1.0  0.99960  0.95430  0.58278  1.0000 0.4877787505
C   C25       1.0  0.18750  0.63140  0.97117  1.0000 -0.0542041982
C   C26       1.0  0.18750  0.55610  0.02883  1.0000 -0.0542041982
C   C27       1.0  0.44390  0.81250  0.63783  1.0000 -0.0542041982
C   C28       1.0  0.36860  0.81250  0.69550  1.0000 -0.0542041982
C   C29       1.0  0.36860  0.55610  0.30450  1.0000 -0.0542041982
C   C30       1.0  0.44390  0.63140  0.36217  1.0000 -0.0542041982
N   N1        1.0  0.33010  0.65700  0.93357  1.0000 -0.4499357715
N   N2        1.0  0.33010  0.67310  0.06643  1.0000 -0.4499357715
N   N3        1.0  0.32690  0.66990  0.60023  1.0000 -0.4499357715
N   N4        1.0  0.34300  0.66990  0.73310  1.0000 -0.4499357715
N   N5        1.0  0.34300  0.67310  0.26690  1.0000 -0.4499357715
N   N6        1.0  0.32690  0.65700  0.39977  1.0000 -0.4499357715
O   O1        1.0  0.66370  0.47530  0.21729  1.0000 -0.5711970702
O   O2        1.0  0.52470  0.18840  0.55062  1.0000 -0.5711970702
O   O3        1.0  0.81160  0.33630  0.88396  1.0000 -0.5711970702
O   O4        1.0  0.52470  0.33630  0.44938  1.0000 -0.5711970702
O   O5        1.0  0.81160  0.47530  0.11604  1.0000 -0.5711970702
O   O6        1.0  0.66370  0.18840  0.78271  1.0000 -0.5711970702
O   O7        1.0  0.63310  0.26540  0.27453  1.0000 -0.4712973212
O   O8        1.0  0.73460  0.36770  0.60786  1.0000 -0.4712973212
O   O9        1.0  0.63230  0.36690  0.94120  1.0000 -0.4712973212
O   O10       1.0  0.73460  0.36690  0.39214  1.0000 -0.4712973212
O   O11       1.0  0.63230  0.26540  0.05880  1.0000 -0.4712973212
O   O12       1.0  0.63310  0.36770  0.72547  1.0000 -0.4712973212
O   O13       1.0  0.68070  0.96100  0.27351  1.0000 -0.4712973212
O   O14       1.0  0.03900  0.71970  0.60684  1.0000 -0.4712973212
O   O15       1.0  0.28030  0.31930  0.94018  1.0000 -0.4712973212
O   O16       1.0  0.03900  0.31930  0.39316  1.0000 -0.4712973212
O   O17       1.0  0.28030  0.96100  0.05982  1.0000 -0.4712973212
O   O18       1.0  0.68070  0.71970  0.72649  1.0000 -0.4712973212
O   O19       1.0  0.98920  0.61490  0.21904  1.0000 -0.5711970702
O   O20       1.0  0.38510  0.37430  0.55237  1.0000 -0.5711970702
O   O21       1.0  0.62570  0.01080  0.88571  1.0000 -0.5711970702
O   O22       1.0  0.38510  0.01080  0.44763  1.0000 -0.5711970702
O   O23       1.0  0.62570  0.61490  0.11429  1.0000 -0.5711970702
O   O24       1.0  0.98920  0.37430  0.78096  1.0000 -0.5711970702
O   O25       1.0  0.97880  0.43180  0.28381  1.0000 -0.4712973212
O   O26       1.0  0.56820  0.54700  0.61714  1.0000 -0.4712973212
O   O27       1.0  0.45300  0.02120  0.95048  1.0000 -0.4712973212
O   O28       1.0  0.56820  0.02120  0.38286  1.0000 -0.4712973212
O   O29       1.0  0.45300  0.43180  0.04952  1.0000 -0.4712973212
O   O30       1.0  0.97880  0.54700  0.71619  1.0000 -0.4712973212
O   O31       1.0  0.07360  0.97950  0.44579  1.0000 -0.5813342209
O   O32       1.0  0.02050  0.09410  0.77912  1.0000 -0.5813342209
O   O33       1.0  0.90590  0.92640  0.11246  1.0000 -0.5813342209
O   O34       1.0  0.02050  0.92640  0.22088  1.0000 -0.5813342209
O   O35       1.0  0.90590  0.97950  0.88754  1.0000 -0.5813342209
O   O36       1.0  0.07360  0.09410  0.55421  1.0000 -0.5813342209
O   O37       1.0  0.02940  0.12800  0.27907  1.0000 -0.4758445894
O   O38       1.0  0.87200  0.90140  0.61240  1.0000 -0.4758445894
O   O39       1.0  0.09860  0.97060  0.94574  1.0000 -0.4758445894
O   O40       1.0  0.87200  0.97060  0.38760  1.0000 -0.4758445894
O   O41       1.0  0.09860  0.12800  0.05426  1.0000 -0.4758445894
O   O42       1.0  0.02940  0.90140  0.72093  1.0000 -0.4758445894
O   O43       1.0  0.21230  0.30450  0.45558  1.0000 -0.5583001251
O   O44       1.0  0.69550  0.90780  0.78891  1.0000 -0.5583001251
O   O45       1.0  0.09220  0.78770  0.12225  1.0000 -0.5583001251
O   O46       1.0  0.69550  0.78770  0.21109  1.0000 -0.5583001251
O   O47       1.0  0.09220  0.30450  0.87775  1.0000 -0.5583001251
O   O48       1.0  0.21230  0.90780  0.54442  1.0000 -0.5583001251
