# DDEC6 charges by PACMAN v1.1 (https://github.com/mtap-research/PACMAN-charge/)
data_2002[Cd][nan]3[ION]2
_chemical_formula_sum              "Cd24 H56 C104 N64"
_cell_length_a       13.74
_cell_length_b       27.03
_cell_length_c       13.647
_cell_angle_alpha    90
_cell_angle_beta     90
_cell_angle_gamma    90

_symmetry_space_group_name_H-M    "P 1"
_symmetry_Int_Tables_number       1

loop_
  _symmetry_equiv_pos_as_xyz
  'x, y, z'

loop_
  _atom_site_type_symbol
  _atom_site_label
  _atom_site_symmetry_multiplicity
  _atom_site_fract_x
  _atom_site_fract_y
  _atom_site_fract_z
  _atom_site_occupancy
  _atom_site_charge
Cd  Cd1       1.0  0.83208  0.87481  0.99767  1.0000 0.9521724495
Cd  Cd2       1.0  0.46977  0.80749  0.13680  1.0000 0.5408201056
Cd  Cd3       1.0  0.22078  0.92325  0.89089  1.0000 0.4279048207
Cd  Cd4       1.0  0.66792  0.12519  0.49767  1.0000 0.9521724495
Cd  Cd5       1.0  0.03023  0.19251  0.63680  1.0000 0.5408201056
Cd  Cd6       1.0  0.27922  0.07675  0.39089  1.0000 0.4279048207
Cd  Cd7       1.0  0.16792  0.37481  0.50233  1.0000 0.9521724495
Cd  Cd8       1.0  0.53023  0.30749  0.36320  1.0000 0.5408201056
Cd  Cd9       1.0  0.77922  0.42325  0.60911  1.0000 0.4279048207
Cd  Cd10      1.0  0.33208  0.62519  0.00233  1.0000 0.9521724495
Cd  Cd11      1.0  0.96977  0.69251  0.86320  1.0000 0.5408201056
Cd  Cd12      1.0  0.72078  0.57675  0.10911  1.0000 0.4279048207
Cd  Cd13      1.0  0.16792  0.12519  0.00233  1.0000 0.9521724495
Cd  Cd14      1.0  0.53023  0.19251  0.86320  1.0000 0.5408201056
Cd  Cd15      1.0  0.77922  0.07675  0.10911  1.0000 0.4279048207
Cd  Cd16      1.0  0.33208  0.87481  0.50233  1.0000 0.9521724495
Cd  Cd17      1.0  0.96977  0.80749  0.36320  1.0000 0.5408201056
Cd  Cd18      1.0  0.72078  0.92325  0.60911  1.0000 0.4279048207
Cd  Cd19      1.0  0.83208  0.62519  0.49767  1.0000 0.9521724495
Cd  Cd20      1.0  0.46977  0.69251  0.63680  1.0000 0.5408201056
Cd  Cd21      1.0  0.22078  0.57675  0.39089  1.0000 0.4279048207
Cd  Cd22      1.0  0.66792  0.37481  0.99767  1.0000 0.9521724495
Cd  Cd23      1.0  0.03023  0.30749  0.13680  1.0000 0.5408201056
Cd  Cd24      1.0  0.27922  0.42325  0.89089  1.0000 0.4279048207
H   H1        1.0  0.59530  0.91980  0.21150  1.0000 0.1205485293
H   H2        1.0  0.56630  0.92890  0.04580  1.0000 0.1406782909
H   H3        1.0  0.46340  0.06430  0.09960  1.0000 0.1496574275
H   H4        1.0  0.49290  0.05080  0.26240  1.0000 0.1205485293
H   H5        1.0  0.58720  0.94410  0.37000  1.0000 0.1496574275
H   H6        1.0  0.51170  0.98580  0.39500  1.0000 0.1496574275
H   H7        1.0  0.62080  0.99950  0.37550  1.0000 0.1496574275
H   H8        1.0  0.90470  0.08020  0.71150  1.0000 0.1205485293
H   H9        1.0  0.93370  0.07110  0.54580  1.0000 0.1406782909
H   H10       1.0  0.03660  0.93570  0.59960  1.0000 0.1496574275
H   H11       1.0  0.00710  0.94920  0.76240  1.0000 0.1205485293
H   H12       1.0  0.91280  0.05590  0.87000  1.0000 0.1496574275
H   H13       1.0  0.98830  0.01420  0.89500  1.0000 0.1496574275
H   H14       1.0  0.87920  0.00050  0.87550  1.0000 0.1496574275
H   H15       1.0  0.40470  0.41980  0.28850  1.0000 0.1205485293
H   H16       1.0  0.43370  0.42890  0.45420  1.0000 0.1406782909
H   H17       1.0  0.53660  0.56430  0.40040  1.0000 0.1496574275
H   H18       1.0  0.50710  0.55080  0.23760  1.0000 0.1205485293
H   H19       1.0  0.41280  0.44410  0.13000  1.0000 0.1496574275
H   H20       1.0  0.48830  0.48580  0.10500  1.0000 0.1496574275
H   H21       1.0  0.37920  0.49950  0.12450  1.0000 0.1496574275
H   H22       1.0  0.09530  0.58020  0.78850  1.0000 0.1205485293
H   H23       1.0  0.06630  0.57110  0.95420  1.0000 0.1406782909
H   H24       1.0  0.96340  0.43570  0.90040  1.0000 0.1496574275
H   H25       1.0  0.99290  0.44920  0.73760  1.0000 0.1205485293
H   H26       1.0  0.08720  0.55590  0.63000  1.0000 0.1496574275
H   H27       1.0  0.01170  0.51420  0.60500  1.0000 0.1496574275
H   H28       1.0  0.12080  0.50050  0.62450  1.0000 0.1496574275
H   H29       1.0  0.40470  0.08020  0.78850  1.0000 0.1205485293
H   H30       1.0  0.43370  0.07110  0.95420  1.0000 0.1406782909
H   H31       1.0  0.53660  0.93570  0.90040  1.0000 0.1496574275
H   H32       1.0  0.50710  0.94920  0.73760  1.0000 0.1205485293
H   H33       1.0  0.41280  0.05590  0.63000  1.0000 0.1496574275
H   H34       1.0  0.48830  0.01420  0.60500  1.0000 0.1496574275
H   H35       1.0  0.37920  0.00050  0.62450  1.0000 0.1496574275
H   H36       1.0  0.09530  0.91980  0.28850  1.0000 0.1205485293
H   H37       1.0  0.06630  0.92890  0.45420  1.0000 0.1406782909
H   H38       1.0  0.96340  0.06430  0.40040  1.0000 0.1496574275
H   H39       1.0  0.99290  0.05080  0.23760  1.0000 0.1205485293
H   H40       1.0  0.08720  0.94410  0.13000  1.0000 0.1496574275
H   H41       1.0  0.01170  0.98580  0.10500  1.0000 0.1496574275
H   H42       1.0  0.12080  0.99950  0.12450  1.0000 0.1496574275
H   H43       1.0  0.59530  0.58020  0.71150  1.0000 0.1205485293
H   H44       1.0  0.56630  0.57110  0.54580  1.0000 0.1406782909
H   H45       1.0  0.46340  0.43570  0.59960  1.0000 0.1496574275
H   H46       1.0  0.49290  0.44920  0.76240  1.0000 0.1205485293
H   H47       1.0  0.58720  0.55590  0.87000  1.0000 0.1496574275
H   H48       1.0  0.51170  0.51420  0.89500  1.0000 0.1496574275
H   H49       1.0  0.62080  0.50050  0.87550  1.0000 0.1496574275
H   H50       1.0  0.90470  0.41980  0.21150  1.0000 0.1205485293
H   H51       1.0  0.93370  0.42890  0.04580  1.0000 0.1406782909
H   H52       1.0  0.03660  0.56430  0.09960  1.0000 0.1496574275
H   H53       1.0  0.00710  0.55080  0.26240  1.0000 0.1205485293
H   H54       1.0  0.91280  0.44410  0.37000  1.0000 0.1496574275
H   H55       1.0  0.98830  0.48580  0.39500  1.0000 0.1496574275
H   H56       1.0  0.87920  0.49950  0.37550  1.0000 0.1496574275
C   C1        1.0  0.60980  0.83290  0.07460  1.0000 -0.023420178
C   C2        1.0  0.92150  0.84130  0.22370  1.0000 -0.0285400872
C   C3        1.0  0.06800  0.90310  0.92680  1.0000 -0.0380722692
C   C4        1.0  0.75610  0.91080  0.76580  1.0000 -0.052278898
C   C5        1.0  0.32620  0.88640  0.98890  1.0000 -0.0380722692
C   C6        1.0  0.78760  0.99550  0.07620  1.0000 -0.0628188935
C   C7        1.0  0.90100  0.76140  0.91700  1.0000 0.0516633151
C   C8        1.0  0.56780  0.94890  0.18820  1.0000 0.0516633151
C   C9        1.0  0.55000  0.95450  0.08810  1.0000 -0.1867288323
C   C10       1.0  0.50910  0.99680  0.05030  1.0000 0.0994390563
C   C11       1.0  0.48920  0.03420  0.12000  1.0000 -0.1867288323
C   C12       1.0  0.50800  0.02620  0.21730  1.0000 0.0186078537
C   C13       1.0  0.56860  0.97780  0.35740  1.0000 -0.3482967218
C   C14       1.0  0.89020  0.16710  0.57460  1.0000 -0.023420178
C   C15       1.0  0.57850  0.15870  0.72370  1.0000 -0.0285400872
C   C16       1.0  0.43200  0.09690  0.42680  1.0000 -0.0380722692
C   C17       1.0  0.74390  0.08920  0.26580  1.0000 -0.052278898
C   C18       1.0  0.17380  0.11360  0.48890  1.0000 -0.0380722692
C   C19       1.0  0.71240  0.00450  0.57620  1.0000 -0.0628188935
C   C20       1.0  0.59900  0.23860  0.41700  1.0000 0.0516633151
C   C21       1.0  0.93220  0.05110  0.68820  1.0000 0.0516633151
C   C22       1.0  0.95000  0.04550  0.58810  1.0000 -0.1867288323
C   C23       1.0  0.99090  0.00320  0.55030  1.0000 0.0994390563
C   C24       1.0  0.01080  0.96580  0.62000  1.0000 -0.1847731111
C   C25       1.0  0.99200  0.97380  0.71730  1.0000 0.0186078537
C   C26       1.0  0.93140  0.02220  0.85740  1.0000 -0.3482967218
C   C27       1.0  0.39020  0.33290  0.42540  1.0000 -0.023420178
C   C28       1.0  0.07850  0.34130  0.27630  1.0000 -0.0285400872
C   C29       1.0  0.93200  0.40310  0.57320  1.0000 -0.0380722692
C   C30       1.0  0.24390  0.41080  0.73420  1.0000 -0.052278898
C   C31       1.0  0.67380  0.38640  0.51110  1.0000 -0.0380722692
C   C32       1.0  0.21240  0.49550  0.42380  1.0000 -0.0628188935
C   C33       1.0  0.09900  0.26140  0.58300  1.0000 0.0516633151
C   C34       1.0  0.43220  0.44890  0.31180  1.0000 0.0516633151
C   C35       1.0  0.45000  0.45450  0.41190  1.0000 -0.1867288323
C   C36       1.0  0.49090  0.49680  0.44970  1.0000 0.0994390563
C   C37       1.0  0.51080  0.53420  0.38000  1.0000 -0.1867288323
C   C38       1.0  0.49200  0.52620  0.28270  1.0000 0.0186078537
C   C39       1.0  0.43140  0.47780  0.14260  1.0000 -0.3482967218
C   C40       1.0  0.10980  0.66710  0.92540  1.0000 -0.023420178
C   C41       1.0  0.42150  0.65870  0.77630  1.0000 -0.0285400872
C   C42       1.0  0.56800  0.59690  0.07320  1.0000 -0.0380722692
C   C43       1.0  0.25610  0.58920  0.23420  1.0000 -0.052278898
C   C44       1.0  0.82620  0.61360  0.01110  1.0000 -0.0380722692
C   C45       1.0  0.28760  0.50450  0.92380  1.0000 -0.0628188935
C   C46       1.0  0.40100  0.73860  0.08300  1.0000 0.0516633151
C   C47       1.0  0.06780  0.55110  0.81180  1.0000 0.0516633151
C   C48       1.0  0.05000  0.54550  0.91190  1.0000 -0.1867288323
C   C49       1.0  0.00910  0.50320  0.94970  1.0000 0.0994390563
C   C50       1.0  0.98920  0.46580  0.88000  1.0000 -0.1847731111
C   C51       1.0  0.00800  0.47380  0.78270  1.0000 0.0186078537
C   C52       1.0  0.06860  0.52220  0.64260  1.0000 -0.3482967218
C   C53       1.0  0.39020  0.16710  0.92540  1.0000 -0.0285400872
C   C54       1.0  0.07850  0.15870  0.77630  1.0000 -0.0285400872
C   C55       1.0  0.93200  0.09690  0.07320  1.0000 -0.0380722692
C   C56       1.0  0.24390  0.08920  0.23420  1.0000 -0.052278898
C   C57       1.0  0.67380  0.11360  0.01110  1.0000 -0.0380722692
C   C58       1.0  0.21240  0.00450  0.92380  1.0000 -0.0628188935
C   C59       1.0  0.09900  0.23860  0.08300  1.0000 0.0516633151
C   C60       1.0  0.43220  0.05110  0.81180  1.0000 0.0516633151
C   C61       1.0  0.45000  0.04550  0.91190  1.0000 -0.1867288323
C   C62       1.0  0.49090  0.00320  0.94970  1.0000 0.0994390563
C   C63       1.0  0.51080  0.96580  0.88000  1.0000 -0.1847731111
C   C64       1.0  0.49200  0.97380  0.78270  1.0000 0.0186078537
C   C65       1.0  0.43140  0.02220  0.64260  1.0000 -0.3482967218
C   C66       1.0  0.10980  0.83290  0.42540  1.0000 -0.0285400872
C   C67       1.0  0.42150  0.84130  0.27630  1.0000 -0.0285400872
C   C68       1.0  0.56800  0.90310  0.57320  1.0000 -0.0380722692
C   C69       1.0  0.25610  0.91080  0.73420  1.0000 -0.052278898
C   C70       1.0  0.82620  0.88640  0.51110  1.0000 -0.0380722692
C   C71       1.0  0.28760  0.99550  0.42380  1.0000 -0.0628188935
C   C72       1.0  0.40100  0.76140  0.58300  1.0000 0.0516633151
C   C73       1.0  0.06780  0.94890  0.31180  1.0000 0.0516633151
C   C74       1.0  0.05000  0.95450  0.41190  1.0000 -0.1867288323
C   C75       1.0  0.00910  0.99680  0.44970  1.0000 0.0994390563
C   C76       1.0  0.98920  0.03420  0.38000  1.0000 -0.1867288323
C   C77       1.0  0.00800  0.02620  0.28270  1.0000 0.0186078537
C   C78       1.0  0.06860  0.97780  0.14260  1.0000 -0.3482967218
C   C79       1.0  0.60980  0.66710  0.57460  1.0000 -0.023420178
C   C80       1.0  0.92150  0.65870  0.72370  1.0000 -0.0285400872
C   C81       1.0  0.06800  0.59690  0.42680  1.0000 -0.0380722692
C   C82       1.0  0.75610  0.58920  0.26580  1.0000 -0.052278898
C   C83       1.0  0.32620  0.61360  0.48890  1.0000 -0.0380722692
C   C84       1.0  0.78760  0.50450  0.57620  1.0000 -0.0628188935
C   C85       1.0  0.90100  0.73860  0.41700  1.0000 0.0516633151
C   C86       1.0  0.56780  0.55110  0.68820  1.0000 0.0516633151
C   C87       1.0  0.55000  0.54550  0.58810  1.0000 -0.1867288323
C   C88       1.0  0.50910  0.50320  0.55030  1.0000 0.0994390563
C   C89       1.0  0.48920  0.46580  0.62000  1.0000 -0.1867288323
C   C90       1.0  0.50800  0.47380  0.71730  1.0000 0.0186078537
C   C91       1.0  0.56860  0.52220  0.85740  1.0000 -0.3482967218
C   C92       1.0  0.89020  0.33290  0.07460  1.0000 -0.023420178
C   C93       1.0  0.57850  0.34130  0.22370  1.0000 -0.0285400872
C   C94       1.0  0.43200  0.40310  0.92680  1.0000 -0.0380722692
C   C95       1.0  0.74390  0.41080  0.76580  1.0000 -0.052278898
C   C96       1.0  0.17380  0.38640  0.98890  1.0000 -0.0380722692
C   C97       1.0  0.71240  0.49550  0.07620  1.0000 -0.0628188935
C   C98       1.0  0.59900  0.26140  0.91700  1.0000 0.0516633151
C   C99       1.0  0.93220  0.44890  0.18820  1.0000 0.0516633151
C   C100      1.0  0.95000  0.45450  0.08810  1.0000 -0.1867288323
C   C101      1.0  0.99090  0.49680  0.05030  1.0000 0.0994390563
C   C102      1.0  0.01080  0.53420  0.12000  1.0000 -0.1867288323
C   C103      1.0  0.99200  0.52620  0.21730  1.0000 0.0186078537
C   C104      1.0  0.93140  0.47780  0.35740  1.0000 -0.3482967218
N   N1        1.0  0.68070  0.84900  0.04330  1.0000 -0.3388895702
N   N2        1.0  0.89440  0.85660  0.15400  1.0000 -0.3166857746
N   N3        1.0  0.98860  0.89730  0.94800  1.0000 -0.3310036547
N   N4        1.0  0.77590  0.90200  0.84270  1.0000 -0.3310036547
N   N5        1.0  0.37700  0.86670  0.03750  1.0000 -0.3103748237
N   N6        1.0  0.79970  0.95520  0.05460  1.0000 -0.3388895702
N   N7        1.0  0.86880  0.79620  0.94300  1.0000 -0.3310036547
N   N8        1.0  0.54640  0.98400  0.24880  1.0000 0.1406782909
N   N9        1.0  0.81930  0.15100  0.54330  1.0000 -0.3388895702
N   N10       1.0  0.60560  0.14340  0.65400  1.0000 -0.3166857746
N   N11       1.0  0.51140  0.10270  0.44800  1.0000 -0.3310036547
N   N12       1.0  0.72410  0.09800  0.34270  1.0000 -0.3310036547
N   N13       1.0  0.12300  0.13330  0.53750  1.0000 -0.3103748237
N   N14       1.0  0.70030  0.04480  0.55460  1.0000 -0.3388895702
N   N15       1.0  0.63120  0.20380  0.44300  1.0000 -0.3310036547
N   N16       1.0  0.95360  0.01600  0.74880  1.0000 0.1406782909
N   N17       1.0  0.31930  0.34900  0.45670  1.0000 -0.3388895702
N   N18       1.0  0.10560  0.35660  0.34600  1.0000 -0.3166857746
N   N19       1.0  0.01140  0.39730  0.55200  1.0000 -0.3310036547
N   N20       1.0  0.22410  0.40200  0.65730  1.0000 -0.3310036547
N   N21       1.0  0.62300  0.36670  0.46250  1.0000 -0.3103748237
N   N22       1.0  0.20030  0.45520  0.44540  1.0000 -0.3388895702
N   N23       1.0  0.13120  0.29620  0.55700  1.0000 -0.3310036547
N   N24       1.0  0.45360  0.48400  0.25120  1.0000 0.1406782909
N   N25       1.0  0.18070  0.65100  0.95670  1.0000 -0.3388895702
N   N26       1.0  0.39440  0.64340  0.84600  1.0000 -0.3166857746
N   N27       1.0  0.48860  0.60270  0.05200  1.0000 -0.3310036547
N   N28       1.0  0.27590  0.59800  0.15730  1.0000 -0.3310036547
N   N29       1.0  0.87700  0.63330  0.96250  1.0000 -0.3103748237
N   N30       1.0  0.29970  0.54480  0.94540  1.0000 -0.3388895702
N   N31       1.0  0.36880  0.70380  0.05700  1.0000 -0.3310036547
N   N32       1.0  0.04640  0.51600  0.75120  1.0000 0.1406782909
N   N33       1.0  0.31930  0.15100  0.95670  1.0000 -0.3388895702
N   N34       1.0  0.10560  0.14340  0.84600  1.0000 -0.3166857746
N   N35       1.0  0.01140  0.10270  0.05200  1.0000 -0.3310036547
N   N36       1.0  0.22410  0.09800  0.15730  1.0000 -0.3310036547
N   N37       1.0  0.62300  0.13330  0.96250  1.0000 -0.3103748237
N   N38       1.0  0.20030  0.04480  0.94540  1.0000 -0.3388895702
N   N39       1.0  0.13120  0.20380  0.05700  1.0000 -0.3310036547
N   N40       1.0  0.45360  0.01600  0.75120  1.0000 0.1406782909
N   N41       1.0  0.18070  0.84900  0.45670  1.0000 -0.3388895702
N   N42       1.0  0.39440  0.85660  0.34600  1.0000 -0.3166857746
N   N43       1.0  0.48860  0.89730  0.55200  1.0000 -0.3310036547
N   N44       1.0  0.27590  0.90200  0.65730  1.0000 -0.3310036547
N   N45       1.0  0.87700  0.86670  0.46250  1.0000 -0.3103748237
N   N46       1.0  0.29970  0.95520  0.44540  1.0000 -0.3388895702
N   N47       1.0  0.36880  0.79620  0.55700  1.0000 -0.3310036547
N   N48       1.0  0.04640  0.98400  0.25120  1.0000 0.1406782909
N   N49       1.0  0.68070  0.65100  0.54330  1.0000 -0.3388895702
N   N50       1.0  0.89440  0.64340  0.65400  1.0000 -0.3166857746
N   N51       1.0  0.98860  0.60270  0.44800  1.0000 -0.3310036547
N   N52       1.0  0.77590  0.59800  0.34270  1.0000 -0.3310036547
N   N53       1.0  0.37700  0.63330  0.53750  1.0000 -0.3103748237
N   N54       1.0  0.79970  0.54480  0.55460  1.0000 -0.3388895702
N   N55       1.0  0.86880  0.70380  0.44300  1.0000 -0.3310036547
N   N56       1.0  0.54640  0.51600  0.74880  1.0000 0.1406782909
N   N57       1.0  0.81930  0.34900  0.04330  1.0000 -0.3388895702
N   N58       1.0  0.60560  0.35660  0.15400  1.0000 -0.3166857746
N   N59       1.0  0.51140  0.39730  0.94800  1.0000 -0.3310036547
N   N60       1.0  0.72410  0.40200  0.84270  1.0000 -0.3310036547
N   N61       1.0  0.12300  0.36670  0.03750  1.0000 -0.3103748237
N   N62       1.0  0.70030  0.45520  0.05460  1.0000 -0.3388895702
N   N63       1.0  0.63120  0.29620  0.94300  1.0000 -0.3310036547
N   N64       1.0  0.95360  0.48400  0.24880  1.0000 0.1406782909
