# DDEC6 charges by PACMAN v1.1 (https://github.com/mtap-research/PACMAN-charge/)
data_2002[Cu][pcu]3[ION]1
_chemical_formula_sum              "Cu2 P3 H32 C40 N9 O3 F18"
_cell_length_a       13.4779
_cell_length_b       13.4779
_cell_length_c       11.1085
_cell_angle_alpha    93.0476
_cell_angle_beta     93.0476
_cell_angle_gamma    69.2325

_symmetry_space_group_name_H-M    "P 1"
_symmetry_Int_Tables_number       1

loop_
  _symmetry_equiv_pos_as_xyz
  'x, y, z'

loop_
  _atom_site_type_symbol
  _atom_site_label
  _atom_site_symmetry_multiplicity
  _atom_site_fract_x
  _atom_site_fract_y
  _atom_site_fract_z
  _atom_site_occupancy
  _atom_site_charge
Cu  Cu1       1.0  0.27775  0.72225  0.00000  1.0000 0.6085110544
Cu  Cu2       1.0  0.72225  0.27775  0.00000  1.0000 0.6085110544
P   P1        1.0  0.00000  0.00000  0.00000  1.0000 1.4093637406
P   P2        1.0  0.63160  0.63160  0.66000  1.0000 1.49345147
P   P3        1.0  0.36840  0.36840  0.34000  1.0000 1.49345147
H   H1        1.0  0.34080  0.57060  0.79230  1.0000 0.0917847295
H   H2        1.0  0.34760  0.56960  0.57900  1.0000 0.140192756
H   H3        1.0  0.19000  0.88700  0.59750  1.0000 0.1342952936
H   H4        1.0  0.19530  0.88190  0.80760  1.0000 0.1000721667
H   H5        1.0  0.47200  0.73080  0.89890  1.0000 0.1000721667
H   H6        1.0  0.56590  0.84730  0.89110  1.0000 0.1342952936
H   H7        1.0  0.35490  0.05170  0.11460  1.0000 0.140192756
H   H8        1.0  0.26670  0.93090  0.11530  1.0000 0.1068835059
H   H9        1.0  0.42940  0.65920  0.20770  1.0000 0.1000721667
H   H10       1.0  0.43040  0.65240  0.42100  1.0000 0.140192756
H   H11       1.0  0.11300  0.81000  0.40250  1.0000 0.1342952936
H   H12       1.0  0.11810  0.80470  0.19240  1.0000 0.1068835059
H   H13       1.0  0.26920  0.52800  0.10110  1.0000 0.1000721667
H   H14       1.0  0.15270  0.43410  0.10890  1.0000 0.140192756
H   H15       1.0  0.94830  0.64510  0.88540  1.0000 0.140192756
H   H16       1.0  0.06910  0.73330  0.88470  1.0000 0.1000721667
H   H17       1.0  0.65920  0.42940  0.20770  1.0000 0.1000721667
H   H18       1.0  0.65240  0.43040  0.42100  1.0000 0.140192756
H   H19       1.0  0.81000  0.11300  0.40250  1.0000 0.140192756
H   H20       1.0  0.80470  0.11810  0.19240  1.0000 0.1000721667
H   H21       1.0  0.52800  0.26920  0.10110  1.0000 0.1000721667
H   H22       1.0  0.43410  0.15270  0.10890  1.0000 0.140192756
H   H23       1.0  0.64510  0.94830  0.88540  1.0000 0.140192756
H   H24       1.0  0.73330  0.06910  0.88470  1.0000 0.1000721667
H   H25       1.0  0.57060  0.34080  0.79230  1.0000 0.0917847295
H   H26       1.0  0.56960  0.34760  0.57900  1.0000 0.140192756
H   H27       1.0  0.88700  0.19000  0.59750  1.0000 0.1342952936
H   H28       1.0  0.88190  0.19530  0.80760  1.0000 0.1000721667
H   H29       1.0  0.73080  0.47200  0.89890  1.0000 0.1000721667
H   H30       1.0  0.84730  0.56590  0.89110  1.0000 0.1342952936
H   H31       1.0  0.05170  0.35490  0.11460  1.0000 0.140192756
H   H32       1.0  0.93090  0.26670  0.11530  1.0000 0.1068835059
C   C1        1.0  0.31150  0.63690  0.75140  1.0000 0.1000721667
C   C2        1.0  0.31370  0.63590  0.62530  1.0000 -0.1602553078
C   C3        1.0  0.26790  0.72990  0.56690  1.0000 0.1161585464
C   C4        1.0  0.22500  0.81960  0.63680  1.0000 -0.1690511329
C   C5        1.0  0.22710  0.81650  0.75980  1.0000 0.081895811
C   C6        1.0  0.44780  0.79780  0.94410  1.0000 0.1000721667
C   C7        1.0  0.50300  0.86740  0.93900  1.0000 -0.1690511329
C   C8        1.0  0.47040  0.96180  0.00100  1.0000 0.1068835059
C   C9        1.0  0.38210  0.98430  0.06890  1.0000 -0.1690511329
C   C10       1.0  0.32920  0.91400  0.06890  1.0000 0.081895811
C   C11       1.0  0.36310  0.68850  0.24860  1.0000 0.0917847295
C   C12       1.0  0.36410  0.68630  0.37470  1.0000 -0.1602553078
C   C13       1.0  0.27010  0.73210  0.43310  1.0000 0.1161585464
C   C14       1.0  0.18040  0.77500  0.36320  1.0000 -0.1690511329
C   C15       1.0  0.18350  0.77290  0.24020  1.0000 0.081895811
C   C16       1.0  0.20220  0.55220  0.05590  1.0000 0.1000721667
C   C17       1.0  0.13260  0.49700  0.06100  1.0000 -0.1690511329
C   C18       1.0  0.03820  0.52960  0.99900  1.0000 0.1068835059
C   C19       1.0  0.01570  0.61790  0.93110  1.0000 -0.1690511329
C   C20       1.0  0.08600  0.67080  0.93110  1.0000 0.081895811
C   C21       1.0  0.68850  0.36310  0.24860  1.0000 0.1000721667
C   C22       1.0  0.68630  0.36410  0.37470  1.0000 -0.1602553078
C   C23       1.0  0.73210  0.27010  0.43310  1.0000 0.1161585464
C   C24       1.0  0.77500  0.18040  0.36320  1.0000 -0.1690511329
C   C25       1.0  0.77290  0.18350  0.24020  1.0000 0.081895811
C   C26       1.0  0.55220  0.20220  0.05590  1.0000 0.1000721667
C   C27       1.0  0.49700  0.13260  0.06100  1.0000 -0.1690511329
C   C28       1.0  0.52960  0.03820  0.99900  1.0000 0.1068835059
C   C29       1.0  0.61790  0.01570  0.93110  1.0000 -0.1690511329
C   C30       1.0  0.67080  0.08600  0.93110  1.0000 0.081895811
C   C31       1.0  0.63690  0.31150  0.75140  1.0000 0.1000721667
C   C32       1.0  0.63590  0.31370  0.62530  1.0000 -0.1602553078
C   C33       1.0  0.72990  0.26790  0.56690  1.0000 0.1161585464
C   C34       1.0  0.81960  0.22500  0.63680  1.0000 -0.1690511329
C   C35       1.0  0.81650  0.22710  0.75980  1.0000 0.081895811
C   C36       1.0  0.79780  0.44780  0.94410  1.0000 0.1000721667
C   C37       1.0  0.86740  0.50300  0.93900  1.0000 -0.1690511329
C   C38       1.0  0.96180  0.47040  0.00100  1.0000 0.1068835059
C   C39       1.0  0.98430  0.38210  0.06890  1.0000 -0.1690511329
C   C40       1.0  0.91400  0.32920  0.06890  1.0000 0.081895811
N   N1        1.0  0.27080  0.72540  0.81740  1.0000 -0.2193058566
N   N2        1.0  0.36090  0.82130  0.00670  1.0000 -0.2137563289
N   N3        1.0  0.27460  0.72920  0.18260  1.0000 -0.2193058566
N   N4        1.0  0.17870  0.63910  0.99330  1.0000 -0.2193058566
N   N5        1.0  0.72920  0.27460  0.18260  1.0000 -0.2193058566
N   N6        1.0  0.63910  0.17870  0.99330  1.0000 -0.2193058566
N   N7        1.0  0.72540  0.27080  0.81740  1.0000 -0.2193058566
N   N8        1.0  0.82130  0.36090  0.00670  1.0000 -0.2137563289
N   N9        1.0  0.48620  0.48620  0.98100  1.0000 0.6218758761
O   O1        1.0  0.42840  0.57160  0.00000  1.0000 -0.3261029781
O   O2        1.0  0.57160  0.42840  0.00000  1.0000 -0.3261029781
O   O3        1.0  0.43410  0.43410  0.92750  1.0000 -0.3115873397
F   F1        1.0  0.73100  0.52440  0.66290  1.0000 -0.4008296193
F   F2        1.0  0.47560  0.26900  0.33710  1.0000 -0.4008296193
F   F3        1.0  0.26900  0.47560  0.33710  1.0000 -0.4008296193
F   F4        1.0  0.52440  0.73100  0.66290  1.0000 -0.4008296193
F   F5        1.0  0.10270  0.89730  0.00000  1.0000 -0.4116566937
F   F6        1.0  0.89730  0.10270  0.00000  1.0000 -0.4154113294
F   F7        1.0  0.58210  0.58210  0.75750  1.0000 -0.4116566937
F   F8        1.0  0.58390  0.58390  0.55610  1.0000 -0.3803001882
F   F9        1.0  0.68200  0.68200  0.57090  1.0000 -0.3902702392
F   F10       1.0  0.67590  0.67590  0.77290  1.0000 -0.3803001882
F   F11       1.0  0.41790  0.41790  0.24250  1.0000 -0.4116566937
F   F12       1.0  0.41610  0.41610  0.44390  1.0000 -0.3803001882
F   F13       1.0  0.31800  0.31800  0.42910  1.0000 -0.3803001882
F   F14       1.0  0.32410  0.32410  0.22710  1.0000 -0.3803001882
F   F15       1.0  0.97290  0.97290  0.11750  1.0000 -0.3677882166
F   F16       1.0  0.06310  0.06310  0.05700  1.0000 -0.3677882166
F   F17       1.0  0.02710  0.02710  0.88250  1.0000 -0.3677882166
F   F18       1.0  0.93690  0.93690  0.94300  1.0000 -0.3677882166
