# DDEC6 charges by PACMAN v1.1 (https://github.com/mtap-research/PACMAN-charge/)
data_2002[Zn][nan]3[ION]1
_chemical_formula_sum              "Zn16 P12 H16 C4 N2 O52"
_cell_length_a       15.284
_cell_length_b       17.726
_cell_length_c       5.1882
_cell_angle_alpha    90
_cell_angle_beta     90
_cell_angle_gamma    90

_symmetry_space_group_name_H-M    "P 1"
_symmetry_Int_Tables_number       1

loop_
  _symmetry_equiv_pos_as_xyz
  'x, y, z'

loop_
  _atom_site_type_symbol
  _atom_site_label
  _atom_site_symmetry_multiplicity
  _atom_site_fract_x
  _atom_site_fract_y
  _atom_site_fract_z
  _atom_site_occupancy
  _atom_site_charge
Zn  Zn1       1.0  0.28064  0.80316  0.66760  1.0000 1.0615945878
Zn  Zn2       1.0  0.10691  0.80464  0.26480  1.0000 1.0990935387
Zn  Zn3       1.0  0.40651  0.75190  0.17260  1.0000 1.0990935387
Zn  Zn4       1.0  0.26684  0.06355  0.35040  1.0000 1.1959201219
Zn  Zn5       1.0  0.71936  0.19684  0.66760  1.0000 1.0615945878
Zn  Zn6       1.0  0.89309  0.19536  0.26480  1.0000 1.0990935387
Zn  Zn7       1.0  0.59349  0.24810  0.17260  1.0000 1.0990935387
Zn  Zn8       1.0  0.73316  0.93645  0.35040  1.0000 1.1959201219
Zn  Zn9       1.0  0.78064  0.69684  0.16760  1.0000 1.0615945878
Zn  Zn10      1.0  0.60691  0.69536  0.76480  1.0000 1.0990935387
Zn  Zn11      1.0  0.90651  0.74810  0.67260  1.0000 1.0990935387
Zn  Zn12      1.0  0.76684  0.43645  0.85040  1.0000 1.1959201219
Zn  Zn13      1.0  0.21936  0.30316  0.16760  1.0000 1.0615945878
Zn  Zn14      1.0  0.39309  0.30464  0.76480  1.0000 1.0990935387
Zn  Zn15      1.0  0.09349  0.25190  0.67260  1.0000 1.0990935387
Zn  Zn16      1.0  0.23316  0.56355  0.85040  1.0000 1.1959201219
P   P1        1.0  0.39952  0.65526  0.69000  1.0000 1.5445547821
P   P2        1.0  0.28031  0.89476  0.17300  1.0000 1.5786988976
P   P3        1.0  0.11210  0.70694  0.74880  1.0000 1.5786988976
P   P4        1.0  0.60048  0.34474  0.69000  1.0000 1.5445547821
P   P5        1.0  0.71969  0.10524  0.17300  1.0000 1.5786988976
P   P6        1.0  0.88790  0.29306  0.74880  1.0000 1.5741419317
P   P7        1.0  0.89952  0.84474  0.19000  1.0000 1.5445547821
P   P8        1.0  0.78031  0.60524  0.67300  1.0000 1.5786988976
P   P9        1.0  0.61210  0.79306  0.24880  1.0000 1.5741419317
P   P10       1.0  0.10048  0.15526  0.19000  1.0000 1.5445547821
P   P11       1.0  0.21969  0.39476  0.67300  1.0000 1.5786988976
P   P12       1.0  0.38790  0.20694  0.24880  1.0000 1.5741419317
H   H1        1.0  0.02370  0.03560  0.46830  1.0000 0.2683262872
H   H2        1.0  0.11340  0.94420  0.62170  1.0000 0.1427583834
H   H3        1.0  0.04430  0.92690  0.83700  1.0000 0.1427583834
H   H4        1.0  0.09510  0.00370  0.83860  1.0000 0.1543386625
H   H5        1.0  0.97630  0.96440  0.46830  1.0000 0.2683262872
H   H6        1.0  0.88660  0.05580  0.62170  1.0000 0.1427583834
H   H7        1.0  0.95570  0.07310  0.83700  1.0000 0.1427583834
H   H8        1.0  0.90490  0.99630  0.83860  1.0000 0.1543386625
H   H9        1.0  0.52370  0.46440  0.96830  1.0000 0.2683262872
H   H10       1.0  0.61340  0.55580  0.12170  1.0000 0.1427583834
H   H11       1.0  0.54430  0.57310  0.33700  1.0000 0.1427583834
H   H12       1.0  0.59510  0.49630  0.33860  1.0000 0.1543386625
H   H13       1.0  0.47630  0.53560  0.96830  1.0000 0.2683262872
H   H14       1.0  0.38660  0.44420  0.12170  1.0000 0.1427583834
H   H15       1.0  0.45570  0.42690  0.33700  1.0000 0.1427583834
H   H16       1.0  0.40490  0.50370  0.33860  1.0000 0.1543386625
C   C1        1.0  0.06930  0.96570  0.73100  1.0000 -0.25448032
C   C2        1.0  0.93070  0.03430  0.73100  1.0000 -0.25448032
C   C3        1.0  0.56930  0.53430  0.23100  1.0000 -0.25448032
C   C4        1.0  0.43070  0.46570  0.23100  1.0000 -0.25448032
N   N1        1.0  0.00000  0.00000  0.57000  1.0000 -0.0790220676
N   N2        1.0  0.50000  0.50000  0.07000  1.0000 -0.0790220676
O   O1        1.0  0.30500  0.88600  0.88860  1.0000 -0.7472535847
O   O2        1.0  0.16010  0.77150  0.60410  1.0000 -0.8091141957
O   O3        1.0  0.32430  0.82600  0.32290  1.0000 -0.8091141957
O   O4        1.0  0.35650  0.72560  0.83130  1.0000 -0.8162543652
O   O5        1.0  0.12120  0.72050  0.03500  1.0000 -0.7739778636
O   O6        1.0  0.49380  0.64950  0.78400  1.0000 -0.8091141957
O   O7        1.0  0.18250  0.89090  0.21340  1.0000 -0.7783358572
O   O8        1.0  0.01970  0.70590  0.64600  1.0000 -0.7924884437
O   O9        1.0  0.38890  0.66710  0.39860  1.0000 -0.7399466662
O   O10       1.0  0.31820  0.96850  0.27810  1.0000 -0.7195872096
O   O11       1.0  0.35380  0.58250  0.77030  1.0000 -0.7399466662
O   O12       1.0  0.15570  0.63220  0.67600  1.0000 -0.6963012693
O   O13       1.0  0.26210  0.08550  0.72900  1.0000 -0.3378851193
O   O14       1.0  0.69500  0.11400  0.88860  1.0000 -0.7472535847
O   O15       1.0  0.83990  0.22850  0.60410  1.0000 -0.8091141957
O   O16       1.0  0.67570  0.17400  0.32290  1.0000 -0.8091141957
O   O17       1.0  0.64350  0.27440  0.83130  1.0000 -0.8162543652
O   O18       1.0  0.87880  0.27950  0.03500  1.0000 -0.7739778636
O   O19       1.0  0.50620  0.35050  0.78400  1.0000 -0.8091141957
O   O20       1.0  0.81750  0.10910  0.21340  1.0000 -0.7783358572
O   O21       1.0  0.98030  0.29410  0.64600  1.0000 -0.7924884437
O   O22       1.0  0.61110  0.33290  0.39860  1.0000 -0.7399466662
O   O23       1.0  0.68180  0.03150  0.27810  1.0000 -0.7195872096
O   O24       1.0  0.64620  0.41750  0.77030  1.0000 -0.7399466662
O   O25       1.0  0.84430  0.36780  0.67600  1.0000 -0.6963012693
O   O26       1.0  0.73790  0.91450  0.72900  1.0000 -0.3343146024
O   O27       1.0  0.80500  0.61400  0.38860  1.0000 -0.7472535847
O   O28       1.0  0.66010  0.72850  0.10410  1.0000 -0.8091141957
O   O29       1.0  0.82430  0.67400  0.82290  1.0000 -0.8091141957
O   O30       1.0  0.85650  0.77440  0.33130  1.0000 -0.8162543652
O   O31       1.0  0.62120  0.77950  0.53500  1.0000 -0.7739778636
O   O32       1.0  0.99380  0.85050  0.28400  1.0000 -0.8091141957
O   O33       1.0  0.68250  0.60910  0.71340  1.0000 -0.7783358572
O   O34       1.0  0.51970  0.79410  0.14600  1.0000 -0.7924884437
O   O35       1.0  0.88890  0.83290  0.89860  1.0000 -0.7399466662
O   O36       1.0  0.81820  0.53150  0.77810  1.0000 -0.7195872096
O   O37       1.0  0.85380  0.91750  0.27030  1.0000 -0.7399466662
O   O38       1.0  0.65570  0.86780  0.17600  1.0000 -0.6963012693
O   O39       1.0  0.76210  0.41450  0.22900  1.0000 -0.3378851193
O   O40       1.0  0.19500  0.38600  0.38860  1.0000 -0.7472535847
O   O41       1.0  0.33990  0.27150  0.10410  1.0000 -0.8091141957
O   O42       1.0  0.17570  0.32600  0.82290  1.0000 -0.8091141957
O   O43       1.0  0.14350  0.22560  0.33130  1.0000 -0.8162543652
O   O44       1.0  0.37880  0.22050  0.53500  1.0000 -0.7739778636
O   O45       1.0  0.00620  0.14950  0.28400  1.0000 -0.8091141957
O   O46       1.0  0.31750  0.39090  0.71340  1.0000 -0.7783358572
O   O47       1.0  0.48030  0.20590  0.14600  1.0000 -0.7924884437
O   O48       1.0  0.11110  0.16710  0.89860  1.0000 -0.7399466662
O   O49       1.0  0.18180  0.46850  0.77810  1.0000 -0.7195872096
O   O50       1.0  0.14620  0.08250  0.27030  1.0000 -0.7399466662
O   O51       1.0  0.34430  0.13220  0.17600  1.0000 -0.6963012693
O   O52       1.0  0.23790  0.58550  0.22900  1.0000 -0.3378851193
