# DDEC6 charges by PACMAN v1.1 (https://github.com/mtap-research/PACMAN-charge/)
data_2002[Cd][pcu]3[ION]1
_chemical_formula_sum              "Cd6 H252 C252 N72 Cl6 O24"
_cell_length_a       23.135
_cell_length_b       23.135
_cell_length_c       23.135
_cell_angle_alpha    53.3807
_cell_angle_beta     53.3807
_cell_angle_gamma    53.3807

_symmetry_space_group_name_H-M    "P 1"
_symmetry_Int_Tables_number       1

loop_
  _symmetry_equiv_pos_as_xyz
  'x, y, z'

loop_
  _atom_site_type_symbol
  _atom_site_label
  _atom_site_symmetry_multiplicity
  _atom_site_fract_x
  _atom_site_fract_y
  _atom_site_fract_z
  _atom_site_occupancy
  _atom_site_charge
Cd  Cd1       1.0  0.84345  0.84345  0.84345  1.0000 0.6908471383
Cd  Cd2       1.0  0.34389  0.34389  0.34389  1.0000 0.6908471383
Cd  Cd3       1.0  0.15655  0.15655  0.15655  1.0000 0.6908471383
Cd  Cd4       1.0  0.65611  0.65611  0.65611  1.0000 0.6908471383
Cd  Cd5       1.0  0.00000  0.00000  0.00000  1.0000 0.6834098942
Cd  Cd6       1.0  0.50000  0.50000  0.50000  1.0000 0.6834098942
H   H1        1.0  0.70180  0.78550  0.01590  1.0000 0.1115719973
H   H2        1.0  0.78550  0.01590  0.70180  1.0000 0.1115719973
H   H3        1.0  0.01590  0.70180  0.78550  1.0000 0.1115719973
H   H4        1.0  0.76430  0.60190  0.98400  1.0000 0.1202555397
H   H5        1.0  0.60190  0.98400  0.76430  1.0000 0.1202555397
H   H6        1.0  0.98400  0.76430  0.60190  1.0000 0.1202555397
H   H7        1.0  0.84300  0.67940  0.86950  1.0000 0.1115719973
H   H8        1.0  0.67940  0.86950  0.84300  1.0000 0.1115719973
H   H9        1.0  0.86950  0.84300  0.67940  1.0000 0.1115719973
H   H10       1.0  0.62400  0.70240  0.12640  1.0000 0.1202555397
H   H11       1.0  0.70240  0.12640  0.62400  1.0000 0.1202555397
H   H12       1.0  0.12640  0.62400  0.70240  1.0000 0.1202555397
H   H13       1.0  0.68190  0.61360  0.13930  1.0000 0.1202555397
H   H14       1.0  0.61360  0.13930  0.68190  1.0000 0.1202555397
H   H15       1.0  0.13930  0.68190  0.61360  1.0000 0.1202555397
H   H16       1.0  0.53560  0.75980  0.05690  1.0000 0.1202555397
H   H17       1.0  0.75980  0.05690  0.53560  1.0000 0.1202555397
H   H18       1.0  0.05690  0.53560  0.75980  1.0000 0.1202555397
H   H19       1.0  0.64330  0.52980  0.15700  1.0000 0.1202555397
H   H20       1.0  0.52980  0.15700  0.64330  1.0000 0.1202555397
H   H21       1.0  0.15700  0.64330  0.52980  1.0000 0.1202555397
H   H22       1.0  0.45090  0.73630  0.05710  1.0000 0.0997018914
H   H23       1.0  0.73630  0.05710  0.45090  1.0000 0.0997018914
H   H24       1.0  0.05710  0.45090  0.73630  1.0000 0.0997018914
H   H25       1.0  0.55970  0.50720  0.15220  1.0000 0.1115719973
H   H26       1.0  0.50720  0.15220  0.55970  1.0000 0.1115719973
H   H27       1.0  0.15220  0.55970  0.50720  1.0000 0.1115719973
H   H28       1.0  0.40190  0.65460  0.08700  1.0000 0.1115719973
H   H29       1.0  0.65460  0.08700  0.40190  1.0000 0.1115719973
H   H30       1.0  0.08700  0.40190  0.65460  1.0000 0.1115719973
H   H31       1.0  0.47140  0.57870  0.06880  1.0000 0.1115719973
H   H32       1.0  0.57870  0.06880  0.47140  1.0000 0.1115719973
H   H33       1.0  0.06880  0.47140  0.57870  1.0000 0.1115719973
H   H34       1.0  0.34070  0.62090  0.25120  1.0000 0.1202555397
H   H35       1.0  0.62090  0.25120  0.34070  1.0000 0.1202555397
H   H36       1.0  0.25120  0.34070  0.62090  1.0000 0.1202555397
H   H37       1.0  0.43660  0.46130  0.16700  1.0000 0.0997018914
H   H38       1.0  0.46130  0.16700  0.43660  1.0000 0.0997018914
H   H39       1.0  0.16700  0.43660  0.46130  1.0000 0.0997018914
H   H40       1.0  0.29690  0.51020  0.35470  1.0000 0.1115719973
H   H41       1.0  0.51020  0.35470  0.29690  1.0000 0.1115719973
H   H42       1.0  0.35470  0.29690  0.51020  1.0000 0.1115719973
H   H43       1.0  0.99230  0.89610  0.67300  1.0000 0.1115719973
H   H44       1.0  0.89610  0.67300  0.99230  1.0000 0.1115719973
H   H45       1.0  0.67300  0.99230  0.89610  1.0000 0.1115719973
H   H46       1.0  0.82460  0.02560  0.80060  1.0000 0.1115719973
H   H47       1.0  0.02560  0.80060  0.82460  1.0000 0.1115719973
H   H48       1.0  0.80060  0.82460  0.02560  1.0000 0.1115719973
H   H49       1.0  0.89750  0.10640  0.67690  1.0000 0.1202555397
H   H50       1.0  0.10640  0.67690  0.89750  1.0000 0.1202555397
H   H51       1.0  0.67690  0.89750  0.10640  1.0000 0.1202555397
H   H52       1.0  0.06220  0.98580  0.55360  1.0000 0.1285708991
H   H53       1.0  0.98580  0.55360  0.06220  1.0000 0.1285708991
H   H54       1.0  0.55360  0.06220  0.98580  1.0000 0.1285708991
H   H55       1.0  0.00340  0.07460  0.53320  1.0000 0.1285708991
H   H56       1.0  0.07460  0.53320  0.00340  1.0000 0.1285708991
H   H57       1.0  0.53320  0.00340  0.07460  1.0000 0.1285708991
H   H58       1.0  0.07640  0.97320  0.68220  1.0000 0.1115719973
H   H59       1.0  0.97320  0.68220  0.07640  1.0000 0.1115719973
H   H60       1.0  0.68220  0.07640  0.97320  1.0000 0.1115719973
H   H61       1.0  0.09430  0.13130  0.46780  1.0000 0.1202555397
H   H62       1.0  0.13130  0.46780  0.09430  1.0000 0.1202555397
H   H63       1.0  0.46780  0.09430  0.13130  1.0000 0.1202555397
H   H64       1.0  0.14780  0.00810  0.68660  1.0000 0.0997018914
H   H65       1.0  0.00810  0.68660  0.14780  1.0000 0.0997018914
H   H66       1.0  0.68660  0.14780  0.00810  1.0000 0.0997018914
H   H67       1.0  0.18130  0.15350  0.46510  1.0000 0.1115719973
H   H68       1.0  0.15350  0.46510  0.18130  1.0000 0.1115719973
H   H69       1.0  0.46510  0.18130  0.15350  1.0000 0.1115719973
H   H70       1.0  0.17640  0.14750  0.61130  1.0000 0.1115719973
H   H71       1.0  0.14750  0.61130  0.17640  1.0000 0.1115719973
H   H72       1.0  0.61130  0.17640  0.14750  1.0000 0.1115719973
H   H73       1.0  0.24250  0.06240  0.61920  1.0000 0.1115719973
H   H74       1.0  0.06240  0.61920  0.24250  1.0000 0.1115719973
H   H75       1.0  0.61920  0.24250  0.06240  1.0000 0.1115719973
H   H76       1.0  0.23090  0.24610  0.51230  1.0000 0.0997018914
H   H77       1.0  0.24610  0.51230  0.23090  1.0000 0.0997018914
H   H78       1.0  0.51230  0.23090  0.24610  1.0000 0.0997018914
H   H79       1.0  0.34100  0.06490  0.45250  1.0000 0.1202555397
H   H80       1.0  0.06490  0.45250  0.34100  1.0000 0.1202555397
H   H81       1.0  0.45250  0.34100  0.06490  1.0000 0.1202555397
H   H82       1.0  0.40060  0.16150  0.34920  1.0000 0.1115719973
H   H83       1.0  0.16150  0.34920  0.40060  1.0000 0.1115719973
H   H84       1.0  0.34920  0.40060  0.16150  1.0000 0.1115719973
H   H85       1.0  0.29820  0.21450  0.98410  1.0000 0.1115719973
H   H86       1.0  0.21450  0.98410  0.29820  1.0000 0.1115719973
H   H87       1.0  0.98410  0.29820  0.21450  1.0000 0.1115719973
H   H88       1.0  0.23570  0.39810  0.01600  1.0000 0.1202555397
H   H89       1.0  0.39810  0.01600  0.23570  1.0000 0.1202555397
H   H90       1.0  0.01600  0.23570  0.39810  1.0000 0.1202555397
H   H91       1.0  0.15700  0.32060  0.13050  1.0000 0.1115719973
H   H92       1.0  0.32060  0.13050  0.15700  1.0000 0.1115719973
H   H93       1.0  0.13050  0.15700  0.32060  1.0000 0.1115719973
H   H94       1.0  0.37600  0.29760  0.87360  1.0000 0.1202555397
H   H95       1.0  0.29760  0.87360  0.37600  1.0000 0.1202555397
H   H96       1.0  0.87360  0.37600  0.29760  1.0000 0.1202555397
H   H97       1.0  0.31810  0.38640  0.86070  1.0000 0.1202555397
H   H98       1.0  0.38640  0.86070  0.31810  1.0000 0.1202555397
H   H99       1.0  0.86070  0.31810  0.38640  1.0000 0.1202555397
H   H100      1.0  0.46440  0.24020  0.94310  1.0000 0.1202555397
H   H101      1.0  0.24020  0.94310  0.46440  1.0000 0.1202555397
H   H102      1.0  0.94310  0.46440  0.24020  1.0000 0.1202555397
H   H103      1.0  0.35670  0.47020  0.84300  1.0000 0.1202555397
H   H104      1.0  0.47020  0.84300  0.35670  1.0000 0.1202555397
H   H105      1.0  0.84300  0.35670  0.47020  1.0000 0.1202555397
H   H106      1.0  0.54910  0.26370  0.94290  1.0000 0.0997018914
H   H107      1.0  0.26370  0.94290  0.54910  1.0000 0.0997018914
H   H108      1.0  0.94290  0.54910  0.26370  1.0000 0.0997018914
H   H109      1.0  0.44030  0.49280  0.84780  1.0000 0.1115719973
H   H110      1.0  0.49280  0.84780  0.44030  1.0000 0.1115719973
H   H111      1.0  0.84780  0.44030  0.49280  1.0000 0.1115719973
H   H112      1.0  0.59810  0.34540  0.91300  1.0000 0.1115719973
H   H113      1.0  0.34540  0.91300  0.59810  1.0000 0.1115719973
H   H114      1.0  0.91300  0.59810  0.34540  1.0000 0.1115719973
H   H115      1.0  0.52860  0.42130  0.93120  1.0000 0.1115719973
H   H116      1.0  0.42130  0.93120  0.52860  1.0000 0.1115719973
H   H117      1.0  0.93120  0.52860  0.42130  1.0000 0.1115719973
H   H118      1.0  0.65930  0.37910  0.74880  1.0000 0.1202555397
H   H119      1.0  0.37910  0.74880  0.65930  1.0000 0.1202555397
H   H120      1.0  0.74880  0.65930  0.37910  1.0000 0.1202555397
H   H121      1.0  0.56340  0.53870  0.83300  1.0000 0.0997018914
H   H122      1.0  0.53870  0.83300  0.56340  1.0000 0.0997018914
H   H123      1.0  0.83300  0.56340  0.53870  1.0000 0.0997018914
H   H124      1.0  0.70310  0.48980  0.64530  1.0000 0.1115719973
H   H125      1.0  0.48980  0.64530  0.70310  1.0000 0.1115719973
H   H126      1.0  0.64530  0.70310  0.48980  1.0000 0.1115719973
H   H127      1.0  0.00770  0.10390  0.32700  1.0000 0.1115719973
H   H128      1.0  0.10390  0.32700  0.00770  1.0000 0.1115719973
H   H129      1.0  0.32700  0.00770  0.10390  1.0000 0.1115719973
H   H130      1.0  0.17540  0.97440  0.19940  1.0000 0.1115719973
H   H131      1.0  0.97440  0.19940  0.17540  1.0000 0.1115719973
H   H132      1.0  0.19940  0.17540  0.97440  1.0000 0.1115719973
H   H133      1.0  0.10250  0.89360  0.32310  1.0000 0.1202555397
H   H134      1.0  0.89360  0.32310  0.10250  1.0000 0.1202555397
H   H135      1.0  0.32310  0.10250  0.89360  1.0000 0.1202555397
H   H136      1.0  0.93780  0.01420  0.44640  1.0000 0.1285708991
H   H137      1.0  0.01420  0.44640  0.93780  1.0000 0.1285708991
H   H138      1.0  0.44640  0.93780  0.01420  1.0000 0.1285708991
H   H139      1.0  0.99660  0.92540  0.46680  1.0000 0.1285708991
H   H140      1.0  0.92540  0.46680  0.99660  1.0000 0.1285708991
H   H141      1.0  0.46680  0.99660  0.92540  1.0000 0.1285708991
H   H142      1.0  0.92360  0.02680  0.31780  1.0000 0.1115719973
H   H143      1.0  0.02680  0.31780  0.92360  1.0000 0.1115719973
H   H144      1.0  0.31780  0.92360  0.02680  1.0000 0.1115719973
H   H145      1.0  0.90570  0.86870  0.53220  1.0000 0.1202555397
H   H146      1.0  0.86870  0.53220  0.90570  1.0000 0.1202555397
H   H147      1.0  0.53220  0.90570  0.86870  1.0000 0.1202555397
H   H148      1.0  0.85220  0.99190  0.31340  1.0000 0.0997018914
H   H149      1.0  0.99190  0.31340  0.85220  1.0000 0.0997018914
H   H150      1.0  0.31340  0.85220  0.99190  1.0000 0.0997018914
H   H151      1.0  0.81870  0.84650  0.53490  1.0000 0.1115719973
H   H152      1.0  0.84650  0.53490  0.81870  1.0000 0.1115719973
H   H153      1.0  0.53490  0.81870  0.84650  1.0000 0.1115719973
H   H154      1.0  0.82360  0.85250  0.38870  1.0000 0.1115719973
H   H155      1.0  0.85250  0.38870  0.82360  1.0000 0.1115719973
H   H156      1.0  0.38870  0.82360  0.85250  1.0000 0.1115719973
H   H157      1.0  0.75750  0.93760  0.38080  1.0000 0.1115719973
H   H158      1.0  0.93760  0.38080  0.75750  1.0000 0.1115719973
H   H159      1.0  0.38080  0.75750  0.93760  1.0000 0.1115719973
H   H160      1.0  0.76910  0.75390  0.48770  1.0000 0.0997018914
H   H161      1.0  0.75390  0.48770  0.76910  1.0000 0.0997018914
H   H162      1.0  0.48770  0.76910  0.75390  1.0000 0.0997018914
H   H163      1.0  0.65900  0.93510  0.54750  1.0000 0.1202555397
H   H164      1.0  0.93510  0.54750  0.65900  1.0000 0.1202555397
H   H165      1.0  0.54750  0.65900  0.93510  1.0000 0.1202555397
H   H166      1.0  0.59940  0.83850  0.65080  1.0000 0.1115719973
H   H167      1.0  0.83850  0.65080  0.59940  1.0000 0.1115719973
H   H168      1.0  0.65080  0.59940  0.83850  1.0000 0.1115719973
H   H169      1.0  0.09910  0.11010  0.82200  1.0000 0.0997018914
H   H170      1.0  0.11010  0.82200  0.09910  1.0000 0.0997018914
H   H171      1.0  0.82200  0.09910  0.11010  1.0000 0.0997018914
H   H172      1.0  0.90090  0.88990  0.17800  1.0000 0.0997018914
H   H173      1.0  0.88990  0.17800  0.90090  1.0000 0.0997018914
H   H174      1.0  0.17800  0.90090  0.88990  1.0000 0.0997018914
H   H175      1.0  0.16710  0.97160  0.99780  1.0000 0.1115719973
H   H176      1.0  0.97160  0.99780  0.16710  1.0000 0.1115719973
H   H177      1.0  0.99780  0.16710  0.97160  1.0000 0.1115719973
H   H178      1.0  0.83290  0.02840  0.00220  1.0000 0.1115719973
H   H179      1.0  0.02840  0.00220  0.83290  1.0000 0.1115719973
H   H180      1.0  0.00220  0.83290  0.02840  1.0000 0.1115719973
H   H181      1.0  0.26430  0.02880  0.88930  1.0000 0.1202555397
H   H182      1.0  0.02880  0.88930  0.26430  1.0000 0.1202555397
H   H183      1.0  0.88930  0.26430  0.02880  1.0000 0.1202555397
H   H184      1.0  0.73570  0.97120  0.11070  1.0000 0.1202555397
H   H185      1.0  0.97120  0.11070  0.73570  1.0000 0.1202555397
H   H186      1.0  0.11070  0.73570  0.97120  1.0000 0.1202555397
H   H187      1.0  0.28220  0.09880  0.72520  1.0000 0.1115719973
H   H188      1.0  0.09880  0.72520  0.28220  1.0000 0.1115719973
H   H189      1.0  0.72520  0.28220  0.09880  1.0000 0.1115719973
H   H190      1.0  0.71780  0.90120  0.27480  1.0000 0.1115719973
H   H191      1.0  0.90120  0.27480  0.71780  1.0000 0.1115719973
H   H192      1.0  0.27480  0.71780  0.90120  1.0000 0.1115719973
H   H193      1.0  0.20020  0.16770  0.72240  1.0000 0.1115719973
H   H194      1.0  0.16770  0.72240  0.20020  1.0000 0.1115719973
H   H195      1.0  0.72240  0.20020  0.16770  1.0000 0.1115719973
H   H196      1.0  0.79980  0.83230  0.27760  1.0000 0.1115719973
H   H197      1.0  0.83230  0.27760  0.79980  1.0000 0.1115719973
H   H198      1.0  0.27760  0.79980  0.83230  1.0000 0.1115719973
H   H199      1.0  0.14290  0.23920  0.81500  1.0000 0.1115719973
H   H200      1.0  0.23920  0.81500  0.14290  1.0000 0.1115719973
H   H201      1.0  0.81500  0.14290  0.23920  1.0000 0.1115719973
H   H202      1.0  0.85710  0.76080  0.18500  1.0000 0.1115719973
H   H203      1.0  0.76080  0.18500  0.85710  1.0000 0.1115719973
H   H204      1.0  0.18500  0.85710  0.76080  1.0000 0.1115719973
H   H205      1.0  0.36900  0.14260  0.69900  1.0000 0.1202555397
H   H206      1.0  0.14260  0.69900  0.36900  1.0000 0.1202555397
H   H207      1.0  0.69900  0.36900  0.14260  1.0000 0.1202555397
H   H208      1.0  0.63100  0.85740  0.30100  1.0000 0.1202555397
H   H209      1.0  0.85740  0.30100  0.63100  1.0000 0.1202555397
H   H210      1.0  0.30100  0.63100  0.85740  1.0000 0.1202555397
H   H211      1.0  0.16970  0.31620  0.82100  1.0000 0.1202555397
H   H212      1.0  0.31620  0.82100  0.16970  1.0000 0.1202555397
H   H213      1.0  0.82100  0.16970  0.31620  1.0000 0.1202555397
H   H214      1.0  0.83030  0.68380  0.17900  1.0000 0.1202555397
H   H215      1.0  0.68380  0.17900  0.83030  1.0000 0.1202555397
H   H216      1.0  0.17900  0.83030  0.68380  1.0000 0.1202555397
H   H217      1.0  0.39740  0.21760  0.70690  1.0000 0.1202555397
H   H218      1.0  0.21760  0.70690  0.39740  1.0000 0.1202555397
H   H219      1.0  0.70690  0.39740  0.21760  1.0000 0.1202555397
H   H220      1.0  0.60260  0.78240  0.29310  1.0000 0.1202555397
H   H221      1.0  0.78240  0.29310  0.60260  1.0000 0.1202555397
H   H222      1.0  0.29310  0.60260  0.78240  1.0000 0.1202555397
H   H223      1.0  0.34700  0.28980  0.78920  1.0000 0.1202555397
H   H224      1.0  0.28980  0.78920  0.34700  1.0000 0.1202555397
H   H225      1.0  0.78920  0.34700  0.28980  1.0000 0.1202555397
H   H226      1.0  0.65300  0.71020  0.21080  1.0000 0.1202555397
H   H227      1.0  0.71020  0.21080  0.65300  1.0000 0.1202555397
H   H228      1.0  0.21080  0.65300  0.71020  1.0000 0.1202555397
H   H229      1.0  0.25920  0.35080  0.80370  1.0000 0.1285708991
H   H230      1.0  0.35080  0.80370  0.25920  1.0000 0.1285708991
H   H231      1.0  0.80370  0.25920  0.35080  1.0000 0.1285708991
H   H232      1.0  0.74080  0.64920  0.19630  1.0000 0.1285708991
H   H233      1.0  0.64920  0.19630  0.74080  1.0000 0.1285708991
H   H234      1.0  0.19630  0.74080  0.64920  1.0000 0.1285708991
H   H235      1.0  0.43880  0.35950  0.67540  1.0000 0.1115719973
H   H236      1.0  0.35950  0.67540  0.43880  1.0000 0.1115719973
H   H237      1.0  0.67540  0.43880  0.35950  1.0000 0.1115719973
H   H238      1.0  0.56120  0.64050  0.32460  1.0000 0.1115719973
H   H239      1.0  0.64050  0.32460  0.56120  1.0000 0.1115719973
H   H240      1.0  0.32460  0.56120  0.64050  1.0000 0.1115719973
H   H241      1.0  0.24080  0.44530  0.65200  1.0000 0.1202555397
H   H242      1.0  0.44530  0.65200  0.24080  1.0000 0.1202555397
H   H243      1.0  0.65200  0.24080  0.44530  1.0000 0.1202555397
H   H244      1.0  0.75920  0.55470  0.34800  1.0000 0.1202555397
H   H245      1.0  0.55470  0.34800  0.75920  1.0000 0.1202555397
H   H246      1.0  0.34800  0.75920  0.55470  1.0000 0.1202555397
H   H247      1.0  0.32580  0.51500  0.53450  1.0000 0.1115719973
H   H248      1.0  0.51500  0.53450  0.32580  1.0000 0.1115719973
H   H249      1.0  0.53450  0.32580  0.51500  1.0000 0.1115719973
H   H250      1.0  0.67420  0.48500  0.46550  1.0000 0.1115719973
H   H251      1.0  0.48500  0.46550  0.67420  1.0000 0.1115719973
H   H252      1.0  0.46550  0.67420  0.48500  1.0000 0.1115719973
C   C1        1.0  0.72756  0.74866  0.99356  1.0000 0.0898216196
C   C2        1.0  0.74866  0.99356  0.72756  1.0000 0.0898216196
C   C3        1.0  0.99356  0.72756  0.74866  1.0000 0.0997018914
C   C4        1.0  0.76070  0.64880  0.97700  1.0000 -0.1097928867
C   C5        1.0  0.64880  0.97700  0.76070  1.0000 -0.1097928867
C   C6        1.0  0.97700  0.76070  0.64880  1.0000 -0.1097928867
C   C7        1.0  0.80390  0.69100  0.91470  1.0000 -0.0504110247
C   C8        1.0  0.69100  0.91470  0.80390  1.0000 -0.0504110247
C   C9        1.0  0.91470  0.80390  0.69100  1.0000 -0.0504110247
C   C10       1.0  0.65427  0.66167  0.10497  1.0000 -0.1687234996
C   C11       1.0  0.66167  0.10497  0.65427  1.0000 -0.1687234996
C   C12       1.0  0.10497  0.65427  0.66167  1.0000 -0.1577925272
C   C13       1.0  0.59861  0.64681  0.10451  1.0000 0.0997018914
C   C14       1.0  0.64681  0.10451  0.59861  1.0000 0.0997018914
C   C15       1.0  0.10451  0.59861  0.64681  1.0000 0.0997018914
C   C16       1.0  0.54067  0.70797  0.07657  1.0000 -0.1479358783
C   C17       1.0  0.70797  0.07657  0.54067  1.0000 -0.1479358783
C   C18       1.0  0.07657  0.54067  0.70797  1.0000 -0.1479358783
C   C19       1.0  0.60500  0.57190  0.13520  1.0000 -0.1577925272
C   C20       1.0  0.57190  0.13520  0.60500  1.0000 -0.1577925272
C   C21       1.0  0.13520  0.60500  0.57190  1.0000 -0.1577925272
C   C22       1.0  0.49030  0.69380  0.07700  1.0000 -0.1687234996
C   C23       1.0  0.69380  0.07700  0.49030  1.0000 -0.1687234996
C   C24       1.0  0.07700  0.49030  0.69380  1.0000 -0.1687234996
C   C25       1.0  0.55430  0.55880  0.13360  1.0000 -0.1687234996
C   C26       1.0  0.55880  0.13360  0.55430  1.0000 -0.1687234996
C   C27       1.0  0.13360  0.55430  0.55880  1.0000 -0.1687234996
C   C28       1.0  0.49590  0.62100  0.10520  1.0000 0.0820497154
C   C29       1.0  0.62100  0.10520  0.49590  1.0000 0.0820497154
C   C30       1.0  0.10520  0.49590  0.62100  1.0000 0.0820497154
C   C31       1.0  0.44180  0.60470  0.10570  1.0000 -0.1961632423
C   C32       1.0  0.60470  0.10570  0.44180  1.0000 -0.1961632423
C   C33       1.0  0.10570  0.44180  0.60470  1.0000 -0.1961632423
C   C34       1.0  0.35480  0.57560  0.24670  1.0000 -0.141906967
C   C35       1.0  0.57560  0.24670  0.35480  1.0000 -0.141906967
C   C36       1.0  0.24670  0.35480  0.57560  1.0000 -0.141906967
C   C37       1.0  0.40730  0.48710  0.20170  1.0000 0.0692693278
C   C38       1.0  0.48710  0.20170  0.40730  1.0000 0.0692693278
C   C39       1.0  0.20170  0.40730  0.48710  1.0000 0.0692693278
C   C40       1.0  0.33194  0.51414  0.30294  1.0000 -0.0504110247
C   C41       1.0  0.51414  0.30294  0.33194  1.0000 -0.0504110247
C   C42       1.0  0.30294  0.33194  0.51414  1.0000 -0.0504110247
C   C43       1.0  0.95927  0.93827  0.69017  1.0000 0.0820497154
C   C44       1.0  0.93827  0.69017  0.95927  1.0000 0.0820497154
C   C45       1.0  0.69017  0.95927  0.93827  1.0000 0.0820497154
C   C46       1.0  0.86820  0.00920  0.75900  1.0000 -0.0690663111
C   C47       1.0  0.00920  0.75900  0.86820  1.0000 -0.0690663111
C   C48       1.0  0.75900  0.86820  0.00920  1.0000 -0.0690663111
C   C49       1.0  0.90770  0.05400  0.69150  1.0000 -0.1097928867
C   C50       1.0  0.05400  0.69150  0.90770  1.0000 -0.1097928867
C   C51       1.0  0.69150  0.90770  0.05400  1.0000 -0.1097928867
C   C52       1.0  0.02768  0.02958  0.57158  1.0000 -0.177630233
C   C53       1.0  0.02958  0.57158  0.02768  1.0000 -0.177630233
C   C54       1.0  0.57158  0.02768  0.02958  1.0000 -0.177630233
C   C55       1.0  0.07380  0.04990  0.57690  1.0000 0.0997018914
C   C56       1.0  0.04990  0.57690  0.07380  1.0000 0.0997018914
C   C57       1.0  0.57690  0.07380  0.04990  1.0000 0.0997018914
C   C58       1.0  0.09380  0.01390  0.63850  1.0000 -0.177630233
C   C59       1.0  0.01390  0.63850  0.09380  1.0000 -0.177630233
C   C60       1.0  0.63850  0.09380  0.01390  1.0000 -0.177630233
C   C61       1.0  0.10620  0.10430  0.51260  1.0000 -0.1577925272
C   C62       1.0  0.10430  0.51260  0.10620  1.0000 -0.1577925272
C   C63       1.0  0.51260  0.10620  0.10430  1.0000 -0.1577925272
C   C64       1.0  0.13802  0.03352  0.64072  1.0000 -0.177630233
C   C65       1.0  0.03352  0.64072  0.13802  1.0000 -0.177630233
C   C66       1.0  0.64072  0.13802  0.03352  1.0000 -0.177630233
C   C67       1.0  0.15530  0.12020  0.51180  1.0000 -0.1687234996
C   C68       1.0  0.12020  0.51180  0.15530  1.0000 -0.1687234996
C   C69       1.0  0.51180  0.15530  0.12020  1.0000 -0.1687234996
C   C70       1.0  0.16760  0.08770  0.57940  1.0000 0.0898216196
C   C71       1.0  0.08770  0.57940  0.16760  1.0000 0.0898216196
C   C72       1.0  0.57940  0.16760  0.08770  1.0000 0.0898216196
C   C73       1.0  0.21320  0.10920  0.58580  1.0000 -0.1932548436
C   C74       1.0  0.10920  0.58580  0.21320  1.0000 -0.1932548436
C   C75       1.0  0.58580  0.21320  0.10920  1.0000 -0.1932548436
C   C76       1.0  0.26650  0.21270  0.48400  1.0000 0.0515675077
C   C77       1.0  0.21270  0.48400  0.26650  1.0000 0.0515675077
C   C78       1.0  0.48400  0.26650  0.21270  1.0000 0.0515675077
C   C79       1.0  0.32620  0.11310  0.45210  1.0000 -0.1248024754
C   C80       1.0  0.11310  0.45210  0.32620  1.0000 -0.1248024754
C   C81       1.0  0.45210  0.32620  0.11310  1.0000 -0.1248024754
C   C82       1.0  0.35800  0.16630  0.39630  1.0000 -0.0690663111
C   C83       1.0  0.16630  0.39630  0.35800  1.0000 -0.0690663111
C   C84       1.0  0.39630  0.35800  0.16630  1.0000 -0.0690663111
C   C85       1.0  0.27244  0.25134  0.00644  1.0000 0.0898216196
C   C86       1.0  0.25134  0.00644  0.27244  1.0000 0.0997018914
C   C87       1.0  0.00644  0.27244  0.25134  1.0000 0.0898216196
C   C88       1.0  0.23930  0.35120  0.02300  1.0000 -0.1097928867
C   C89       1.0  0.35120  0.02300  0.23930  1.0000 -0.1097928867
C   C90       1.0  0.02300  0.23930  0.35120  1.0000 -0.1097928867
C   C91       1.0  0.19610  0.30900  0.08530  1.0000 -0.0504110247
C   C92       1.0  0.30900  0.08530  0.19610  1.0000 -0.0504110247
C   C93       1.0  0.08530  0.19610  0.30900  1.0000 -0.0504110247
C   C94       1.0  0.34573  0.33833  0.89503  1.0000 -0.1577925272
C   C95       1.0  0.33833  0.89503  0.34573  1.0000 -0.1577925272
C   C96       1.0  0.89503  0.34573  0.33833  1.0000 -0.1687234996
C   C97       1.0  0.40139  0.35319  0.89549  1.0000 0.0997018914
C   C98       1.0  0.35319  0.89549  0.40139  1.0000 0.0997018914
C   C99       1.0  0.89549  0.40139  0.35319  1.0000 0.0997018914
C   C100      1.0  0.45933  0.29203  0.92343  1.0000 -0.1479358783
C   C101      1.0  0.29203  0.92343  0.45933  1.0000 -0.1479358783
C   C102      1.0  0.92343  0.45933  0.29203  1.0000 -0.1479358783
C   C103      1.0  0.39500  0.42810  0.86480  1.0000 -0.1577925272
C   C104      1.0  0.42810  0.86480  0.39500  1.0000 -0.1577925272
C   C105      1.0  0.86480  0.39500  0.42810  1.0000 -0.1479358783
C   C106      1.0  0.50970  0.30620  0.92300  1.0000 -0.1687234996
C   C107      1.0  0.30620  0.92300  0.50970  1.0000 -0.1687234996
C   C108      1.0  0.92300  0.50970  0.30620  1.0000 -0.1687234996
C   C109      1.0  0.44570  0.44120  0.86640  1.0000 -0.1687234996
C   C110      1.0  0.44120  0.86640  0.44570  1.0000 -0.1687234996
C   C111      1.0  0.86640  0.44570  0.44120  1.0000 -0.1687234996
C   C112      1.0  0.50410  0.37900  0.89480  1.0000 0.0820497154
C   C113      1.0  0.37900  0.89480  0.50410  1.0000 0.0820497154
C   C114      1.0  0.89480  0.50410  0.37900  1.0000 0.0820497154
C   C115      1.0  0.55820  0.39530  0.89430  1.0000 -0.1961632423
C   C116      1.0  0.39530  0.89430  0.55820  1.0000 -0.1961632423
C   C117      1.0  0.89430  0.55820  0.39530  1.0000 -0.1961632423
C   C118      1.0  0.64520  0.42440  0.75330  1.0000 -0.141906967
C   C119      1.0  0.42440  0.75330  0.64520  1.0000 -0.141906967
C   C120      1.0  0.75330  0.64520  0.42440  1.0000 -0.141906967
C   C121      1.0  0.59270  0.51290  0.79830  1.0000 0.0692693278
C   C122      1.0  0.51290  0.79830  0.59270  1.0000 0.0692693278
C   C123      1.0  0.79830  0.59270  0.51290  1.0000 0.0692693278
C   C124      1.0  0.66806  0.48586  0.69706  1.0000 -0.0504110247
C   C125      1.0  0.48586  0.69706  0.66806  1.0000 -0.0504110247
C   C126      1.0  0.69706  0.66806  0.48586  1.0000 -0.0504110247
C   C127      1.0  0.04073  0.06173  0.30983  1.0000 0.0820497154
C   C128      1.0  0.06173  0.30983  0.04073  1.0000 0.0820497154
C   C129      1.0  0.30983  0.04073  0.06173  1.0000 0.0820497154
C   C130      1.0  0.13180  0.99080  0.24100  1.0000 -0.0690663111
C   C131      1.0  0.99080  0.24100  0.13180  1.0000 -0.0690663111
C   C132      1.0  0.24100  0.13180  0.99080  1.0000 -0.0690663111
C   C133      1.0  0.09230  0.94600  0.30850  1.0000 -0.1097928867
C   C134      1.0  0.94600  0.30850  0.09230  1.0000 -0.1097928867
C   C135      1.0  0.30850  0.09230  0.94600  1.0000 -0.1097928867
C   C136      1.0  0.97232  0.97042  0.42842  1.0000 -0.177630233
C   C137      1.0  0.97042  0.42842  0.97232  1.0000 -0.177630233
C   C138      1.0  0.42842  0.97232  0.97042  1.0000 -0.177630233
C   C139      1.0  0.92620  0.95010  0.42310  1.0000 0.0997018914
C   C140      1.0  0.95010  0.42310  0.92620  1.0000 0.0997018914
C   C141      1.0  0.42310  0.92620  0.95010  1.0000 0.0997018914
C   C142      1.0  0.90620  0.98610  0.36150  1.0000 -0.177630233
C   C143      1.0  0.98610  0.36150  0.90620  1.0000 -0.177630233
C   C144      1.0  0.36150  0.90620  0.98610  1.0000 -0.177630233
C   C145      1.0  0.89380  0.89570  0.48740  1.0000 -0.1577925272
C   C146      1.0  0.89570  0.48740  0.89380  1.0000 -0.1577925272
C   C147      1.0  0.48740  0.89380  0.89570  1.0000 -0.1577925272
C   C148      1.0  0.86198  0.96648  0.35928  1.0000 -0.177630233
C   C149      1.0  0.96648  0.35928  0.86198  1.0000 -0.177630233
C   C150      1.0  0.35928  0.86198  0.96648  1.0000 -0.177630233
C   C151      1.0  0.84470  0.87980  0.48820  1.0000 -0.1687234996
C   C152      1.0  0.87980  0.48820  0.84470  1.0000 -0.1687234996
C   C153      1.0  0.48820  0.84470  0.87980  1.0000 -0.1687234996
C   C154      1.0  0.83240  0.91230  0.42060  1.0000 0.0898216196
C   C155      1.0  0.91230  0.42060  0.83240  1.0000 0.0898216196
C   C156      1.0  0.42060  0.83240  0.91230  1.0000 0.0898216196
C   C157      1.0  0.78680  0.89080  0.41420  1.0000 -0.1932548436
C   C158      1.0  0.89080  0.41420  0.78680  1.0000 -0.1932548436
C   C159      1.0  0.41420  0.78680  0.89080  1.0000 -0.1932548436
C   C160      1.0  0.73350  0.78730  0.51600  1.0000 0.0515675077
C   C161      1.0  0.78730  0.51600  0.73350  1.0000 0.0515675077
C   C162      1.0  0.51600  0.73350  0.78730  1.0000 0.0515675077
C   C163      1.0  0.67380  0.88690  0.54790  1.0000 -0.1248024754
C   C164      1.0  0.88690  0.54790  0.67380  1.0000 -0.1248024754
C   C165      1.0  0.54790  0.67380  0.88690  1.0000 -0.1248024754
C   C166      1.0  0.64200  0.83370  0.60370  1.0000 -0.0690663111
C   C167      1.0  0.83370  0.60370  0.64200  1.0000 -0.0690663111
C   C168      1.0  0.60370  0.64200  0.83370  1.0000 -0.0690663111
C   C169      1.0  0.12865  0.08175  0.85305  1.0000 0.0247795464
C   C170      1.0  0.08175  0.85305  0.12865  1.0000 0.0247795464
C   C171      1.0  0.85305  0.12865  0.08175  1.0000 0.0313730411
C   C172      1.0  0.87135  0.91825  0.14695  1.0000 0.0313730411
C   C173      1.0  0.91825  0.14695  0.87135  1.0000 0.0247795464
C   C174      1.0  0.14695  0.87135  0.91825  1.0000 0.0247795464
C   C175      1.0  0.16520  0.00710  0.94770  1.0000 -0.0558614128
C   C176      1.0  0.00710  0.94770  0.16520  1.0000 -0.0558614128
C   C177      1.0  0.94770  0.16520  0.00710  1.0000 -0.0558614128
C   C178      1.0  0.83480  0.99290  0.05230  1.0000 -0.0558614128
C   C179      1.0  0.99290  0.05230  0.83480  1.0000 -0.0558614128
C   C180      1.0  0.05230  0.83480  0.99290  1.0000 -0.0558614128
C   C181      1.0  0.21850  0.03860  0.88870  1.0000 -0.1097928867
C   C182      1.0  0.03860  0.88870  0.21850  1.0000 -0.1097928867
C   C183      1.0  0.88870  0.21850  0.03860  1.0000 -0.1097928867
C   C184      1.0  0.78150  0.96140  0.11130  1.0000 -0.1097928867
C   C185      1.0  0.96140  0.11130  0.78150  1.0000 -0.1097928867
C   C186      1.0  0.11130  0.78150  0.96140  1.0000 -0.1097928867
C   C187      1.0  0.23390  0.13320  0.75260  1.0000 -0.1932548436
C   C188      1.0  0.13320  0.75260  0.23390  1.0000 -0.1932548436
C   C189      1.0  0.75260  0.23390  0.13320  1.0000 -0.1932548436
C   C190      1.0  0.76610  0.86680  0.24740  1.0000 -0.1932548436
C   C191      1.0  0.86680  0.24740  0.76610  1.0000 -0.1932548436
C   C192      1.0  0.24740  0.76610  0.86680  1.0000 -0.1932548436
C   C193      1.0  0.25385  0.18235  0.75625  1.0000 0.0997018914
C   C194      1.0  0.18235  0.75625  0.25385  1.0000 0.0997018914
C   C195      1.0  0.75625  0.25385  0.18235  1.0000 0.0997018914
C   C196      1.0  0.74615  0.81765  0.24375  1.0000 0.0997018914
C   C197      1.0  0.81765  0.24375  0.74615  1.0000 0.0997018914
C   C198      1.0  0.24375  0.74615  0.81765  1.0000 0.0997018914
C   C199      1.0  0.19500  0.23470  0.79260  1.0000 -0.1687234996
C   C200      1.0  0.23470  0.79260  0.19500  1.0000 -0.1687234996
C   C201      1.0  0.79260  0.19500  0.23470  1.0000 -0.1687234996
C   C202      1.0  0.80500  0.76530  0.20740  1.0000 -0.1687234996
C   C203      1.0  0.76530  0.20740  0.80500  1.0000 -0.1687234996
C   C204      1.0  0.20740  0.80500  0.76530  1.0000 -0.1687234996
C   C205      1.0  0.32790  0.17780  0.72470  1.0000 -0.177630233
C   C206      1.0  0.17780  0.72470  0.32790  1.0000 -0.177630233
C   C207      1.0  0.72470  0.32790  0.17780  1.0000 -0.177630233
C   C208      1.0  0.67210  0.82220  0.27530  1.0000 -0.177630233
C   C209      1.0  0.82220  0.27530  0.67210  1.0000 -0.177630233
C   C210      1.0  0.27530  0.67210  0.82220  1.0000 -0.177630233
C   C211      1.0  0.21100  0.28000  0.79640  1.0000 -0.1577925272
C   C212      1.0  0.28000  0.79640  0.21100  1.0000 -0.1577925272
C   C213      1.0  0.79640  0.21100  0.28000  1.0000 -0.1577925272
C   C214      1.0  0.78900  0.72000  0.20360  1.0000 -0.1577925272
C   C215      1.0  0.72000  0.20360  0.78900  1.0000 -0.1577925272
C   C216      1.0  0.20360  0.78900  0.72000  1.0000 -0.1577925272
C   C217      1.0  0.34518  0.22248  0.72898  1.0000 -0.1479358783
C   C218      1.0  0.22248  0.72898  0.34518  1.0000 -0.1479358783
C   C219      1.0  0.72898  0.34518  0.22248  1.0000 -0.1479358783
C   C220      1.0  0.65482  0.77752  0.27102  1.0000 -0.1479358783
C   C221      1.0  0.77752  0.27102  0.65482  1.0000 -0.1479358783
C   C222      1.0  0.27102  0.65482  0.77752  1.0000 -0.1479358783
C   C223      1.0  0.28559  0.27429  0.76559  1.0000 0.0997018914
C   C224      1.0  0.27429  0.76559  0.28559  1.0000 0.0997018914
C   C225      1.0  0.76559  0.28559  0.27429  1.0000 0.0997018914
C   C226      1.0  0.71441  0.72571  0.23441  1.0000 0.0997018914
C   C227      1.0  0.72571  0.23441  0.71441  1.0000 0.0997018914
C   C228      1.0  0.23441  0.71441  0.72571  1.0000 0.0997018914
C   C229      1.0  0.30545  0.32365  0.76825  1.0000 -0.177630233
C   C230      1.0  0.32365  0.76825  0.30545  1.0000 -0.177630233
C   C231      1.0  0.76825  0.30545  0.32365  1.0000 -0.177630233
C   C232      1.0  0.69455  0.67635  0.23175  1.0000 -0.177630233
C   C233      1.0  0.67635  0.23175  0.69455  1.0000 -0.177630233
C   C234      1.0  0.23175  0.69455  0.67635  1.0000 -0.177630233
C   C235      1.0  0.40059  0.38909  0.65369  1.0000 0.0692693278
C   C236      1.0  0.38909  0.65369  0.40059  1.0000 0.0692693278
C   C237      1.0  0.65369  0.40059  0.38909  1.0000 0.0692693278
C   C238      1.0  0.59941  0.61091  0.34631  1.0000 0.0692693278
C   C239      1.0  0.61091  0.34631  0.59941  1.0000 0.0692693278
C   C240      1.0  0.34631  0.59941  0.61091  1.0000 0.0692693278
C   C241      1.0  0.29128  0.43568  0.64258  1.0000 -0.1032022141
C   C242      1.0  0.43568  0.64258  0.29128  1.0000 -0.1032022141
C   C243      1.0  0.64258  0.29128  0.43568  1.0000 -0.1032022141
C   C244      1.0  0.70872  0.56432  0.35742  1.0000 -0.1032022141
C   C245      1.0  0.56432  0.35742  0.70872  1.0000 -0.1032022141
C   C246      1.0  0.35742  0.70872  0.56432  1.0000 -0.1032022141
C   C247      1.0  0.33890  0.47290  0.57820  1.0000 -0.0558614128
C   C248      1.0  0.47290  0.57820  0.33890  1.0000 -0.0558614128
C   C249      1.0  0.57820  0.33890  0.47290  1.0000 -0.0558614128
C   C250      1.0  0.66110  0.52710  0.42180  1.0000 -0.0558614128
C   C251      1.0  0.52710  0.42180  0.66110  1.0000 -0.0558614128
C   C252      1.0  0.42180  0.66110  0.52710  1.0000 -0.0558614128
N   N1        1.0  0.78397  0.75257  0.92577  1.0000 -0.2908126853
N   N2        1.0  0.75257  0.92577  0.78397  1.0000 -0.2908126853
N   N3        1.0  0.92577  0.78397  0.75257  1.0000 -0.2908126853
N   N4        1.0  0.70995  0.68585  0.02865  1.0000 0.0515675077
N   N5        1.0  0.68585  0.02865  0.70995  1.0000 0.0515675077
N   N6        1.0  0.02865  0.70995  0.68585  1.0000 0.0515675077
N   N7        1.0  0.40322  0.55652  0.18142  1.0000 0.0373557332
N   N8        1.0  0.55652  0.18142  0.40322  1.0000 0.0373557332
N   N9        1.0  0.18142  0.40322  0.55652  1.0000 0.0373557332
N   N10       1.0  0.36638  0.45928  0.27428  1.0000 -0.2908126853
N   N11       1.0  0.45928  0.27428  0.36638  1.0000 -0.2908126853
N   N12       1.0  0.27428  0.36638  0.45928  1.0000 -0.2908126853
N   N13       1.0  0.90062  0.93612  0.75832  1.0000 -0.3015490375
N   N14       1.0  0.93612  0.75832  0.90062  1.0000 -0.3015490375
N   N15       1.0  0.75832  0.90062  0.93612  1.0000 -0.3015490375
N   N16       1.0  0.96612  0.00762  0.64862  1.0000 0.0515675077
N   N17       1.0  0.00762  0.64862  0.96612  1.0000 0.0515675077
N   N18       1.0  0.64862  0.96612  0.00762  1.0000 0.0515675077
N   N19       1.0  0.26821  0.14251  0.50921  1.0000 0.0313730411
N   N20       1.0  0.14251  0.50921  0.26821  1.0000 0.0313730411
N   N21       1.0  0.50921  0.26821  0.14251  1.0000 0.0313730411
N   N22       1.0  0.32004  0.22884  0.41624  1.0000 -0.2908126853
N   N23       1.0  0.22884  0.41624  0.32004  1.0000 -0.2908126853
N   N24       1.0  0.41624  0.32004  0.22884  1.0000 -0.2908126853
N   N25       1.0  0.21603  0.24743  0.07423  1.0000 -0.2908126853
N   N26       1.0  0.24743  0.07423  0.21603  1.0000 -0.2908126853
N   N27       1.0  0.07423  0.21603  0.24743  1.0000 -0.2908126853
N   N28       1.0  0.29005  0.31415  0.97135  1.0000 0.0515675077
N   N29       1.0  0.31415  0.97135  0.29005  1.0000 0.0515675077
N   N30       1.0  0.97135  0.29005  0.31415  1.0000 0.0515675077
N   N31       1.0  0.59678  0.44348  0.81858  1.0000 0.0373557332
N   N32       1.0  0.44348  0.81858  0.59678  1.0000 0.0373557332
N   N33       1.0  0.81858  0.59678  0.44348  1.0000 0.0373557332
N   N34       1.0  0.63362  0.54072  0.72572  1.0000 -0.2908126853
N   N35       1.0  0.54072  0.72572  0.63362  1.0000 -0.2908126853
N   N36       1.0  0.72572  0.63362  0.54072  1.0000 -0.2908126853
N   N37       1.0  0.09938  0.06388  0.24168  1.0000 -0.3015490375
N   N38       1.0  0.06388  0.24168  0.09938  1.0000 -0.3015490375
N   N39       1.0  0.24168  0.09938  0.06388  1.0000 -0.3015490375
N   N40       1.0  0.03388  0.99238  0.35138  1.0000 0.0515675077
N   N41       1.0  0.99238  0.35138  0.03388  1.0000 0.0515675077
N   N42       1.0  0.35138  0.03388  0.99238  1.0000 0.0515675077
N   N43       1.0  0.73179  0.85749  0.49079  1.0000 0.0313730411
N   N44       1.0  0.85749  0.49079  0.73179  1.0000 0.0313730411
N   N45       1.0  0.49079  0.73179  0.85749  1.0000 0.0313730411
N   N46       1.0  0.67996  0.77116  0.58376  1.0000 -0.2908126853
N   N47       1.0  0.77116  0.58376  0.67996  1.0000 -0.2908126853
N   N48       1.0  0.58376  0.67996  0.77116  1.0000 -0.2908126853
N   N49       1.0  0.10848  0.03278  0.92618  1.0000 -0.2908126853
N   N50       1.0  0.03278  0.92618  0.10848  1.0000 -0.2908126853
N   N51       1.0  0.92618  0.10848  0.03278  1.0000 -0.2908126853
N   N52       1.0  0.89152  0.96722  0.07382  1.0000 -0.2908126853
N   N53       1.0  0.96722  0.07382  0.89152  1.0000 -0.2908126853
N   N54       1.0  0.07382  0.89152  0.96722  1.0000 -0.2908126853
N   N55       1.0  0.19525  0.08665  0.82805  1.0000 0.0373557332
N   N56       1.0  0.08665  0.82805  0.19525  1.0000 0.0373557332
N   N57       1.0  0.82805  0.19525  0.08665  1.0000 0.0373557332
N   N58       1.0  0.80475  0.91335  0.17195  1.0000 0.0373557332
N   N59       1.0  0.91335  0.17195  0.80475  1.0000 0.0373557332
N   N60       1.0  0.17195  0.80475  0.91335  1.0000 0.0373557332
N   N61       1.0  0.33119  0.38099  0.69129  1.0000 0.0515675077
N   N62       1.0  0.38099  0.69129  0.33119  1.0000 0.0515675077
N   N63       1.0  0.69129  0.33119  0.38099  1.0000 0.0515675077
N   N64       1.0  0.66881  0.61901  0.30871  1.0000 0.0515675077
N   N65       1.0  0.61901  0.30871  0.66881  1.0000 0.0515675077
N   N66       1.0  0.30871  0.66881  0.61901  1.0000 0.0515675077
N   N67       1.0  0.40766  0.44306  0.58356  1.0000 -0.2908126853
N   N68       1.0  0.44306  0.58356  0.40766  1.0000 -0.2908126853
N   N69       1.0  0.58356  0.40766  0.44306  1.0000 -0.2908126853
N   N70       1.0  0.59234  0.55694  0.41644  1.0000 -0.2908126853
N   N71       1.0  0.55694  0.41644  0.59234  1.0000 -0.2908126853
N   N72       1.0  0.41644  0.59234  0.55694  1.0000 -0.2908126853
Cl  Cl1       1.0  0.15041  0.83640  0.49863  1.0000 1.2402781494
Cl  Cl2       1.0  0.49863  0.15041  0.83640  1.0000 1.233284045
Cl  Cl3       1.0  0.83640  0.49863  0.15041  1.0000 1.233284045
Cl  Cl4       1.0  0.84959  0.16360  0.50137  1.0000 1.233284045
Cl  Cl5       1.0  0.50137  0.84959  0.16360  1.0000 1.233284045
Cl  Cl6       1.0  0.16360  0.50137  0.84959  1.0000 1.233284045
O   O1        1.0  0.11646  0.81056  0.48666  1.0000 -0.5191994942
O   O2        1.0  0.10802  0.83662  0.57542  1.0000 -0.5191994942
O   O3        1.0  0.14878  0.91298  0.44198  1.0000 -0.5191994942
O   O4        1.0  0.22901  0.78381  0.49071  1.0000 -0.5191994942
O   O5        1.0  0.48666  0.11646  0.81056  1.0000 -0.5191994942
O   O6        1.0  0.57542  0.10802  0.83662  1.0000 -0.5137926452
O   O7        1.0  0.44198  0.14878  0.91298  1.0000 -0.5191994942
O   O8        1.0  0.49071  0.22901  0.78381  1.0000 -0.5191994942
O   O9        1.0  0.81056  0.48666  0.11646  1.0000 -0.5191994942
O   O10       1.0  0.83662  0.57542  0.10802  1.0000 -0.5137926452
O   O11       1.0  0.91298  0.44198  0.14878  1.0000 -0.5191994942
O   O12       1.0  0.78381  0.49071  0.22901  1.0000 -0.5191994942
O   O13       1.0  0.88354  0.18944  0.51334  1.0000 -0.5191994942
O   O14       1.0  0.89198  0.16338  0.42458  1.0000 -0.5137926452
O   O15       1.0  0.85122  0.08702  0.55802  1.0000 -0.5191994942
O   O16       1.0  0.77099  0.21619  0.50929  1.0000 -0.5191994942
O   O17       1.0  0.51334  0.88354  0.18944  1.0000 -0.5191994942
O   O18       1.0  0.42458  0.89198  0.16338  1.0000 -0.5137926452
O   O19       1.0  0.55802  0.85122  0.08702  1.0000 -0.5191994942
O   O20       1.0  0.50929  0.77099  0.21619  1.0000 -0.5191994942
O   O21       1.0  0.18944  0.51334  0.88354  1.0000 -0.5191994942
O   O22       1.0  0.16338  0.42458  0.89198  1.0000 -0.5137926452
O   O23       1.0  0.08702  0.55802  0.85122  1.0000 -0.5191994942
O   O24       1.0  0.21619  0.50929  0.77099  1.0000 -0.5191994942
