# DDEC6 charges by PACMAN v1.1 (https://github.com/mtap-research/PACMAN-charge/)
data_2003[RbGa][nan]3[ION]2
_chemical_formula_sum              "Rb4 Ga18 P18 H72 C24 N8 O72 F14"
_cell_length_a       18.2382
_cell_length_b       18.2382
_cell_length_c       10.212
_cell_angle_alpha    90
_cell_angle_beta     90
_cell_angle_gamma    123.628

_symmetry_space_group_name_H-M    "P 1"
_symmetry_Int_Tables_number       1

loop_
  _symmetry_equiv_pos_as_xyz
  'x, y, z'

loop_
  _atom_site_type_symbol
  _atom_site_label
  _atom_site_symmetry_multiplicity
  _atom_site_fract_x
  _atom_site_fract_y
  _atom_site_fract_z
  _atom_site_occupancy
  _atom_site_charge
Rb  Rb1       1.0  0.09241  0.76209  0.96049  1.0000 0.9693740091
Rb  Rb2       1.0  0.90759  0.23791  0.46049  1.0000 0.9693740091
Rb  Rb3       1.0  0.23791  0.90759  0.46049  1.0000 0.9693740091
Rb  Rb4       1.0  0.76209  0.09241  0.96049  1.0000 0.9693740091
Ga  Ga1       1.0  0.84582  0.00702  0.28894  1.0000 1.5422769567
Ga  Ga2       1.0  0.15492  0.66866  0.29917  1.0000 1.5215992949
Ga  Ga3       1.0  0.34558  0.00870  0.10730  1.0000 1.5307857773
Ga  Ga4       1.0  0.96214  0.51168  0.13230  1.0000 1.5148882649
Ga  Ga5       1.0  0.15418  0.99298  0.78894  1.0000 1.5422769567
Ga  Ga6       1.0  0.84508  0.33134  0.79917  1.0000 1.5215992949
Ga  Ga7       1.0  0.65442  0.99130  0.60730  1.0000 1.5307857773
Ga  Ga8       1.0  0.03786  0.48832  0.63230  1.0000 1.5148882649
Ga  Ga9       1.0  0.99298  0.15418  0.78894  1.0000 1.5422769567
Ga  Ga10      1.0  0.33134  0.84508  0.79917  1.0000 1.5215992949
Ga  Ga11      1.0  0.99130  0.65442  0.60730  1.0000 1.5307857773
Ga  Ga12      1.0  0.48832  0.03786  0.63230  1.0000 1.5148882649
Ga  Ga13      1.0  0.00702  0.84582  0.28894  1.0000 1.5422769567
Ga  Ga14      1.0  0.66866  0.15492  0.29917  1.0000 1.5215992949
Ga  Ga15      1.0  0.00870  0.34558  0.10730  1.0000 1.5307857773
Ga  Ga16      1.0  0.51168  0.96214  0.13230  1.0000 1.5148882649
Ga  Ga17      1.0  0.05093  0.05093  0.21266  1.0000 1.5215992949
Ga  Ga18      1.0  0.94907  0.94907  0.71266  1.0000 1.5215992949
P   P1        1.0  0.30768  0.81756  0.10460  1.0000 1.5489736876
P   P2        1.0  0.34292  0.02624  0.81621  1.0000 1.5307857773
P   P3        1.0  0.15883  0.97681  0.09568  1.0000 1.5735780975
P   P4        1.0  0.93272  0.52656  0.83467  1.0000 1.5215992949
P   P5        1.0  0.69232  0.18244  0.60460  1.0000 1.5489736876
P   P6        1.0  0.65708  0.97376  0.31621  1.0000 1.5307857773
P   P7        1.0  0.84117  0.02319  0.59568  1.0000 1.5735780975
P   P8        1.0  0.06728  0.47344  0.33467  1.0000 1.5215992949
P   P9        1.0  0.18244  0.69232  0.60460  1.0000 1.5489736876
P   P10       1.0  0.97376  0.65708  0.31621  1.0000 1.5307857773
P   P11       1.0  0.02319  0.84117  0.59568  1.0000 1.5735780975
P   P12       1.0  0.47344  0.06728  0.33467  1.0000 1.5215992949
P   P13       1.0  0.81756  0.30768  0.10460  1.0000 1.5489736876
P   P14       1.0  0.02624  0.34292  0.81621  1.0000 1.5307857773
P   P15       1.0  0.97681  0.15883  0.09568  1.0000 1.5735780975
P   P16       1.0  0.52656  0.93272  0.83467  1.0000 1.5215992949
P   P17       1.0  0.87258  0.87258  0.16255  1.0000 1.4974801323
P   P18       1.0  0.12742  0.12742  0.66255  1.0000 1.4974801323
H   H1        1.0  0.62590  0.20450  0.86140  1.0000 0.2785156351
H   H2        1.0  0.53520  0.13700  0.89510  1.0000 0.2929738692
H   H3        1.0  0.60580  0.15920  0.98630  1.0000 0.2785156351
H   H4        1.0  0.60810  0.26570  0.06980  1.0000 0.1090951198
H   H5        1.0  0.51500  0.22220  0.00510  1.0000 0.1090951198
H   H6        1.0  0.56810  0.31390  0.83400  1.0000 0.1090951198
H   H7        1.0  0.66460  0.34200  0.86070  1.0000 0.1291715881
H   H8        1.0  0.57350  0.40350  0.98220  1.0000 0.0774831172
H   H9        1.0  0.65410  0.41410  0.05190  1.0000 0.0774831172
H   H10       1.0  0.66040  0.52080  0.85020  1.0000 0.1014515876
H   H11       1.0  0.74670  0.52550  0.89660  1.0000 0.1090951198
H   H12       1.0  0.64640  0.48320  0.10730  1.0000 0.0736266679
H   H13       1.0  0.64200  0.55860  0.04460  1.0000 0.1090951198
H   H14       1.0  0.75240  0.64860  0.15840  1.0000 0.1090951198
H   H15       1.0  0.76490  0.57430  0.20470  1.0000 0.1090951198
H   H16       1.0  0.83560  0.66640  0.97790  1.0000 0.2619789621
H   H17       1.0  0.85040  0.60100  0.02770  1.0000 0.2785156351
H   H18       1.0  0.88630  0.68370  0.09710  1.0000 0.296812453
H   H19       1.0  0.37410  0.79550  0.36140  1.0000 0.2785156351
H   H20       1.0  0.46480  0.86300  0.39510  1.0000 0.2929738692
H   H21       1.0  0.39420  0.84080  0.48630  1.0000 0.2785156351
H   H22       1.0  0.39190  0.73430  0.56980  1.0000 0.1090951198
H   H23       1.0  0.48500  0.77780  0.50510  1.0000 0.1090951198
H   H24       1.0  0.43190  0.68610  0.33400  1.0000 0.1090951198
H   H25       1.0  0.33540  0.65800  0.36070  1.0000 0.1291715881
H   H26       1.0  0.42650  0.59650  0.48220  1.0000 0.0774831172
H   H27       1.0  0.34590  0.58590  0.55190  1.0000 0.0774831172
H   H28       1.0  0.33960  0.47920  0.35020  1.0000 0.1014515876
H   H29       1.0  0.25330  0.47450  0.39660  1.0000 0.1090951198
H   H30       1.0  0.35360  0.51680  0.60730  1.0000 0.0736266679
H   H31       1.0  0.35800  0.44140  0.54460  1.0000 0.1090951198
H   H32       1.0  0.24760  0.35140  0.65840  1.0000 0.1090951198
H   H33       1.0  0.23510  0.42570  0.70470  1.0000 0.1090951198
H   H34       1.0  0.16440  0.33360  0.47790  1.0000 0.2619789621
H   H35       1.0  0.14960  0.39900  0.52770  1.0000 0.2785156351
H   H36       1.0  0.11370  0.31630  0.59710  1.0000 0.296812453
H   H37       1.0  0.79550  0.37410  0.36140  1.0000 0.2785156351
H   H38       1.0  0.86300  0.46480  0.39510  1.0000 0.2929738692
H   H39       1.0  0.84080  0.39420  0.48630  1.0000 0.2785156351
H   H40       1.0  0.73430  0.39190  0.56980  1.0000 0.1090951198
H   H41       1.0  0.77780  0.48500  0.50510  1.0000 0.1090951198
H   H42       1.0  0.68610  0.43190  0.33400  1.0000 0.1090951198
H   H43       1.0  0.65800  0.33540  0.36070  1.0000 0.1291715881
H   H44       1.0  0.59650  0.42650  0.48220  1.0000 0.0774831172
H   H45       1.0  0.58590  0.34590  0.55190  1.0000 0.0774831172
H   H46       1.0  0.47920  0.33960  0.35020  1.0000 0.1014515876
H   H47       1.0  0.47450  0.25330  0.39660  1.0000 0.1090951198
H   H48       1.0  0.51680  0.35360  0.60730  1.0000 0.0736266679
H   H49       1.0  0.44140  0.35800  0.54460  1.0000 0.1090951198
H   H50       1.0  0.35140  0.24760  0.65840  1.0000 0.1090951198
H   H51       1.0  0.42570  0.23510  0.70470  1.0000 0.1090951198
H   H52       1.0  0.33360  0.16440  0.47790  1.0000 0.2619789621
H   H53       1.0  0.39900  0.14960  0.52770  1.0000 0.2785156351
H   H54       1.0  0.31630  0.11370  0.59710  1.0000 0.296812453
H   H55       1.0  0.20450  0.62590  0.86140  1.0000 0.2785156351
H   H56       1.0  0.13700  0.53520  0.89510  1.0000 0.2929738692
H   H57       1.0  0.15920  0.60580  0.98630  1.0000 0.2785156351
H   H58       1.0  0.26570  0.60810  0.06980  1.0000 0.1090951198
H   H59       1.0  0.22220  0.51500  0.00510  1.0000 0.1090951198
H   H60       1.0  0.31390  0.56810  0.83400  1.0000 0.1090951198
H   H61       1.0  0.34200  0.66460  0.86070  1.0000 0.1291715881
H   H62       1.0  0.40350  0.57350  0.98220  1.0000 0.0774831172
H   H63       1.0  0.41410  0.65410  0.05190  1.0000 0.0774831172
H   H64       1.0  0.52080  0.66040  0.85020  1.0000 0.1014515876
H   H65       1.0  0.52550  0.74670  0.89660  1.0000 0.1090951198
H   H66       1.0  0.48320  0.64640  0.10730  1.0000 0.0736266679
H   H67       1.0  0.55860  0.64200  0.04460  1.0000 0.1090951198
H   H68       1.0  0.64860  0.75240  0.15840  1.0000 0.1090951198
H   H69       1.0  0.57430  0.76490  0.20470  1.0000 0.1090951198
H   H70       1.0  0.66640  0.83560  0.97790  1.0000 0.2619789621
H   H71       1.0  0.60100  0.85040  0.02770  1.0000 0.2785156351
H   H72       1.0  0.68370  0.88630  0.09710  1.0000 0.296812453
C   C1        1.0  0.57693  0.24807  0.98690  1.0000 -0.0202895332
C   C2        1.0  0.61094  0.32906  0.90280  1.0000 -0.2142573067
C   C3        1.0  0.63080  0.41340  0.96630  1.0000 -0.1124222534
C   C4        1.0  0.68710  0.50670  0.91940  1.0000 -0.171812489
C   C5        1.0  0.67860  0.53560  0.05330  1.0000 -0.171812489
C   C6        1.0  0.75940  0.60240  0.12820  1.0000 -0.0202895332
C   C7        1.0  0.42307  0.75193  0.48690  1.0000 -0.0202895332
C   C8        1.0  0.38906  0.67094  0.40280  1.0000 -0.2142573067
C   C9        1.0  0.36920  0.58660  0.46630  1.0000 -0.1124222534
C   C10       1.0  0.31290  0.49330  0.41940  1.0000 -0.171812489
C   C11       1.0  0.32140  0.46440  0.55330  1.0000 -0.171812489
C   C12       1.0  0.24060  0.39760  0.62820  1.0000 -0.0202895332
C   C13       1.0  0.75193  0.42307  0.48690  1.0000 -0.0202895332
C   C14       1.0  0.67094  0.38906  0.40280  1.0000 -0.2142573067
C   C15       1.0  0.58660  0.36920  0.46630  1.0000 -0.1124222534
C   C16       1.0  0.49330  0.31290  0.41940  1.0000 -0.171812489
C   C17       1.0  0.46440  0.32140  0.55330  1.0000 -0.171812489
C   C18       1.0  0.39760  0.24060  0.62820  1.0000 -0.0202895332
C   C19       1.0  0.24807  0.57693  0.98690  1.0000 -0.0202895332
C   C20       1.0  0.32906  0.61094  0.90280  1.0000 -0.2142573067
C   C21       1.0  0.41340  0.63080  0.96630  1.0000 -0.1124222534
C   C22       1.0  0.50670  0.68710  0.91940  1.0000 -0.171812489
C   C23       1.0  0.53560  0.67860  0.05330  1.0000 -0.171812489
C   C24       1.0  0.60240  0.75940  0.12820  1.0000 -0.0202895332
N   N1        1.0  0.58693  0.18043  0.92640  1.0000 -0.4170862696
N   N2        1.0  0.84110  0.64230  0.05000  1.0000 -0.4170862696
N   N3        1.0  0.41307  0.81957  0.42640  1.0000 -0.4170862696
N   N4        1.0  0.15890  0.35770  0.55000  1.0000 -0.4170862696
N   N5        1.0  0.81957  0.41307  0.42640  1.0000 -0.4170862696
N   N6        1.0  0.35770  0.15890  0.55000  1.0000 -0.4103459933
N   N7        1.0  0.18043  0.58693  0.92640  1.0000 -0.4170862696
N   N8        1.0  0.64230  0.84110  0.05000  1.0000 -0.4170862696
O   O1        1.0  0.01298  0.52810  0.79280  1.0000 -0.8249762872
O   O2        1.0  0.40406  0.84834  0.12640  1.0000 -0.788300154
O   O3        1.0  0.25343  0.74261  0.19910  1.0000 -0.788300154
O   O4        1.0  0.94415  0.55935  0.97550  1.0000 -0.8302167089
O   O5        1.0  0.42811  0.07631  0.73580  1.0000 -0.788300154
O   O6        1.0  0.27766  0.78442  0.96530  1.0000 -0.8360677579
O   O7        1.0  0.84827  0.43313  0.82000  1.0000 -0.788300154
O   O8        1.0  0.30693  0.92793  0.83680  1.0000 -0.8302167089
O   O9        1.0  0.16734  0.95732  0.95170  1.0000 -0.8302167089
O   O10       1.0  0.92111  0.58941  0.74740  1.0000 -0.788300154
O   O11       1.0  0.24532  0.01132  0.16480  1.0000 -0.7765436986
O   O12       1.0  0.13437  0.04431  0.10480  1.0000 -0.7526815006
O   O13       1.0  0.27463  0.03411  0.74310  1.0000 -0.7702863732
O   O14       1.0  0.08755  0.88639  0.15380  1.0000 -0.8302167089
O   O15       1.0  0.36100  0.06934  0.95290  1.0000 -0.7581441471
O   O16       1.0  0.28943  0.88837  0.13900  1.0000 -0.8579864719
O   O17       1.0  0.81759  0.89479  0.24680  1.0000 -0.7765436986
O   O18       1.0  0.98702  0.47190  0.29280  1.0000 -0.8249762872
O   O19       1.0  0.59594  0.15166  0.62640  1.0000 -0.788300154
O   O20       1.0  0.74657  0.25739  0.69910  1.0000 -0.788300154
O   O21       1.0  0.05585  0.44065  0.47550  1.0000 -0.8302167089
O   O22       1.0  0.57189  0.92369  0.23580  1.0000 -0.788300154
O   O23       1.0  0.72234  0.21558  0.46530  1.0000 -0.8360677579
O   O24       1.0  0.15173  0.56687  0.32000  1.0000 -0.788300154
O   O25       1.0  0.69307  0.07207  0.33680  1.0000 -0.8302167089
O   O26       1.0  0.83266  0.04268  0.45170  1.0000 -0.8302167089
O   O27       1.0  0.07889  0.41059  0.24740  1.0000 -0.788300154
O   O28       1.0  0.75468  0.98868  0.66480  1.0000 -0.7765436986
O   O29       1.0  0.86563  0.95569  0.60480  1.0000 -0.7526815006
O   O30       1.0  0.72537  0.96589  0.24310  1.0000 -0.7702863732
O   O31       1.0  0.91245  0.11361  0.65380  1.0000 -0.8302167089
O   O32       1.0  0.63900  0.93066  0.45290  1.0000 -0.7581441471
O   O33       1.0  0.71057  0.11163  0.63900  1.0000 -0.8579864719
O   O34       1.0  0.18241  0.10521  0.74680  1.0000 -0.7765436986
O   O35       1.0  0.47190  0.98702  0.29280  1.0000 -0.8249762872
O   O36       1.0  0.15166  0.59594  0.62640  1.0000 -0.788300154
O   O37       1.0  0.25739  0.74657  0.69910  1.0000 -0.788300154
O   O38       1.0  0.44065  0.05585  0.47550  1.0000 -0.8302167089
O   O39       1.0  0.92369  0.57189  0.23580  1.0000 -0.788300154
O   O40       1.0  0.21558  0.72234  0.46530  1.0000 -0.8360677579
O   O41       1.0  0.56687  0.15173  0.32000  1.0000 -0.788300154
O   O42       1.0  0.07207  0.69307  0.33680  1.0000 -0.8302167089
O   O43       1.0  0.04268  0.83266  0.45170  1.0000 -0.8302167089
O   O44       1.0  0.41059  0.07889  0.24740  1.0000 -0.788300154
O   O45       1.0  0.98868  0.75468  0.66480  1.0000 -0.7765436986
O   O46       1.0  0.95569  0.86563  0.60480  1.0000 -0.7526815006
O   O47       1.0  0.96589  0.72537  0.24310  1.0000 -0.7702863732
O   O48       1.0  0.11361  0.91245  0.65380  1.0000 -0.8302167089
O   O49       1.0  0.93066  0.63900  0.45290  1.0000 -0.7581441471
O   O50       1.0  0.11163  0.71057  0.63900  1.0000 -0.8579864719
O   O51       1.0  0.10521  0.18241  0.74680  1.0000 -0.7765436986
O   O52       1.0  0.52810  0.01298  0.79280  1.0000 -0.8249762872
O   O53       1.0  0.84834  0.40406  0.12640  1.0000 -0.788300154
O   O54       1.0  0.74261  0.25343  0.19910  1.0000 -0.788300154
O   O55       1.0  0.55935  0.94415  0.97550  1.0000 -0.8302167089
O   O56       1.0  0.07631  0.42811  0.73580  1.0000 -0.788300154
O   O57       1.0  0.78442  0.27766  0.96530  1.0000 -0.8360677579
O   O58       1.0  0.43313  0.84827  0.82000  1.0000 -0.788300154
O   O59       1.0  0.92793  0.30693  0.83680  1.0000 -0.8302167089
O   O60       1.0  0.95732  0.16734  0.95170  1.0000 -0.8302167089
O   O61       1.0  0.58941  0.92111  0.74740  1.0000 -0.788300154
O   O62       1.0  0.01132  0.24532  0.16480  1.0000 -0.7765436986
O   O63       1.0  0.04431  0.13437  0.10480  1.0000 -0.7526815006
O   O64       1.0  0.03411  0.27463  0.74310  1.0000 -0.7702863732
O   O65       1.0  0.88639  0.08755  0.15380  1.0000 -0.8302167089
O   O66       1.0  0.06934  0.36100  0.95290  1.0000 -0.7581441471
O   O67       1.0  0.88837  0.28943  0.13900  1.0000 -0.8579864719
O   O68       1.0  0.89479  0.81759  0.24680  1.0000 -0.7765436986
O   O69       1.0  0.95472  0.95472  0.10620  1.0000 -0.788300154
O   O70       1.0  0.81340  0.81340  0.04750  1.0000 -0.683448396
O   O71       1.0  0.04528  0.04528  0.60620  1.0000 -0.788300154
O   O72       1.0  0.18660  0.18660  0.54750  1.0000 -0.683448396
F   F1        1.0  0.08448  0.61662  0.12880  1.0000 -0.5563184538
F   F2        1.0  0.96627  0.04841  0.33160  1.0000 -0.5086303198
F   F3        1.0  0.45291  0.01027  0.04220  1.0000 -0.5086303198
F   F4        1.0  0.91552  0.38338  0.62880  1.0000 -0.5563184538
F   F5        1.0  0.03373  0.95159  0.83160  1.0000 -0.5086303198
F   F6        1.0  0.54709  0.98973  0.54220  1.0000 -0.5086303198
F   F7        1.0  0.38338  0.91552  0.62880  1.0000 -0.5563184538
F   F8        1.0  0.95159  0.03373  0.83160  1.0000 -0.5086303198
F   F9        1.0  0.98973  0.54709  0.54220  1.0000 -0.5086303198
F   F10       1.0  0.61662  0.08448  0.12880  1.0000 -0.5563184538
F   F11       1.0  0.04841  0.96627  0.33160  1.0000 -0.5086303198
F   F12       1.0  0.01027  0.45291  0.04220  1.0000 -0.5086303198
F   F13       1.0  0.14686  0.14686  0.30850  1.0000 -0.4103459933
F   F14       1.0  0.85314  0.85314  0.80850  1.0000 -0.4103459933
