# DDEC6 charges by PACMAN v1.1 (https://github.com/mtap-research/PACMAN-charge/)
data_2003[RbGa][nan]3[ION]1
_chemical_formula_sum              "Rb4 Ga18 P18 H74 C24 N8 O72 F14"
_cell_length_a       10.212
_cell_length_b       17.229
_cell_length_c       18.2382
_cell_angle_alpha    118.186
_cell_angle_beta     90
_cell_angle_gamma    90

_symmetry_space_group_name_H-M    "P 1"
_symmetry_Int_Tables_number       1

loop_
  _symmetry_equiv_pos_as_xyz
  'x, y, z'

loop_
  _atom_site_type_symbol
  _atom_site_label
  _atom_site_symmetry_multiplicity
  _atom_site_fract_x
  _atom_site_fract_y
  _atom_site_fract_z
  _atom_site_occupancy
  _atom_site_charge
Rb  Rb1       1.0  0.96049  0.09241  0.33032  1.0000 0.9560560042
Rb  Rb2       1.0  0.46049  0.90759  0.66968  1.0000 0.9560560042
Rb  Rb3       1.0  0.46049  0.23791  0.33032  1.0000 0.9560560042
Rb  Rb4       1.0  0.96049  0.76209  0.66968  1.0000 0.9560560042
Ga  Ga1       1.0  0.78894  0.99298  0.83880  1.0000 1.548135286
Ga  Ga2       1.0  0.79917  0.84508  0.51374  1.0000 1.5194870586
Ga  Ga3       1.0  0.10730  0.00870  0.66312  1.0000 1.5324047322
Ga  Ga4       1.0  0.13230  0.96214  0.45046  1.0000 1.5194870586
Ga  Ga5       1.0  0.21266  0.05093  0.00000  1.0000 1.5324047322
Ga  Ga6       1.0  0.28894  0.00702  0.16120  1.0000 1.548135286
Ga  Ga7       1.0  0.29917  0.15492  0.48626  1.0000 1.5194870586
Ga  Ga8       1.0  0.60730  0.99130  0.33688  1.0000 1.5324047322
Ga  Ga9       1.0  0.63230  0.03786  0.54954  1.0000 1.5194870586
Ga  Ga10      1.0  0.71266  0.94907  0.00000  1.0000 1.5324047322
Ga  Ga11      1.0  0.28894  0.84582  0.83880  1.0000 1.548135286
Ga  Ga12      1.0  0.29917  0.66866  0.51374  1.0000 1.5194870586
Ga  Ga13      1.0  0.60730  0.65442  0.66312  1.0000 1.5324047322
Ga  Ga14      1.0  0.63230  0.48832  0.45046  1.0000 1.5194870586
Ga  Ga15      1.0  0.78894  0.15418  0.16120  1.0000 1.548135286
Ga  Ga16      1.0  0.79917  0.33134  0.48626  1.0000 1.5194870586
Ga  Ga17      1.0  0.10730  0.34558  0.33688  1.0000 1.5324047322
Ga  Ga18      1.0  0.13230  0.51168  0.54954  1.0000 1.5194870586
P   P1        1.0  0.10460  0.81756  0.50988  1.0000 1.5408580655
P   P2        1.0  0.31621  0.97376  0.31668  1.0000 1.5324047322
P   P3        1.0  0.09568  0.97681  0.81798  1.0000 1.570171451
P   P4        1.0  0.33467  0.06728  0.59384  1.0000 1.5194870586
P   P5        1.0  0.66255  0.12742  0.00000  1.0000 1.5037790889
P   P6        1.0  0.60460  0.18244  0.49012  1.0000 1.5408580655
P   P7        1.0  0.81621  0.02624  0.68332  1.0000 1.5324047322
P   P8        1.0  0.59568  0.02319  0.18202  1.0000 1.570171451
P   P9        1.0  0.83467  0.93272  0.40616  1.0000 1.5194870586
P   P10       1.0  0.16255  0.87258  0.00000  1.0000 1.5037790889
P   P11       1.0  0.60460  0.69232  0.50988  1.0000 1.5408580655
P   P12       1.0  0.81621  0.34292  0.31668  1.0000 1.5324047322
P   P13       1.0  0.59568  0.84117  0.81798  1.0000 1.570171451
P   P14       1.0  0.83467  0.52656  0.59384  1.0000 1.5194870586
P   P15       1.0  0.10460  0.30768  0.49012  1.0000 1.5408580655
P   P16       1.0  0.31621  0.65708  0.68332  1.0000 1.5324047322
P   P17       1.0  0.09568  0.15883  0.18202  1.0000 1.570171451
P   P18       1.0  0.33467  0.47344  0.40616  1.0000 1.5194870586
H   H1        1.0  0.46447  0.15888  0.99922  1.0000 0.4108307416
H   H2        1.0  0.96447  0.84112  0.00078  1.0000 0.4108307416
H   H3        1.0  0.06980  0.60810  0.34240  1.0000 0.1193560044
H   H4        1.0  0.00510  0.51500  0.29280  1.0000 0.1193560044
H   H5        1.0  0.83400  0.56810  0.25420  1.0000 0.1113457995
H   H6        1.0  0.86070  0.66460  0.32260  1.0000 0.1281173134
H   H7        1.0  0.98220  0.57350  0.17000  1.0000 0.0809373556
H   H8        1.0  0.05190  0.65410  0.24000  1.0000 0.0809373556
H   H9        1.0  0.85020  0.66040  0.13960  1.0000 0.1040250862
H   H10       1.0  0.89660  0.74670  0.22120  1.0000 0.1113457995
H   H11       1.0  0.10730  0.64640  0.16320  1.0000 0.0809373556
H   H12       1.0  0.04460  0.64200  0.08340  1.0000 0.1040250862
H   H13       1.0  0.15840  0.75240  0.10380  1.0000 0.1193560044
H   H14       1.0  0.20470  0.76490  0.19060  1.0000 0.1281173134
H   H15       1.0  0.94734  0.53162  0.41432  1.0000 0.3275042741
H   H16       1.0  0.96366  0.64400  0.45690  1.0000 0.3112912866
H   H17       1.0  0.82470  0.59374  0.40324  1.0000 0.3112912866
H   H18       1.0  0.01374  0.84854  0.25564  1.0000 0.3112912866
H   H19       1.0  0.10966  0.89496  0.20913  1.0000 0.3275042741
H   H20       1.0  0.97202  0.83762  0.15983  1.0000 0.3112912866
H   H21       1.0  0.56980  0.39190  0.65760  1.0000 0.1193560044
H   H22       1.0  0.50510  0.48500  0.70720  1.0000 0.1193560044
H   H23       1.0  0.33400  0.43190  0.74580  1.0000 0.1113457995
H   H24       1.0  0.36070  0.33540  0.67740  1.0000 0.1281173134
H   H25       1.0  0.48220  0.42650  0.83000  1.0000 0.0809373556
H   H26       1.0  0.55190  0.34590  0.76000  1.0000 0.0809373556
H   H27       1.0  0.35020  0.33960  0.86040  1.0000 0.1040250862
H   H28       1.0  0.39660  0.25330  0.77880  1.0000 0.1113457995
H   H29       1.0  0.60730  0.35360  0.83680  1.0000 0.0809373556
H   H30       1.0  0.54460  0.35800  0.91660  1.0000 0.1040250862
H   H31       1.0  0.65840  0.24760  0.89620  1.0000 0.1193560044
H   H32       1.0  0.70470  0.23510  0.80940  1.0000 0.1281173134
H   H33       1.0  0.44734  0.46838  0.58568  1.0000 0.3275042741
H   H34       1.0  0.46366  0.35600  0.54310  1.0000 0.3112912866
H   H35       1.0  0.32470  0.40626  0.59676  1.0000 0.3112912866
H   H36       1.0  0.51374  0.15146  0.74436  1.0000 0.3112912866
H   H37       1.0  0.60966  0.10504  0.79087  1.0000 0.3275042741
H   H38       1.0  0.47202  0.16238  0.84017  1.0000 0.3112912866
H   H39       1.0  0.56980  0.73430  0.34240  1.0000 0.1193560044
H   H40       1.0  0.50510  0.77780  0.29280  1.0000 0.1193560044
H   H41       1.0  0.33400  0.68610  0.25420  1.0000 0.1113457995
H   H42       1.0  0.36070  0.65800  0.32260  1.0000 0.1281173134
H   H43       1.0  0.48220  0.59650  0.17000  1.0000 0.0809373556
H   H44       1.0  0.55190  0.58590  0.24000  1.0000 0.0809373556
H   H45       1.0  0.35020  0.47920  0.13960  1.0000 0.1040250862
H   H46       1.0  0.39660  0.47450  0.22120  1.0000 0.1113457995
H   H47       1.0  0.60730  0.51680  0.16320  1.0000 0.0809373556
H   H48       1.0  0.54460  0.44140  0.08340  1.0000 0.1040250862
H   H49       1.0  0.65840  0.35140  0.10380  1.0000 0.1193560044
H   H50       1.0  0.70470  0.42570  0.19060  1.0000 0.1281173134
H   H51       1.0  0.44734  0.88270  0.41432  1.0000 0.324806636
H   H52       1.0  0.46366  0.81290  0.45690  1.0000 0.3112912866
H   H53       1.0  0.32470  0.80950  0.40324  1.0000 0.3112912866
H   H54       1.0  0.51374  0.40710  0.25564  1.0000 0.3112912866
H   H55       1.0  0.60966  0.31417  0.20913  1.0000 0.3275042741
H   H56       1.0  0.47202  0.32221  0.15983  1.0000 0.3112912866
H   H57       1.0  0.06980  0.26570  0.65760  1.0000 0.1193560044
H   H58       1.0  0.00510  0.22220  0.70720  1.0000 0.1193560044
H   H59       1.0  0.83400  0.31390  0.74580  1.0000 0.1113457995
H   H60       1.0  0.86070  0.34200  0.67740  1.0000 0.1281173134
H   H61       1.0  0.98220  0.40350  0.83000  1.0000 0.0809373556
H   H62       1.0  0.05190  0.41410  0.76000  1.0000 0.0809373556
H   H63       1.0  0.85020  0.52080  0.86040  1.0000 0.1040250862
H   H64       1.0  0.89660  0.52550  0.77880  1.0000 0.1113457995
H   H65       1.0  0.10730  0.48320  0.83680  1.0000 0.0809373556
H   H66       1.0  0.04460  0.55860  0.91660  1.0000 0.1040250862
H   H67       1.0  0.15840  0.64860  0.89620  1.0000 0.1193560044
H   H68       1.0  0.20470  0.57430  0.80940  1.0000 0.1281173134
H   H69       1.0  0.94734  0.11730  0.58568  1.0000 0.3275042741
H   H70       1.0  0.96366  0.18710  0.54310  1.0000 0.3112912866
H   H71       1.0  0.82470  0.19050  0.59676  1.0000 0.3112912866
H   H72       1.0  0.01374  0.59290  0.74436  1.0000 0.3112912866
H   H73       1.0  0.10966  0.68583  0.79087  1.0000 0.3275042741
H   H74       1.0  0.97202  0.67779  0.84017  1.0000 0.3112912866
C   C1        1.0  0.98690  0.57690  0.32883  1.0000 -0.0298613663
C   C2        1.0  0.90280  0.61090  0.28184  1.0000 -0.2232859453
C   C3        1.0  0.96630  0.63080  0.21740  1.0000 -0.1285342669
C   C4        1.0  0.91940  0.68710  0.18040  1.0000 -0.1835540032
C   C5        1.0  0.05330  0.67860  0.14300  1.0000 -0.1953729635
C   C6        1.0  0.12820  0.75940  0.15700  1.0000 -0.0298613663
C   C7        1.0  0.48690  0.42310  0.67117  1.0000 -0.0298613663
C   C8        1.0  0.40280  0.38910  0.71816  1.0000 -0.2232859453
C   C9        1.0  0.46630  0.36920  0.78260  1.0000 -0.1285342669
C   C10       1.0  0.41940  0.31290  0.81960  1.0000 -0.1835540032
C   C11       1.0  0.55330  0.32140  0.85700  1.0000 -0.1953729635
C   C12       1.0  0.62820  0.24060  0.84300  1.0000 -0.0298613663
C   C13       1.0  0.48690  0.75193  0.32883  1.0000 -0.0298613663
C   C14       1.0  0.40280  0.67094  0.28184  1.0000 -0.2232859453
C   C15       1.0  0.46630  0.58660  0.21740  1.0000 -0.1285342669
C   C16       1.0  0.41940  0.49330  0.18040  1.0000 -0.1835540032
C   C17       1.0  0.55330  0.46440  0.14300  1.0000 -0.1953729635
C   C18       1.0  0.62820  0.39760  0.15700  1.0000 -0.0298613663
C   C19       1.0  0.98690  0.24807  0.67117  1.0000 -0.0298613663
C   C20       1.0  0.90280  0.32906  0.71816  1.0000 -0.2232859453
C   C21       1.0  0.96630  0.41340  0.78260  1.0000 -0.1285342669
C   C22       1.0  0.91940  0.50670  0.81960  1.0000 -0.1835540032
C   C23       1.0  0.05330  0.53560  0.85700  1.0000 -0.1953729635
C   C24       1.0  0.12820  0.60240  0.84300  1.0000 -0.0298613663
N   N1        1.0  0.92640  0.58693  0.40650  1.0000 -0.4398579692
N   N2        1.0  0.05000  0.84110  0.19880  1.0000 -0.4313332832
N   N3        1.0  0.42640  0.41307  0.59350  1.0000 -0.4398579692
N   N4        1.0  0.55000  0.15890  0.80120  1.0000 -0.4313332832
N   N5        1.0  0.42640  0.81957  0.40650  1.0000 -0.4398579692
N   N6        1.0  0.55000  0.35770  0.19880  1.0000 -0.4313332832
N   N7        1.0  0.92640  0.18043  0.59350  1.0000 -0.4398579692
N   N8        1.0  0.05000  0.64230  0.80120  1.0000 -0.4313332832
O   O1        1.0  0.29280  0.98702  0.51512  1.0000 -0.8390450871
O   O2        1.0  0.12640  0.84834  0.44428  1.0000 -0.798479343
O   O3        1.0  0.69910  0.74657  0.48918  1.0000 -0.7893146475
O   O4        1.0  0.97550  0.94415  0.38480  1.0000 -0.8390450871
O   O5        1.0  0.23580  0.92369  0.35180  1.0000 -0.798479343
O   O6        1.0  0.96530  0.78442  0.50676  1.0000 -0.8486115207
O   O7        1.0  0.82000  0.84827  0.41514  1.0000 -0.798479343
O   O8        1.0  0.33680  0.07207  0.37900  1.0000 -0.8333286589
O   O9        1.0  0.95170  0.95732  0.78998  1.0000 -0.8333286589
O   O10       1.0  0.24740  0.07889  0.66830  1.0000 -0.798479343
O   O11       1.0  0.16480  0.01132  0.76600  1.0000 -0.7893146475
O   O12       1.0  0.10480  0.04431  0.90994  1.0000 -0.7682793385
O   O13       1.0  0.74310  0.03411  0.75948  1.0000 -0.7893146475
O   O14       1.0  0.65380  0.91245  0.79884  1.0000 -0.8486115207
O   O15       1.0  0.95290  0.06934  0.70834  1.0000 -0.7682793385
O   O16       1.0  0.13900  0.88837  0.59894  1.0000 -0.8643981611
O   O17       1.0  0.10620  0.95472  0.00000  1.0000 -0.798479343
O   O18       1.0  0.74680  0.10521  0.92280  1.0000 -0.7893146475
O   O19       1.0  0.54750  0.18660  0.00000  1.0000 -0.6694953685
O   O20       1.0  0.79280  0.01298  0.48488  1.0000 -0.8390450871
O   O21       1.0  0.62640  0.15166  0.55572  1.0000 -0.798479343
O   O22       1.0  0.19910  0.25343  0.51082  1.0000 -0.798479343
O   O23       1.0  0.47550  0.05585  0.61520  1.0000 -0.8390450871
O   O24       1.0  0.73580  0.07631  0.64820  1.0000 -0.798479343
O   O25       1.0  0.46530  0.21558  0.49324  1.0000 -0.8486115207
O   O26       1.0  0.32000  0.15173  0.58486  1.0000 -0.798479343
O   O27       1.0  0.83680  0.92793  0.62100  1.0000 -0.8333286589
O   O28       1.0  0.45170  0.04268  0.21002  1.0000 -0.8333286589
O   O29       1.0  0.74740  0.92111  0.33170  1.0000 -0.798479343
O   O30       1.0  0.66480  0.98868  0.23400  1.0000 -0.7893146475
O   O31       1.0  0.60480  0.95569  0.09006  1.0000 -0.7682793385
O   O32       1.0  0.24310  0.96589  0.24052  1.0000 -0.7893146475
O   O33       1.0  0.15380  0.08755  0.20116  1.0000 -0.8486115207
O   O34       1.0  0.45290  0.93066  0.29166  1.0000 -0.7682793385
O   O35       1.0  0.63900  0.11163  0.40106  1.0000 -0.8643981611
O   O36       1.0  0.60620  0.04528  0.00000  1.0000 -0.798479343
O   O37       1.0  0.24680  0.89479  0.07720  1.0000 -0.7893146475
O   O38       1.0  0.04750  0.81340  0.00000  1.0000 -0.6694953685
O   O39       1.0  0.79280  0.52810  0.51512  1.0000 -0.8390450871
O   O40       1.0  0.62640  0.59594  0.44428  1.0000 -0.798479343
O   O41       1.0  0.19910  0.74261  0.48918  1.0000 -0.798479343
O   O42       1.0  0.47550  0.44065  0.38480  1.0000 -0.8390450871
O   O43       1.0  0.73580  0.42811  0.35180  1.0000 -0.798479343
O   O44       1.0  0.46530  0.72234  0.50676  1.0000 -0.8486115207
O   O45       1.0  0.32000  0.56687  0.41514  1.0000 -0.798479343
O   O46       1.0  0.83680  0.30693  0.37900  1.0000 -0.8333286589
O   O47       1.0  0.45170  0.83266  0.78998  1.0000 -0.8333286589
O   O48       1.0  0.74740  0.58941  0.66830  1.0000 -0.798479343
O   O49       1.0  0.66480  0.75468  0.76600  1.0000 -0.7893146475
O   O50       1.0  0.60480  0.86563  0.90994  1.0000 -0.7682793385
O   O51       1.0  0.24310  0.72537  0.75948  1.0000 -0.7893146475
O   O52       1.0  0.15380  0.88639  0.79884  1.0000 -0.8486115207
O   O53       1.0  0.45290  0.63900  0.70834  1.0000 -0.7682793385
O   O54       1.0  0.63900  0.71057  0.59894  1.0000 -0.8643981611
O   O55       1.0  0.24680  0.81759  0.92280  1.0000 -0.7893146475
O   O56       1.0  0.29280  0.47190  0.48488  1.0000 -0.8390450871
O   O57       1.0  0.12640  0.40406  0.55572  1.0000 -0.798479343
O   O58       1.0  0.69910  0.25739  0.51082  1.0000 -0.798479343
O   O59       1.0  0.97550  0.55935  0.61520  1.0000 -0.8390450871
O   O60       1.0  0.23580  0.57189  0.64820  1.0000 -0.798479343
O   O61       1.0  0.96530  0.27766  0.49324  1.0000 -0.8486115207
O   O62       1.0  0.82000  0.43313  0.58486  1.0000 -0.798479343
O   O63       1.0  0.33680  0.69307  0.62100  1.0000 -0.8333286589
O   O64       1.0  0.95170  0.16734  0.21002  1.0000 -0.8333286589
O   O65       1.0  0.24740  0.41059  0.33170  1.0000 -0.798479343
O   O66       1.0  0.16480  0.24532  0.23400  1.0000 -0.7893146475
O   O67       1.0  0.10480  0.13437  0.09006  1.0000 -0.7682793385
O   O68       1.0  0.74310  0.27463  0.24052  1.0000 -0.7893146475
O   O69       1.0  0.65380  0.11361  0.20116  1.0000 -0.8486115207
O   O70       1.0  0.95290  0.36100  0.29166  1.0000 -0.7682793385
O   O71       1.0  0.13900  0.28943  0.40106  1.0000 -0.8643981611
O   O72       1.0  0.74680  0.18241  0.07720  1.0000 -0.7893146475
F   F1        1.0  0.62880  0.91552  0.53214  1.0000 -0.5805391118
F   F2        1.0  0.83160  0.95159  0.91786  1.0000 -0.5481224453
F   F3        1.0  0.04220  0.01027  0.55736  1.0000 -0.5337980038
F   F4        1.0  0.30850  0.14686  0.00000  1.0000 -0.5805391118
F   F5        1.0  0.12880  0.08448  0.46786  1.0000 -0.5805391118
F   F6        1.0  0.33160  0.04841  0.08214  1.0000 -0.5481224453
F   F7        1.0  0.54220  0.98973  0.44264  1.0000 -0.5337980038
F   F8        1.0  0.80850  0.85314  0.00000  1.0000 -0.5805391118
F   F9        1.0  0.12880  0.61662  0.53214  1.0000 -0.5805391118
F   F10       1.0  0.33160  0.96627  0.91786  1.0000 -0.5481224453
F   F11       1.0  0.54220  0.54709  0.55736  1.0000 -0.5337980038
F   F12       1.0  0.62880  0.38338  0.46786  1.0000 -0.5805391118
F   F13       1.0  0.83160  0.03373  0.08214  1.0000 -0.5481224453
F   F14       1.0  0.04220  0.45291  0.44264  1.0000 -0.5337980038
