# DDEC6 charges by PACMAN v1.1 (https://github.com/mtap-research/PACMAN-charge/)
data_2003[Cu][pcl]3[ION]1
_chemical_formula_sum              "Cu8 B4 H64 C64 N32 F16"
_cell_length_a       13.1562
_cell_length_b       13.1562
_cell_length_c       15.912
_cell_angle_alpha    90
_cell_angle_beta     90
_cell_angle_gamma    101.781

_symmetry_space_group_name_H-M    "P 1"
_symmetry_Int_Tables_number       1

loop_
  _symmetry_equiv_pos_as_xyz
  'x, y, z'

loop_
  _atom_site_type_symbol
  _atom_site_label
  _atom_site_symmetry_multiplicity
  _atom_site_fract_x
  _atom_site_fract_y
  _atom_site_fract_z
  _atom_site_occupancy
  _atom_site_charge
Cu  Cu1       1.0  0.71285  0.42433  0.49691  1.0000 0.2342559554
Cu  Cu2       1.0  0.28715  0.57567  0.99691  1.0000 0.2355935209
Cu  Cu3       1.0  0.42433  0.71285  0.49691  1.0000 0.2342559554
Cu  Cu4       1.0  0.57567  0.28715  0.99691  1.0000 0.2355935209
Cu  Cu5       1.0  0.11423  0.40331  0.67074  1.0000 0.2342559554
Cu  Cu6       1.0  0.88577  0.59669  0.17074  1.0000 0.2342559554
Cu  Cu7       1.0  0.40331  0.11423  0.67074  1.0000 0.2342559554
Cu  Cu8       1.0  0.59669  0.88577  0.17074  1.0000 0.2342559554
B   B1        1.0  0.63630  0.04750  0.47030  1.0000 0.9883914523
B   B2        1.0  0.36370  0.95250  0.97030  1.0000 0.9883914523
B   B3        1.0  0.04750  0.63630  0.47030  1.0000 0.9883914523
B   B4        1.0  0.95250  0.36370  0.97030  1.0000 0.9883914523
H   H1        1.0  0.92940  0.40560  0.54990  1.0000 0.0997171362
H   H2        1.0  0.07060  0.59440  0.04990  1.0000 0.0997171362
H   H3        1.0  0.40560  0.92940  0.54990  1.0000 0.0997171362
H   H4        1.0  0.59440  0.07060  0.04990  1.0000 0.0997171362
H   H5        1.0  0.94540  0.38820  0.79240  1.0000 0.0997171362
H   H6        1.0  0.05460  0.61180  0.29240  1.0000 0.0997171362
H   H7        1.0  0.38820  0.94540  0.79240  1.0000 0.0997171362
H   H8        1.0  0.61180  0.05460  0.29240  1.0000 0.0997171362
H   H9        1.0  0.77140  0.38480  0.80390  1.0000 0.1331786298
H   H10       1.0  0.22860  0.61520  0.30390  1.0000 0.1331786298
H   H11       1.0  0.38480  0.77140  0.80390  1.0000 0.1331786298
H   H12       1.0  0.61520  0.22860  0.30390  1.0000 0.1331786298
H   H13       1.0  0.68410  0.41390  0.67990  1.0000 0.0902560156
H   H14       1.0  0.31590  0.58610  0.17990  1.0000 0.0902560156
H   H15       1.0  0.41390  0.68410  0.67990  1.0000 0.0902560156
H   H16       1.0  0.58610  0.31590  0.17990  1.0000 0.0902560156
H   H17       1.0  0.76980  0.52980  0.33530  1.0000 0.0997171362
H   H18       1.0  0.23020  0.47020  0.83530  1.0000 0.0997171362
H   H19       1.0  0.52980  0.76980  0.33530  1.0000 0.0997171362
H   H20       1.0  0.47020  0.23020  0.83530  1.0000 0.0997171362
H   H21       1.0  0.83070  0.27710  0.42280  1.0000 0.1102007784
H   H22       1.0  0.16930  0.72290  0.92280  1.0000 0.1102007784
H   H23       1.0  0.27710  0.83070  0.42280  1.0000 0.1102007784
H   H24       1.0  0.72290  0.16930  0.92280  1.0000 0.1102007784
H   H25       1.0  0.91540  0.25280  0.29730  1.0000 0.1481947609
H   H26       1.0  0.08460  0.74720  0.79730  1.0000 0.1481947609
H   H27       1.0  0.25280  0.91540  0.29730  1.0000 0.1481947609
H   H28       1.0  0.74720  0.08460  0.79730  1.0000 0.1481947609
H   H29       1.0  0.06640  0.61600  0.69880  1.0000 0.1102007784
H   H30       1.0  0.93360  0.38400  0.19880  1.0000 0.1102007784
H   H31       1.0  0.61600  0.06640  0.69880  1.0000 0.1102007784
H   H32       1.0  0.38400  0.93360  0.19880  1.0000 0.1102007784
H   H33       1.0  0.28000  0.28000  0.65310  1.0000 0.0902560156
H   H34       1.0  0.72000  0.72000  0.15310  1.0000 0.0902560156
H   H35       1.0  0.07770  0.07770  0.84320  1.0000 0.1589559498
H   H36       1.0  0.92230  0.92230  0.34320  1.0000 0.1589559498
H   H37       1.0  0.03530  0.22570  0.78990  1.0000 0.1102007784
H   H38       1.0  0.96470  0.77430  0.28990  1.0000 0.1102007784
H   H39       1.0  0.22570  0.03530  0.78990  1.0000 0.1102007784
H   H40       1.0  0.77430  0.96470  0.28990  1.0000 0.1102007784
H   H41       1.0  0.57550  0.26830  0.60770  1.0000 0.0997171362
H   H42       1.0  0.42450  0.73170  0.10770  1.0000 0.0997171362
H   H43       1.0  0.26830  0.57550  0.60770  1.0000 0.0997171362
H   H44       1.0  0.73170  0.42450  0.10770  1.0000 0.0997171362
H   H45       1.0  0.52420  0.36080  0.38330  1.0000 0.0997171362
H   H46       1.0  0.47580  0.63920  0.88330  1.0000 0.0997171362
H   H47       1.0  0.36080  0.52420  0.38330  1.0000 0.0997171362
H   H48       1.0  0.63920  0.47580  0.88330  1.0000 0.0997171362
H   H49       1.0  0.37380  0.24420  0.37630  1.0000 0.1384287062
H   H50       1.0  0.62620  0.75580  0.87630  1.0000 0.1384287062
H   H51       1.0  0.24420  0.37380  0.37630  1.0000 0.1384287062
H   H52       1.0  0.75580  0.62620  0.87630  1.0000 0.1384287062
H   H53       1.0  0.13720  0.32520  0.49340  1.0000 0.0997171362
H   H54       1.0  0.86280  0.67480  0.99340  1.0000 0.0997171362
H   H55       1.0  0.32520  0.13720  0.49340  1.0000 0.0997171362
H   H56       1.0  0.67480  0.86280  0.99340  1.0000 0.0997171362
H   H57       1.0  0.83290  0.63830  0.53130  1.0000 0.1102007784
H   H58       1.0  0.16710  0.36170  0.03130  1.0000 0.1102007784
H   H59       1.0  0.63830  0.83290  0.53130  1.0000 0.1102007784
H   H60       1.0  0.36170  0.16710  0.03130  1.0000 0.1102007784
H   H61       1.0  0.80280  0.80280  0.56080  1.0000 0.1589559498
H   H62       1.0  0.19720  0.19720  0.06080  1.0000 0.1589559498
H   H63       1.0  0.54440  0.54440  0.48430  1.0000 0.0902560156
H   H64       1.0  0.45560  0.45560  0.98430  1.0000 0.0902560156
C   C1        1.0  0.89720  0.40200  0.60220  1.0000 0.1960849174
C   C2        1.0  0.10280  0.59800  0.10220  1.0000 0.1960849174
C   C3        1.0  0.40200  0.89720  0.60220  1.0000 0.1960849174
C   C4        1.0  0.59800  0.10280  0.10220  1.0000 0.1960849174
C   C5        1.0  0.90690  0.39050  0.74370  1.0000 0.0902560156
C   C6        1.0  0.09310  0.60950  0.24370  1.0000 0.0902560156
C   C7        1.0  0.39050  0.90690  0.74370  1.0000 0.0902560156
C   C8        1.0  0.60950  0.09310  0.24370  1.0000 0.0902560156
C   C9        1.0  0.80460  0.39220  0.75210  1.0000 -0.1923269305
C   C10       1.0  0.19540  0.60780  0.25210  1.0000 -0.1923269305
C   C11       1.0  0.39220  0.80460  0.75210  1.0000 -0.1923269305
C   C12       1.0  0.60780  0.19540  0.25210  1.0000 -0.1923269305
C   C13       1.0  0.75260  0.40580  0.67750  1.0000 0.0778295843
C   C14       1.0  0.24740  0.59420  0.17750  1.0000 0.0778295843
C   C15       1.0  0.40580  0.75260  0.67750  1.0000 0.0778295843
C   C16       1.0  0.59420  0.24740  0.17750  1.0000 0.0778295843
C   C17       1.0  0.80130  0.47330  0.32830  1.0000 0.1653052502
C   C18       1.0  0.19870  0.52670  0.82830  1.0000 0.1589559498
C   C19       1.0  0.47330  0.80130  0.32830  1.0000 0.1653052502
C   C20       1.0  0.52670  0.19870  0.82830  1.0000 0.1589559498
C   C21       1.0  0.83500  0.32540  0.37960  1.0000 0.0902560156
C   C22       1.0  0.16500  0.67460  0.87960  1.0000 0.0902560156
C   C23       1.0  0.32540  0.83500  0.37960  1.0000 0.0902560156
C   C24       1.0  0.67460  0.16500  0.87960  1.0000 0.0902560156
C   C25       1.0  0.88740  0.31140  0.30610  1.0000 -0.1923269305
C   C26       1.0  0.11260  0.68860  0.80610  1.0000 -0.1923269305
C   C27       1.0  0.31140  0.88740  0.30610  1.0000 -0.1923269305
C   C28       1.0  0.68860  0.11260  0.80610  1.0000 -0.1923269305
C   C29       1.0  0.10440  0.61120  0.74750  1.0000 0.1102007784
C   C30       1.0  0.89560  0.38880  0.24750  1.0000 0.1102007784
C   C31       1.0  0.61120  0.10440  0.74750  1.0000 0.1102007784
C   C32       1.0  0.38880  0.89560  0.24750  1.0000 0.1102007784
C   C33       1.0  0.23890  0.23890  0.69270  1.0000 0.1102007784
C   C34       1.0  0.76110  0.76110  0.19270  1.0000 0.1102007784
C   C35       1.0  0.11900  0.11900  0.80380  1.0000 -0.1923269305
C   C36       1.0  0.88100  0.88100  0.30380  1.0000 -0.1923269305
C   C37       1.0  0.09660  0.20800  0.77200  1.0000 0.0778295843
C   C38       1.0  0.90340  0.79200  0.27200  1.0000 0.0778295843
C   C39       1.0  0.20800  0.09660  0.77200  1.0000 0.0778295843
C   C40       1.0  0.79200  0.90340  0.27200  1.0000 0.0778295843
C   C41       1.0  0.53380  0.26320  0.56010  1.0000 0.1481947609
C   C42       1.0  0.46620  0.73680  0.06010  1.0000 0.1384287062
C   C43       1.0  0.26320  0.53380  0.56010  1.0000 0.1481947609
C   C44       1.0  0.73680  0.46620  0.06010  1.0000 0.1384287062
C   C45       1.0  0.50470  0.31710  0.42900  1.0000 0.0521136596
C   C46       1.0  0.49530  0.68290  0.92900  1.0000 0.0521136596
C   C47       1.0  0.31710  0.50470  0.42900  1.0000 0.0521136596
C   C48       1.0  0.68290  0.49530  0.92900  1.0000 0.0521136596
C   C49       1.0  0.41540  0.24940  0.42400  1.0000 -0.1923269305
C   C50       1.0  0.58460  0.75060  0.92400  1.0000 -0.1923269305
C   C51       1.0  0.24940  0.41540  0.42400  1.0000 -0.1923269305
C   C52       1.0  0.75060  0.58460  0.92400  1.0000 -0.1923269305
C   C53       1.0  0.18610  0.38710  0.49470  1.0000 0.0997171362
C   C54       1.0  0.81390  0.61290  0.99470  1.0000 0.0997171362
C   C55       1.0  0.38710  0.18610  0.49470  1.0000 0.0997171362
C   C56       1.0  0.61290  0.81390  0.99470  1.0000 0.0997171362
C   C57       1.0  0.76590  0.65030  0.52780  1.0000 0.1173536015
C   C58       1.0  0.23410  0.34970  0.02780  1.0000 0.1173536015
C   C59       1.0  0.65030  0.76590  0.52780  1.0000 0.1173536015
C   C60       1.0  0.34970  0.23410  0.02780  1.0000 0.1173536015
C   C61       1.0  0.74970  0.74970  0.54230  1.0000 -0.1923269305
C   C62       1.0  0.25030  0.25030  0.04230  1.0000 -0.1923269305
C   C63       1.0  0.59840  0.59840  0.49990  1.0000 0.1173536015
C   C64       1.0  0.40160  0.40160  0.99990  1.0000 0.1173536015
N   N1        1.0  0.79960  0.40760  0.60300  1.0000 -0.2385244958
N   N2        1.0  0.20040  0.59240  0.10300  1.0000 -0.2385244958
N   N3        1.0  0.40760  0.79960  0.60300  1.0000 -0.2385244958
N   N4        1.0  0.59240  0.20040  0.10300  1.0000 -0.2385244958
N   N5        1.0  0.56920  0.32720  0.49560  1.0000 -0.2385244958
N   N6        1.0  0.43080  0.67280  0.99560  1.0000 -0.2385244958
N   N7        1.0  0.32720  0.56920  0.49560  1.0000 -0.2385244958
N   N8        1.0  0.67280  0.43080  0.99560  1.0000 -0.2385244958
N   N9        1.0  0.79110  0.40690  0.38890  1.0000 -0.2292032309
N   N10       1.0  0.20890  0.59310  0.88890  1.0000 -0.2292032309
N   N11       1.0  0.40690  0.79110  0.38890  1.0000 -0.2292032309
N   N12       1.0  0.59310  0.20890  0.88890  1.0000 -0.2292032309
N   N13       1.0  0.69040  0.57400  0.50970  1.0000 -0.2385244958
N   N14       1.0  0.30960  0.42600  0.00970  1.0000 -0.2385244958
N   N15       1.0  0.57400  0.69040  0.50970  1.0000 -0.2385244958
N   N16       1.0  0.42600  0.30960  0.00970  1.0000 -0.2385244958
N   N17       1.0  0.95610  0.39190  0.66960  1.0000 -0.2385244958
N   N18       1.0  0.04390  0.60810  0.16960  1.0000 -0.2385244958
N   N19       1.0  0.39190  0.95610  0.66960  1.0000 -0.2385244958
N   N20       1.0  0.60810  0.04390  0.16960  1.0000 -0.2385244958
N   N21       1.0  0.14750  0.53130  0.75680  1.0000 -0.2514386579
N   N22       1.0  0.85250  0.46870  0.25680  1.0000 -0.2514386579
N   N23       1.0  0.53130  0.14750  0.75680  1.0000 -0.2514386579
N   N24       1.0  0.46870  0.85250  0.25680  1.0000 -0.2514386579
N   N25       1.0  0.15360  0.27100  0.71830  1.0000 -0.2385244958
N   N26       1.0  0.84640  0.72900  0.21830  1.0000 -0.2385244958
N   N27       1.0  0.27100  0.15360  0.71830  1.0000 -0.2385244958
N   N28       1.0  0.72900  0.84640  0.21830  1.0000 -0.2385244958
N   N29       1.0  0.19340  0.44480  0.56240  1.0000 -0.2218687228
N   N30       1.0  0.80660  0.55520  0.06240  1.0000 -0.2218687228
N   N31       1.0  0.44480  0.19340  0.56240  1.0000 -0.2218687228
N   N32       1.0  0.55520  0.80660  0.06240  1.0000 -0.2218687228
F   F1        1.0  0.61990  0.01470  0.55300  1.0000 -0.500028304
F   F2        1.0  0.68630  0.98730  0.42770  1.0000 -0.4716692335
F   F3        1.0  0.52850  0.02490  0.43830  1.0000 -0.5180895991
F   F4        1.0  0.67190  0.14050  0.45760  1.0000 -0.4325810216
F   F5        1.0  0.38010  0.98530  0.05300  1.0000 -0.500028304
F   F6        1.0  0.31370  0.01270  0.92770  1.0000 -0.4716692335
F   F7        1.0  0.47150  0.97510  0.93830  1.0000 -0.5180895991
F   F8        1.0  0.32810  0.85950  0.95760  1.0000 -0.4325810216
F   F9        1.0  0.01470  0.61990  0.55300  1.0000 -0.500028304
F   F10       1.0  0.98730  0.68630  0.42770  1.0000 -0.4716692335
F   F11       1.0  0.02490  0.52850  0.43830  1.0000 -0.5180895991
F   F12       1.0  0.14050  0.67190  0.45760  1.0000 -0.4325810216
F   F13       1.0  0.98530  0.38010  0.05300  1.0000 -0.500028304
F   F14       1.0  0.01270  0.31370  0.92770  1.0000 -0.4716692335
F   F15       1.0  0.97510  0.47150  0.93830  1.0000 -0.5180895991
F   F16       1.0  0.85950  0.32810  0.95760  1.0000 -0.4325810216
