# DDEC6 charges by PACMAN v1.1 (https://github.com/mtap-research/PACMAN-charge/)
data_2003[BiK][cds]3[ION]1
_chemical_formula_sum              "K4 Bi12 H80 C72 N8 O92"
_cell_length_a       15.2561
_cell_length_b       15.2561
_cell_length_c       28.086
_cell_angle_alpha    91.1105
_cell_angle_beta     91.1105
_cell_angle_gamma    36.6965

_symmetry_space_group_name_H-M    "P 1"
_symmetry_Int_Tables_number       1

loop_
  _symmetry_equiv_pos_as_xyz
  'x, y, z'

loop_
  _atom_site_type_symbol
  _atom_site_label
  _atom_site_symmetry_multiplicity
  _atom_site_fract_x
  _atom_site_fract_y
  _atom_site_fract_z
  _atom_site_occupancy
  _atom_site_charge
K   K1        1.0  0.37849  0.71587  0.89500  1.0000 0.8722904718
K   K2        1.0  0.27502  0.63821  0.59861  1.0000 0.8722904718
K   K3        1.0  0.59883  0.30458  0.09522  1.0000 0.9039233422
K   K4        1.0  0.70838  0.39712  0.40720  1.0000 0.894629786
Bi  Bi1       1.0  0.56274  0.62944  0.03869  1.0000 1.3025741673
Bi  Bi2       1.0  0.75792  0.67495  0.01576  1.0000 1.3869408067
Bi  Bi3       1.0  0.44929  0.61663  0.14446  1.0000 1.3234092093
Bi  Bi4       1.0  0.36564  0.47210  0.45275  1.0000 1.2443500853
Bi  Bi5       1.0  0.20409  0.44376  0.52114  1.0000 1.3234092093
Bi  Bi6       1.0  0.40957  0.56865  0.34727  1.0000 1.3397041059
Bi  Bi7       1.0  0.42496  0.39025  0.95336  1.0000 1.3280586497
Bi  Bi8       1.0  0.22404  0.35031  0.97859  1.0000 1.3869408067
Bi  Bi9       1.0  0.54148  0.40144  0.84620  1.0000 1.3280586497
Bi  Bi10      1.0  0.63909  0.53778  0.54388  1.0000 1.3397041059
Bi  Bi11      1.0  0.71799  0.70880  0.52591  1.0000 1.3869408067
Bi  Bi12      1.0  0.59631  0.43919  0.64947  1.0000 1.3280586497
H   H1        1.0  0.55774  0.06165  0.11410  1.0000 0.1495453347
H   H2        1.0  0.45595  0.04555  0.12016  1.0000 0.1590559801
H   H3        1.0  0.29409  0.30973  0.15454  1.0000 0.1303048362
H   H4        1.0  0.39077  0.31547  0.12358  1.0000 0.109509576
H   H5        1.0  0.79710  0.52011  0.20341  1.0000 0.1677364616
H   H6        1.0  0.84694  0.37155  0.18404  1.0000 0.1495453347
H   H7        1.0  0.71896  0.53367  0.29099  1.0000 0.1590559801
H   H8        1.0  0.80589  0.36449  0.27106  1.0000 0.1242395213
H   H9        1.0  0.92296  0.26856  0.05632  1.0000 0.1390611227
H   H10       1.0  0.00145  0.17542  0.00042  1.0000 0.1677364616
H   H11       1.0  0.90416  0.11729  0.97693  1.0000 0.1303048362
H   H12       1.0  0.87427  0.13198  0.04037  1.0000 0.109509576
H   H13       1.0  0.99759  0.39930  0.39547  1.0000 0.1590559801
H   H14       1.0  0.97435  0.52317  0.36909  1.0000 0.1495453347
H   H15       1.0  0.73357  0.67406  0.34768  1.0000 0.1303048362
H   H16       1.0  0.72838  0.57774  0.37913  1.0000 0.1242395213
H   H17       1.0  0.25158  0.44269  0.28407  1.0000 0.1677364616
H   H18       1.0  0.44550  0.29399  0.29494  1.0000 0.1590559801
H   H19       1.0  0.27666  0.48905  0.20026  1.0000 0.1590559801
H   H20       1.0  0.47021  0.32758  0.21134  1.0000 0.1390611227
H   H21       1.0  0.68083  0.10481  0.43786  1.0000 0.1390611227
H   H22       1.0  0.76300  0.01970  0.49456  1.0000 0.1677364616
H   H23       1.0  0.87112  0.07008  0.52502  1.0000 0.1390611227
H   H24       1.0  0.87618  0.08380  0.46179  1.0000 0.1242395213
H   H25       1.0  0.40648  0.96155  0.88654  1.0000 0.1495453347
H   H26       1.0  0.49643  0.98914  0.87348  1.0000 0.1590559801
H   H27       1.0  0.67443  0.72395  0.84119  1.0000 0.1303048362
H   H28       1.0  0.59005  0.70502  0.87332  1.0000 0.109509576
H   H29       1.0  0.22781  0.45451  0.78672  1.0000 0.1677364616
H   H30       1.0  0.16827  0.61115  0.80157  1.0000 0.1495453347
H   H31       1.0  0.33809  0.39928  0.69926  1.0000 0.1590559801
H   H32       1.0  0.21820  0.58542  0.71280  1.0000 0.1303048362
H   H33       1.0  0.06021  0.75598  0.93626  1.0000 0.1390611227
H   H34       1.0  0.98548  0.84661  0.99266  1.0000 0.1677364616
H   H35       1.0  0.08468  0.90315  0.01473  1.0000 0.1303048362
H   H36       1.0  0.11387  0.88862  0.95129  1.0000 0.109509576
H   H37       1.0  0.08440  0.43059  0.66220  1.0000 0.1495453347
H   H38       1.0  0.08968  0.32290  0.63159  1.0000 0.1495453347
H   H39       1.0  0.37000  0.10892  0.65239  1.0000 0.1303048362
H   H40       1.0  0.33930  0.24056  0.67709  1.0000 0.1303048362
H   H41       1.0  0.66650  0.65224  0.71282  1.0000 0.1677364616
H   H42       1.0  0.48428  0.76171  0.69865  1.0000 0.1495453347
H   H43       1.0  0.69085  0.55826  0.79745  1.0000 0.1590559801
H   H44       1.0  0.49710  0.71339  0.78640  1.0000 0.1303048362
H   H45       1.0  0.29511  0.91381  0.56499  1.0000 0.1390611227
H   H46       1.0  0.20019  0.00087  0.50974  1.0000 0.1677364616
H   H47       1.0  0.10702  0.94031  0.48736  1.0000 0.1495453347
H   H48       1.0  0.12457  0.89821  0.54888  1.0000 0.109509576
H   H49       1.0  0.85343  0.18116  0.22429  1.0000 0.3011852069
H   H50       1.0  0.74206  0.18442  0.23714  1.0000 0.31951069
H   H51       1.0  0.83774  0.16018  0.28160  1.0000 0.3091605061
H   H52       1.0  0.15246  0.95660  0.26833  1.0000 0.3011852069
H   H53       1.0  0.14428  0.05871  0.30070  1.0000 0.3284416337
H   H54       1.0  0.28169  0.87535  0.31102  1.0000 0.3379801905
H   H55       1.0  0.98524  0.84276  0.35253  1.0000 0.3284416337
H   H56       1.0  0.03590  0.89751  0.38081  1.0000 0.3091605061
H   H57       1.0  0.95123  0.88479  0.41167  1.0000 0.3284416337
H   H58       1.0  0.02178  0.12613  0.58694  1.0000 0.3284416337
H   H59       1.0  0.99567  0.17525  0.64519  1.0000 0.3284416337
H   H60       1.0  0.12729  0.99503  0.63008  1.0000 0.3091605061
H   H61       1.0  0.92141  0.91424  0.73831  1.0000 0.3011852069
H   H62       1.0  0.80790  0.01643  0.69026  1.0000 0.3498163517
H   H63       1.0  0.98149  0.91881  0.68913  1.0000 0.2685392594
H   H64       1.0  0.20223  0.80580  0.74439  1.0000 0.31951069
H   H65       1.0  0.08196  0.98414  0.73108  1.0000 0.3011852069
H   H66       1.0  0.26171  0.86385  0.74167  1.0000 0.31951069
H   H67       1.0  0.92129  0.07743  0.86106  1.0000 0.31951069
H   H68       1.0  0.87833  0.02051  0.89212  1.0000 0.3284416337
H   H69       1.0  0.04945  0.89475  0.86887  1.0000 0.294796238
H   H70       1.0  0.94974  0.11816  0.12911  1.0000 0.294796238
H   H71       1.0  0.08640  0.96496  0.16293  1.0000 0.3011852069
H   H72       1.0  0.11746  0.96383  0.10476  1.0000 0.31951069
H   H73       1.0  0.15213  0.92049  0.78730  1.0000 0.3011852069
H   H74       1.0  0.85249  0.06999  0.72479  1.0000 0.3011852069
H   H75       1.0  0.90339  0.99304  0.83203  1.0000 0.3091605061
H   H76       1.0  0.94662  0.11264  0.62454  1.0000 0.3011852069
H   H77       1.0  0.85494  0.02048  0.37078  1.0000 0.3091605061
H   H78       1.0  0.92789  0.02406  0.24078  1.0000 0.3091605061
H   H79       1.0  0.10635  0.99196  0.32706  1.0000 0.3011852069
H   H80       1.0  0.00605  0.96775  0.11869  1.0000 0.3284416337
C   C1        1.0  0.56533  0.97148  0.05357  1.0000 0.6236555076
C   C2        1.0  0.48175  0.07740  0.09464  1.0000 -0.3520322247
C   C3        1.0  0.34045  0.24017  0.07955  1.0000 0.2226193146
C   C4        1.0  0.21585  0.27636  0.07243  1.0000 0.4904278711
C   C5        1.0  0.30091  0.33841  0.11998  1.0000 -0.358742471
C   C6        1.0  0.15873  0.50034  0.11230  1.0000 0.6271901971
C   C7        1.0  0.69163  0.55883  0.13833  1.0000 0.5484216309
C   C8        1.0  0.75338  0.49288  0.18769  1.0000 -0.3520322247
C   C9        1.0  0.63917  0.54583  0.22160  1.0000 0.1924145019
C   C10       1.0  0.50427  0.70552  0.22261  1.0000 0.4284493621
C   C11       1.0  0.69924  0.48514  0.27287  1.0000 -0.3298553133
C   C12       1.0  0.59508  0.51423  0.30206  1.0000 0.3498163517
C   C13       1.0  0.88050  0.39219  0.00036  1.0000 0.5986417628
C   C14       1.0  0.90076  0.28347  0.01735  1.0000 -0.3706177146
C   C15       1.0  0.76783  0.32847  0.00730  1.0000 0.227558071
C   C16       1.0  0.68881  0.41448  0.96271  1.0000 0.4687725897
C   C17       1.0  0.82221  0.18863  0.00560  1.0000 -0.3809132004
C   C18       1.0  0.70765  0.21244  0.99453  1.0000 0.641155014
C   C19       1.0  0.08041  0.44060  0.43660  1.0000 0.64576141
C   C20       1.0  0.96737  0.49297  0.40316  1.0000 -0.358742471
C   C21       1.0  0.80836  0.62451  0.42226  1.0000 0.227558071
C   C22       1.0  0.76665  0.75201  0.43340  1.0000 0.4904278711
C   C23       1.0  0.70657  0.66680  0.38261  1.0000 -0.3706177146
C   C24       1.0  0.54520  0.81031  0.39015  1.0000 0.6271901971
C   C25       1.0  0.31542  0.45551  0.35024  1.0000 0.4971293753
C   C26       1.0  0.34054  0.41481  0.29814  1.0000 -0.358742471
C   C27       1.0  0.34871  0.49159  0.26834  1.0000 0.1972810275
C   C28       1.0  0.21362  0.65453  0.27404  1.0000 0.4284493621
C   C29       1.0  0.37239  0.44909  0.21490  1.0000 -0.3399619439
C   C30       1.0  0.39779  0.50913  0.18566  1.0000 0.3091605061
C   C31       1.0  0.52981  0.18507  0.49154  1.0000 0.5868233538
C   C32       1.0  0.66545  0.12703  0.47680  1.0000 -0.3706177146
C   C33       1.0  0.65804  0.23300  0.48886  1.0000 0.2226193146
C   C34       1.0  0.56787  0.32220  0.53240  1.0000 0.4555853999
C   C35       1.0  0.81362  0.14782  0.49491  1.0000 -0.3809132004
C   C36       1.0  0.80938  0.24889  0.50416  1.0000 0.641155014
C   C37       1.0  0.40332  0.05774  0.94309  1.0000 0.6236555076
C   C38       1.0  0.48112  0.95263  0.90193  1.0000 -0.358742471
C   C39       1.0  0.62918  0.79179  0.91622  1.0000 0.227558071
C   C40       1.0  0.74551  0.76766  0.92233  1.0000 0.4904278711
C   C41       1.0  0.67410  0.69041  0.87594  1.0000 -0.358742471
C   C42       1.0  0.82212  0.52999  0.88280  1.0000 0.6271901971
C   C43       1.0  0.31664  0.43718  0.85244  1.0000 0.5484216309
C   C44       1.0  0.26511  0.48923  0.80135  1.0000 -0.3520322247
C   C45       1.0  0.38307  0.43206  0.76810  1.0000 0.2090495622
C   C46       1.0  0.52410  0.27481  0.77289  1.0000 0.4284493621
C   C47       1.0  0.33384  0.46992  0.71510  1.0000 -0.3399619439
C   C48       1.0  0.42648  0.45703  0.68637  1.0000 0.3498163517
C   C49       1.0  0.10537  0.63036  0.99200  1.0000 0.5986417628
C   C50       1.0  0.08479  0.73923  0.97508  1.0000 -0.3706177146
C   C51       1.0  0.21884  0.69261  0.98423  1.0000 0.227558071
C   C52       1.0  0.29904  0.60608  0.02864  1.0000 0.4687725897
C   C53       1.0  0.16616  0.83139  0.98596  1.0000 -0.3892674223
C   C54       1.0  0.28238  0.80532  0.99676  1.0000 0.64576141
C   C55       1.0  0.96737  0.52055  0.59634  1.0000 0.6090422368
C   C56       1.0  0.09590  0.38988  0.62631  1.0000 -0.358742471
C   C57       1.0  0.24638  0.29483  0.60534  1.0000 0.2090495622
C   C58       1.0  0.27787  0.21477  0.56151  1.0000 0.4971293753
C   C59       1.0  0.36652  0.18252  0.64358  1.0000 -0.3520322247
C   C60       1.0  0.51616  0.09156  0.62835  1.0000 0.6271901971
C   C61       1.0  0.64448  0.59728  0.64664  1.0000 0.5303107595
C   C62       1.0  0.60173  0.64811  0.69786  1.0000 -0.3399619439
C   C63       1.0  0.62467  0.54927  0.72928  1.0000 0.1972810275
C   C64       1.0  0.76933  0.39381  0.72345  1.0000 0.4391005731
C   C65       1.0  0.59889  0.59224  0.78260  1.0000 -0.3399619439
C   C66       1.0  0.58039  0.52500  0.81090  1.0000 0.3787281609
C   C67       1.0  0.42661  0.85470  0.50836  1.0000 0.5986417628
C   C68       1.0  0.30508  0.89441  0.52597  1.0000 -0.3706177146
C   C69       1.0  0.32869  0.77622  0.51581  1.0000 0.2226193146
C   C70       1.0  0.41183  0.69316  0.47138  1.0000 0.4687725897
C   C71       1.0  0.17765  0.84984  0.51346  1.0000 -0.3809132004
C   C72       1.0  0.18428  0.74915  0.49841  1.0000 0.641155014
N   N1        1.0  0.93804  0.99651  0.86353  1.0000 -0.7405059838
N   N2        1.0  0.02284  0.10224  0.62170  1.0000 -0.7405059838
N   N3        1.0  0.03991  0.00366  0.12888  1.0000 -0.7405059838
N   N4        1.0  0.95683  0.91141  0.37894  1.0000 -0.7274919454
N   N5        1.0  0.17118  0.97067  0.30178  1.0000 -0.7201274836
N   N6        1.0  0.84026  0.13747  0.24596  1.0000 -0.7201274836
N   N7        1.0  0.89081  0.97984  0.71063  1.0000 -0.7274919454
N   N8        1.0  0.17447  0.89353  0.75112  1.0000 -0.7274919454
O   O1        1.0  0.64527  0.95430  0.03030  1.0000 -0.3809132004
O   O2        1.0  0.55631  0.88883  0.04350  1.0000 -0.59017699
O   O3        1.0  0.18470  0.24936  0.10334  1.0000 -0.3892674223
O   O4        1.0  0.12726  0.35236  0.03261  1.0000 -0.5695974433
O   O5        1.0  0.03724  0.55701  0.11302  1.0000 -0.5026100332
O   O6        1.0  0.15887  0.58267  0.10743  1.0000 -0.5209487879
O   O7        1.0  0.36899  0.26378  0.03767  1.0000 -0.4915438795
O   O8        1.0  0.62793  0.54183  0.11045  1.0000 -0.5695974433
O   O9        1.0  0.70068  0.62532  0.12247  1.0000 -0.4615711375
O   O10       1.0  0.38640  0.76046  0.20062  1.0000 -0.5491741919
O   O11       1.0  0.49380  0.78533  0.24273  1.0000 -0.3706177146
O   O12       1.0  0.54608  0.57455  0.34724  1.0000 -0.5491741919
O   O13       1.0  0.54321  0.48657  0.28770  1.0000 -0.1783607209
O   O14       1.0  0.59681  0.49786  0.20426  1.0000 -0.3706177146
O   O15       1.0  0.74780  0.54374  0.00614  1.0000 -0.6108426207
O   O16       1.0  0.98116  0.34634  0.97946  1.0000 -0.3520322247
O   O17       1.0  0.55790  0.56371  0.96831  1.0000 -0.5695974433
O   O18       1.0  0.73753  0.35803  0.92332  1.0000 -0.4094478318
O   O19       1.0  0.64007  0.26740  0.95514  1.0000 -0.5294904415
O   O20       1.0  0.66365  0.19528  0.02581  1.0000 -0.5294904415
O   O21       1.0  0.66621  0.42012  0.04409  1.0000 -0.5777542297
O   O22       1.0  0.65228  0.38556  0.14396  1.0000 -0.4094478318
O   O23       1.0  0.23192  0.95700  0.87784  1.0000 -0.431829428
O   O24       1.0  0.20762  0.34259  0.42344  1.0000 -0.4186160221
O   O25       1.0  0.04013  0.50369  0.48196  1.0000 -0.6032723987
O   O26       1.0  0.77627  0.79992  0.40284  1.0000 -0.4186160221
O   O27       1.0  0.71505  0.81751  0.47800  1.0000 -0.507489463
O   O28       1.0  0.49113  0.93040  0.39011  1.0000 -0.4455978775
O   O29       1.0  0.46025  0.81315  0.39338  1.0000 -0.507489463
O   O30       1.0  0.80187  0.57687  0.46297  1.0000 -0.5026100332
O   O31       1.0  0.40932  0.43742  0.37612  1.0000 -0.5386175418
O   O32       1.0  0.21113  0.50507  0.36978  1.0000 -0.431829428
O   O33       1.0  0.22564  0.72294  0.29942  1.0000 -0.5777542297
O   O34       1.0  0.09623  0.72650  0.25638  1.0000 -0.3706177146
O   O35       1.0  0.53044  0.42629  0.16755  1.0000 -0.275061717
O   O36       1.0  0.30695  0.63774  0.17808  1.0000 -0.3958201611
O   O37       1.0  0.46845  0.44512  0.28483  1.0000 -0.2384718561
O   O38       1.0  0.38761  0.32204  0.47590  1.0000 -0.6286555731
O   O39       1.0  0.54640  0.10964  0.51772  1.0000 -0.3116659427
O   O40       1.0  0.42977  0.46702  0.52479  1.0000 -0.6108426207
O   O41       1.0  0.60948  0.26894  0.57212  1.0000 -0.4186160221
O   O42       1.0  0.74213  0.33188  0.54055  1.0000 -0.5386175418
O   O43       1.0  0.85418  0.26626  0.47333  1.0000 -0.5491741919
O   O44       1.0  0.58835  0.33237  0.45147  1.0000 -0.5026100332
O   O45       1.0  0.61907  0.34626  0.36085  1.0000 -0.59017699
O   O46       1.0  0.04354  0.75797  0.61130  1.0000 -0.3892674223
O   O47       1.0  0.32023  0.08079  0.96711  1.0000 -0.3892674223
O   O48       1.0  0.42225  0.13202  0.95276  1.0000 -0.59017699
O   O49       1.0  0.76623  0.80493  0.89145  1.0000 -0.4094478318
O   O50       1.0  0.83890  0.69094  0.96111  1.0000 -0.5491741919
O   O51       1.0  0.93827  0.48280  0.88195  1.0000 -0.5026100332
O   O52       1.0  0.83227  0.43944  0.88690  1.0000 -0.5026100332
O   O53       1.0  0.60853  0.76183  0.95849  1.0000 -0.5026100332
O   O54       1.0  0.36799  0.46771  0.88037  1.0000 -0.5695974433
O   O55       1.0  0.30944  0.37022  0.86968  1.0000 -0.4615711375
O   O56       1.0  0.63202  0.24080  0.79199  1.0000 -0.5386175418
O   O57       1.0  0.54823  0.18067  0.75874  1.0000 -0.3706177146
O   O58       1.0  0.38127  0.57461  0.67341  1.0000 -0.234005695
O   O59       1.0  0.55293  0.34363  0.67534  1.0000 -0.3892674223
O   O60       1.0  0.41336  0.49439  0.78140  1.0000 -0.431829428
O   O61       1.0  0.23774  0.47883  0.98580  1.0000 -0.6108426207
O   O62       1.0  0.00507  0.67605  0.01318  1.0000 -0.3520322247
O   O63       1.0  0.42964  0.45717  0.02273  1.0000 -0.59017699
O   O64       1.0  0.25165  0.66185  0.06817  1.0000 -0.4186160221
O   O65       1.0  0.34529  0.75708  0.03698  1.0000 -0.5294904415
O   O66       1.0  0.33410  0.81145  0.96451  1.0000 -0.5026100332
O   O67       1.0  0.31848  0.60115  0.94689  1.0000 -0.59017699
O   O68       1.0  0.33205  0.62993  0.84374  1.0000 -0.4418774748
O   O69       1.0  0.71701  0.07766  0.11543  1.0000 -0.3809132004
O   O70       1.0  0.89403  0.64220  0.60951  1.0000 -0.4094478318
O   O71       1.0  0.93053  0.50332  0.55444  1.0000 -0.6032723987
O   O72       1.0  0.29613  0.12120  0.56461  1.0000 -0.4186160221
O   O73       1.0  0.28483  0.24758  0.51728  1.0000 -0.4663935804
O   O74       1.0  0.61525  0.95568  0.61968  1.0000 -0.5026100332
O   O75       1.0  0.54518  0.14934  0.62490  1.0000 -0.5026100332
O   O76       1.0  0.24693  0.38409  0.59480  1.0000 -0.5026100332
O   O77       1.0  0.57780  0.58398  0.61875  1.0000 -0.5777542297
O   O78       1.0  0.73776  0.56941  0.62938  1.0000 -0.4615711375
O   O79       1.0  0.76480  0.31423  0.70451  1.0000 -0.5491741919
O   O80       1.0  0.88367  0.33637  0.73705  1.0000 -0.3892674223
O   O81       1.0  0.44709  0.59752  0.82179  1.0000 -0.2480112964
O   O82       1.0  0.67856  0.39823  0.82320  1.0000 -0.3892674223
O   O83       1.0  0.52803  0.56029  0.71489  1.0000 -0.4793911183
O   O84       1.0  0.57494  0.71412  0.51430  1.0000 -0.6286555731
O   O85       1.0  0.39399  0.94749  0.48734  1.0000 -0.3298553133
O   O86       1.0  0.55455  0.55092  0.47720  1.0000 -0.6108426207
O   O87       1.0  0.35879  0.74733  0.43206  1.0000 -0.4186160221
O   O88       1.0  0.22343  0.69573  0.45667  1.0000 -0.5209487879
O   O89       1.0  0.17516  0.69658  0.52874  1.0000 -0.5695974433
O   O90       1.0  0.41526  0.67265  0.55249  1.0000 -0.5695974433
O   O91       1.0  0.37896  0.66343  0.65102  1.0000 -0.431829428
O   O92       1.0  0.93592  0.26743  0.37948  1.0000 -0.4663935804
