# DDEC6 charges by PACMAN v1.1 (https://github.com/mtap-research/PACMAN-charge/)
data_2004[Ag][vtx]3[ION]1
_chemical_formula_sum              "Ag20 H144 C144 N84 O36"
_cell_length_a       11.942
_cell_length_b       21.5758
_cell_length_c       25.1163
_cell_angle_alpha    90
_cell_angle_beta     90
_cell_angle_gamma    90

_symmetry_space_group_name_H-M    "P 1"
_symmetry_Int_Tables_number       1

loop_
  _symmetry_equiv_pos_as_xyz
  'x, y, z'

loop_
  _atom_site_type_symbol
  _atom_site_label
  _atom_site_symmetry_multiplicity
  _atom_site_fract_x
  _atom_site_fract_y
  _atom_site_fract_z
  _atom_site_occupancy
  _atom_site_charge
Ag  Ag1       1.0  0.50000  0.50000  0.50000  1.0000 0.2922438159
Ag  Ag2       1.0  0.50000  0.00000  0.50000  1.0000 0.2922438159
Ag  Ag3       1.0  0.00000  0.00000  0.00000  1.0000 0.2922438159
Ag  Ag4       1.0  0.00000  0.50000  0.00000  1.0000 0.2922438159
Ag  Ag5       1.0  0.25000  0.38231  0.25000  1.0000 0.2454633638
Ag  Ag6       1.0  0.75000  0.88231  0.25000  1.0000 0.2454633638
Ag  Ag7       1.0  0.75000  0.61769  0.75000  1.0000 0.2454633638
Ag  Ag8       1.0  0.25000  0.11769  0.75000  1.0000 0.2454633638
Ag  Ag9       1.0  0.45347  0.18297  0.25514  1.0000 0.2601096518
Ag  Ag10      1.0  0.54653  0.68297  0.25514  1.0000 0.2601096518
Ag  Ag11      1.0  0.95347  0.68297  0.24486  1.0000 0.2601096518
Ag  Ag12      1.0  0.95347  0.81703  0.75514  1.0000 0.2601096518
Ag  Ag13      1.0  0.54653  0.81703  0.74486  1.0000 0.2601096518
Ag  Ag14      1.0  0.45347  0.31703  0.74486  1.0000 0.2601096518
Ag  Ag15      1.0  0.04653  0.31703  0.75514  1.0000 0.2601096518
Ag  Ag16      1.0  0.04653  0.18297  0.24486  1.0000 0.2601096518
Ag  Ag17      1.0  0.74093  0.25000  0.00000  1.0000 0.330923058
Ag  Ag18      1.0  0.25907  0.75000  0.00000  1.0000 0.330923058
Ag  Ag19      1.0  0.24093  0.75000  0.50000  1.0000 0.330923058
Ag  Ag20      1.0  0.75907  0.25000  0.50000  1.0000 0.330923058
H   H1        1.0  0.51370  0.39070  0.41030  1.0000 0.1123543662
H   H2        1.0  0.48630  0.89070  0.41030  1.0000 0.1123543662
H   H3        1.0  0.01370  0.89070  0.08970  1.0000 0.1123543662
H   H4        1.0  0.01370  0.60930  0.91030  1.0000 0.1123543662
H   H5        1.0  0.48630  0.60930  0.58970  1.0000 0.1123543662
H   H6        1.0  0.51370  0.10930  0.58970  1.0000 0.1123543662
H   H7        1.0  0.98630  0.10930  0.91030  1.0000 0.1123543662
H   H8        1.0  0.98630  0.39070  0.08970  1.0000 0.1123543662
H   H9        1.0  0.18020  0.46700  0.35160  1.0000 0.1158608288
H   H10       1.0  0.81980  0.96700  0.35160  1.0000 0.1158608288
H   H11       1.0  0.68020  0.96700  0.14840  1.0000 0.1158608288
H   H12       1.0  0.68020  0.53300  0.85160  1.0000 0.1158608288
H   H13       1.0  0.81980  0.53300  0.64840  1.0000 0.1158608288
H   H14       1.0  0.18020  0.03300  0.64840  1.0000 0.1158608288
H   H15       1.0  0.31980  0.03300  0.85160  1.0000 0.1158608288
H   H16       1.0  0.31980  0.46700  0.14840  1.0000 0.1158608288
H   H17       1.0  0.25310  0.49830  0.43270  1.0000 0.1123543662
H   H18       1.0  0.74690  0.99830  0.43270  1.0000 0.1123543662
H   H19       1.0  0.75310  0.99830  0.06730  1.0000 0.1123543662
H   H20       1.0  0.75310  0.50170  0.93270  1.0000 0.1123543662
H   H21       1.0  0.74690  0.50170  0.56730  1.0000 0.1123543662
H   H22       1.0  0.25310  0.00170  0.56730  1.0000 0.1123543662
H   H23       1.0  0.24690  0.00170  0.93270  1.0000 0.1123543662
H   H24       1.0  0.24690  0.49830  0.06730  1.0000 0.1123543662
H   H25       1.0  0.59730  0.28480  0.31220  1.0000 0.1421136222
H   H26       1.0  0.40270  0.78480  0.31220  1.0000 0.1421136222
H   H27       1.0  0.09730  0.78480  0.18780  1.0000 0.1421136222
H   H28       1.0  0.09730  0.71520  0.81220  1.0000 0.1421136222
H   H29       1.0  0.40270  0.71520  0.68780  1.0000 0.1421136222
H   H30       1.0  0.59730  0.21520  0.68780  1.0000 0.1421136222
H   H31       1.0  0.90270  0.21520  0.81220  1.0000 0.1421136222
H   H32       1.0  0.90270  0.28480  0.18780  1.0000 0.1421136222
H   H33       1.0  0.55640  0.30010  0.37140  1.0000 0.1506274969
H   H34       1.0  0.44360  0.80010  0.37140  1.0000 0.1506274969
H   H35       1.0  0.05640  0.80010  0.12860  1.0000 0.1506274969
H   H36       1.0  0.05640  0.69990  0.87140  1.0000 0.1506274969
H   H37       1.0  0.44360  0.69990  0.62860  1.0000 0.1506274969
H   H38       1.0  0.55640  0.19990  0.62860  1.0000 0.1506274969
H   H39       1.0  0.94360  0.19990  0.87140  1.0000 0.1506274969
H   H40       1.0  0.94360  0.30010  0.12860  1.0000 0.1506274969
H   H41       1.0  0.62910  0.34980  0.33900  1.0000 0.1506274969
H   H42       1.0  0.37090  0.84980  0.33900  1.0000 0.1506274969
H   H43       1.0  0.12910  0.84980  0.16100  1.0000 0.1506274969
H   H44       1.0  0.12910  0.65020  0.83900  1.0000 0.1506274969
H   H45       1.0  0.37090  0.65020  0.66100  1.0000 0.1506274969
H   H46       1.0  0.62910  0.15020  0.66100  1.0000 0.1506274969
H   H47       1.0  0.87090  0.15020  0.83900  1.0000 0.1506274969
H   H48       1.0  0.87090  0.34980  0.16100  1.0000 0.1506274969
H   H49       1.0  0.52500  0.39940  0.20980  1.0000 0.1506274969
H   H50       1.0  0.47500  0.89940  0.20980  1.0000 0.1506274969
H   H51       1.0  0.02500  0.89940  0.29020  1.0000 0.1506274969
H   H52       1.0  0.02500  0.60060  0.70980  1.0000 0.1506274969
H   H53       1.0  0.47500  0.60060  0.79020  1.0000 0.1506274969
H   H54       1.0  0.52500  0.10060  0.79020  1.0000 0.1506274969
H   H55       1.0  0.97500  0.10060  0.70980  1.0000 0.1506274969
H   H56       1.0  0.97500  0.39940  0.29020  1.0000 0.1506274969
H   H57       1.0  0.52430  0.38190  0.14790  1.0000 0.1506274969
H   H58       1.0  0.47570  0.88190  0.14790  1.0000 0.1506274969
H   H59       1.0  0.02430  0.88190  0.35210  1.0000 0.1506274969
H   H60       1.0  0.02430  0.61810  0.64790  1.0000 0.1506274969
H   H61       1.0  0.47570  0.61810  0.85210  1.0000 0.1506274969
H   H62       1.0  0.52430  0.11810  0.85210  1.0000 0.1506274969
H   H63       1.0  0.97570  0.11810  0.64790  1.0000 0.1506274969
H   H64       1.0  0.97570  0.38190  0.35210  1.0000 0.1506274969
H   H65       1.0  0.63810  0.37730  0.18140  1.0000 0.1572694107
H   H66       1.0  0.36190  0.87730  0.18140  1.0000 0.1572694107
H   H67       1.0  0.13810  0.87730  0.31860  1.0000 0.1572694107
H   H68       1.0  0.13810  0.62270  0.68140  1.0000 0.1572694107
H   H69       1.0  0.36190  0.62270  0.81860  1.0000 0.1572694107
H   H70       1.0  0.63810  0.12270  0.81860  1.0000 0.1572694107
H   H71       1.0  0.86190  0.12270  0.68140  1.0000 0.1572694107
H   H72       1.0  0.86190  0.37730  0.31860  1.0000 0.1572694107
H   H73       1.0  0.64680  0.30970  0.10600  1.0000 0.1123543662
H   H74       1.0  0.35320  0.80970  0.10600  1.0000 0.1123543662
H   H75       1.0  0.14680  0.80970  0.39400  1.0000 0.1123543662
H   H76       1.0  0.14680  0.69030  0.60600  1.0000 0.1123543662
H   H77       1.0  0.35320  0.69030  0.89400  1.0000 0.1123543662
H   H78       1.0  0.64680  0.19030  0.89400  1.0000 0.1123543662
H   H79       1.0  0.85320  0.19030  0.60600  1.0000 0.1123543662
H   H80       1.0  0.85320  0.30970  0.39400  1.0000 0.1123543662
H   H81       1.0  0.66570  0.13160  0.07420  1.0000 0.1123543662
H   H82       1.0  0.33430  0.63160  0.07420  1.0000 0.1123543662
H   H83       1.0  0.16570  0.63160  0.42580  1.0000 0.1123543662
H   H84       1.0  0.16570  0.86840  0.57420  1.0000 0.1123543662
H   H85       1.0  0.33430  0.86840  0.92580  1.0000 0.1123543662
H   H86       1.0  0.66570  0.36840  0.92580  1.0000 0.1123543662
H   H87       1.0  0.83430  0.36840  0.57420  1.0000 0.1123543662
H   H88       1.0  0.83430  0.13160  0.42580  1.0000 0.1123543662
H   H89       1.0  0.57370  0.10960  0.15310  1.0000 0.1123543662
H   H90       1.0  0.42630  0.60960  0.15310  1.0000 0.1123543662
H   H91       1.0  0.07370  0.60960  0.34690  1.0000 0.1123543662
H   H92       1.0  0.07370  0.89040  0.65310  1.0000 0.1123543662
H   H93       1.0  0.42630  0.89040  0.84690  1.0000 0.1123543662
H   H94       1.0  0.57370  0.39040  0.84690  1.0000 0.1123543662
H   H95       1.0  0.92630  0.39040  0.65310  1.0000 0.1123543662
H   H96       1.0  0.92630  0.10960  0.34690  1.0000 0.1123543662
H   H97       1.0  0.33590  0.47040  0.59800  1.0000 0.1123543662
H   H98       1.0  0.66410  0.97040  0.59800  1.0000 0.1123543662
H   H99       1.0  0.83590  0.97040  0.90200  1.0000 0.1158608288
H   H100      1.0  0.83590  0.52960  0.09800  1.0000 0.1158608288
H   H101      1.0  0.66410  0.52960  0.40200  1.0000 0.1158608288
H   H102      1.0  0.33590  0.02960  0.40200  1.0000 0.1123543662
H   H103      1.0  0.16410  0.02960  0.09800  1.0000 0.1158608288
H   H104      1.0  0.16410  0.47040  0.90200  1.0000 0.1123543662
H   H105      1.0  0.59090  0.31810  0.63080  1.0000 0.1158608288
H   H106      1.0  0.40910  0.81810  0.63080  1.0000 0.1158608288
H   H107      1.0  0.09090  0.81810  0.86920  1.0000 0.1158608288
H   H108      1.0  0.09090  0.68190  0.13080  1.0000 0.1158608288
H   H109      1.0  0.40910  0.68190  0.36920  1.0000 0.1158608288
H   H110      1.0  0.59090  0.18190  0.36920  1.0000 0.1158608288
H   H111      1.0  0.90910  0.18190  0.13080  1.0000 0.1158608288
H   H112      1.0  0.90910  0.31810  0.86920  1.0000 0.1158608288
H   H113      1.0  0.59690  0.37360  0.55240  1.0000 0.1123543662
H   H114      1.0  0.40310  0.87360  0.55240  1.0000 0.1123543662
H   H115      1.0  0.09690  0.87360  0.94760  1.0000 0.1123543662
H   H116      1.0  0.09690  0.62640  0.05240  1.0000 0.1123543662
H   H117      1.0  0.40310  0.62640  0.44760  1.0000 0.1123543662
H   H118      1.0  0.59690  0.12640  0.44760  1.0000 0.1123543662
H   H119      1.0  0.90310  0.12640  0.05240  1.0000 0.1123543662
H   H120      1.0  0.90310  0.37360  0.94760  1.0000 0.1123543662
H   H121      1.0  0.13710  0.45410  0.70300  1.0000 0.1506274969
H   H122      1.0  0.86290  0.95410  0.70300  1.0000 0.1506274969
H   H123      1.0  0.63710  0.95410  0.79700  1.0000 0.1506274969
H   H124      1.0  0.63710  0.54590  0.20300  1.0000 0.1506274969
H   H125      1.0  0.86290  0.54590  0.29700  1.0000 0.1506274969
H   H126      1.0  0.13710  0.04590  0.29700  1.0000 0.1506274969
H   H127      1.0  0.36290  0.04590  0.20300  1.0000 0.1506274969
H   H128      1.0  0.36290  0.45410  0.79700  1.0000 0.1506274969
H   H129      1.0  0.16410  0.44460  0.64120  1.0000 0.1506274969
H   H130      1.0  0.83590  0.94460  0.64120  1.0000 0.1506274969
H   H131      1.0  0.66410  0.94460  0.85880  1.0000 0.1506274969
H   H132      1.0  0.66410  0.55540  0.14120  1.0000 0.1506274969
H   H133      1.0  0.83590  0.55540  0.35880  1.0000 0.1506274969
H   H134      1.0  0.16410  0.05540  0.35880  1.0000 0.1506274969
H   H135      1.0  0.33590  0.05540  0.14120  1.0000 0.1506274969
H   H136      1.0  0.33590  0.44460  0.85880  1.0000 0.1506274969
H   H137      1.0  0.22420  0.49900  0.67370  1.0000 0.1572694107
H   H138      1.0  0.77580  0.99900  0.67370  1.0000 0.1572694107
H   H139      1.0  0.72420  0.99900  0.82630  1.0000 0.1572694107
H   H140      1.0  0.72420  0.50100  0.17370  1.0000 0.1572694107
H   H141      1.0  0.77580  0.50100  0.32630  1.0000 0.1572694107
H   H142      1.0  0.22420  0.00100  0.32630  1.0000 0.1572694107
H   H143      1.0  0.27580  0.00100  0.17370  1.0000 0.1572694107
H   H144      1.0  0.27580  0.49900  0.82630  1.0000 0.1572694107
C   C1        1.0  0.44440  0.40740  0.39840  1.0000 -0.0154220332
C   C2        1.0  0.55560  0.90740  0.39840  1.0000 -0.0154220332
C   C3        1.0  0.94440  0.90740  0.10160  1.0000 -0.0142832589
C   C4        1.0  0.94440  0.59260  0.89840  1.0000 -0.0154220332
C   C5        1.0  0.55560  0.59260  0.60160  1.0000 -0.0154220332
C   C6        1.0  0.44440  0.09260  0.60160  1.0000 -0.0154220332
C   C7        1.0  0.05560  0.09260  0.89840  1.0000 -0.0154220332
C   C8        1.0  0.05560  0.40740  0.10160  1.0000 -0.0142832589
C   C9        1.0  0.40310  0.38950  0.34908  1.0000 0.1158608288
C   C10       1.0  0.59690  0.88950  0.34908  1.0000 0.1158608288
C   C11       1.0  0.90310  0.88950  0.15092  1.0000 0.1158608288
C   C12       1.0  0.90310  0.61050  0.84908  1.0000 0.1158608288
C   C13       1.0  0.59690  0.61050  0.65092  1.0000 0.1158608288
C   C14       1.0  0.40310  0.11050  0.65092  1.0000 0.1158608288
C   C15       1.0  0.09690  0.11050  0.84908  1.0000 0.1158608288
C   C16       1.0  0.09690  0.38950  0.15092  1.0000 0.1158608288
C   C17       1.0  0.25050  0.45100  0.36287  1.0000 -0.0007899816
C   C18       1.0  0.74950  0.95100  0.36287  1.0000 -0.0007899816
C   C19       1.0  0.75050  0.95100  0.13713  1.0000 -0.0007899816
C   C20       1.0  0.75050  0.54900  0.86287  1.0000 -0.0007899816
C   C21       1.0  0.74950  0.54900  0.63713  1.0000 -0.0007899816
C   C22       1.0  0.25050  0.04900  0.63713  1.0000 -0.0007899816
C   C23       1.0  0.24950  0.04900  0.86287  1.0000 -0.0007899816
C   C24       1.0  0.24950  0.45100  0.13713  1.0000 -0.0007899816
C   C25       1.0  0.29360  0.46930  0.41169  1.0000 0.0020717179
C   C26       1.0  0.70640  0.96930  0.41169  1.0000 0.0020717179
C   C27       1.0  0.79360  0.96930  0.08831  1.0000 0.0020717179
C   C28       1.0  0.79360  0.53070  0.91169  1.0000 0.0020717179
C   C29       1.0  0.70640  0.53070  0.58831  1.0000 0.0020717179
C   C30       1.0  0.29360  0.03070  0.58831  1.0000 0.0020717179
C   C31       1.0  0.20640  0.03070  0.91169  1.0000 0.0020717179
C   C32       1.0  0.20640  0.46930  0.08831  1.0000 0.0020717179
C   C33       1.0  0.46670  0.34548  0.31447  1.0000 0.2220825217
C   C34       1.0  0.53330  0.84548  0.31447  1.0000 0.2220825217
C   C35       1.0  0.96670  0.84548  0.18553  1.0000 0.2220825217
C   C36       1.0  0.96670  0.65452  0.81447  1.0000 0.2220825217
C   C37       1.0  0.53330  0.65452  0.68553  1.0000 0.2220825217
C   C38       1.0  0.46670  0.15452  0.68553  1.0000 0.2220825217
C   C39       1.0  0.03330  0.15452  0.81447  1.0000 0.2220825217
C   C40       1.0  0.03330  0.34548  0.18553  1.0000 0.2220825217
C   C41       1.0  0.57130  0.31770  0.33611  1.0000 -0.5345390663
C   C42       1.0  0.42870  0.81770  0.33611  1.0000 -0.5358421828
C   C43       1.0  0.07130  0.81770  0.16389  1.0000 -0.5358421828
C   C44       1.0  0.07130  0.68230  0.83611  1.0000 -0.5345390663
C   C45       1.0  0.42870  0.68230  0.66389  1.0000 -0.5345390663
C   C46       1.0  0.57130  0.18230  0.66389  1.0000 -0.5345390663
C   C47       1.0  0.92870  0.18230  0.83611  1.0000 -0.5345390663
C   C48       1.0  0.92870  0.31770  0.16389  1.0000 -0.5358421828
C   C49       1.0  0.55670  0.37184  0.18273  1.0000 -0.5202636794
C   C50       1.0  0.44330  0.87184  0.18273  1.0000 -0.5202636794
C   C51       1.0  0.05670  0.87184  0.31727  1.0000 -0.5202636794
C   C52       1.0  0.05670  0.62816  0.68273  1.0000 -0.5202636794
C   C53       1.0  0.44330  0.62816  0.81727  1.0000 -0.5202636794
C   C54       1.0  0.55670  0.12816  0.81727  1.0000 -0.5202636794
C   C55       1.0  0.94330  0.12816  0.68273  1.0000 -0.5202636794
C   C56       1.0  0.94330  0.37184  0.31727  1.0000 -0.5202636794
C   C57       1.0  0.53010  0.30619  0.19656  1.0000 0.2092181118
C   C58       1.0  0.46990  0.80619  0.19656  1.0000 0.2092181118
C   C59       1.0  0.03010  0.80619  0.30344  1.0000 0.2092181118
C   C60       1.0  0.03010  0.69381  0.69656  1.0000 0.2092181118
C   C61       1.0  0.46990  0.69381  0.80344  1.0000 0.2092181118
C   C62       1.0  0.53010  0.19381  0.80344  1.0000 0.2092181118
C   C63       1.0  0.96990  0.19381  0.69656  1.0000 0.2092181118
C   C64       1.0  0.96990  0.30619  0.30344  1.0000 0.2092181118
C   C65       1.0  0.57120  0.25507  0.16144  1.0000 0.1123543662
C   C66       1.0  0.42880  0.75507  0.16144  1.0000 0.1123543662
C   C67       1.0  0.07120  0.75507  0.33856  1.0000 0.1123543662
C   C68       1.0  0.07120  0.74493  0.66144  1.0000 0.1123543662
C   C69       1.0  0.42880  0.74493  0.83856  1.0000 0.1123543662
C   C70       1.0  0.57120  0.24493  0.83856  1.0000 0.1123543662
C   C71       1.0  0.92880  0.24493  0.66144  1.0000 0.1123543662
C   C72       1.0  0.92880  0.25507  0.33856  1.0000 0.1123543662
C   C73       1.0  0.63030  0.26784  0.11471  1.0000 -0.0142832589
C   C74       1.0  0.36970  0.76784  0.11471  1.0000 -0.0142832589
C   C75       1.0  0.13030  0.76784  0.38529  1.0000 -0.0142832589
C   C76       1.0  0.13030  0.73216  0.61471  1.0000 -0.0142832589
C   C77       1.0  0.36970  0.73216  0.88529  1.0000 -0.0142832589
C   C78       1.0  0.63030  0.23216  0.88529  1.0000 -0.0142832589
C   C79       1.0  0.86970  0.23216  0.61471  1.0000 -0.0142832589
C   C80       1.0  0.86970  0.26784  0.38529  1.0000 -0.0142832589
C   C81       1.0  0.64240  0.16478  0.09651  1.0000 -0.0142832589
C   C82       1.0  0.35760  0.66478  0.09651  1.0000 -0.0142832589
C   C83       1.0  0.14240  0.66478  0.40349  1.0000 -0.0142832589
C   C84       1.0  0.14240  0.83522  0.59651  1.0000 -0.0142832589
C   C85       1.0  0.35760  0.83522  0.90349  1.0000 -0.0142832589
C   C86       1.0  0.64240  0.33522  0.90349  1.0000 -0.0142832589
C   C87       1.0  0.85760  0.33522  0.59651  1.0000 -0.0142832589
C   C88       1.0  0.85760  0.16478  0.40349  1.0000 -0.0142832589
C   C89       1.0  0.58640  0.15166  0.14356  1.0000 0.0020717179
C   C90       1.0  0.41360  0.65166  0.14356  1.0000 0.0020717179
C   C91       1.0  0.08640  0.65166  0.35644  1.0000 0.0020717179
C   C92       1.0  0.08640  0.84834  0.64356  1.0000 0.0020717179
C   C93       1.0  0.41360  0.84834  0.85644  1.0000 0.0020717179
C   C94       1.0  0.58640  0.34834  0.85644  1.0000 0.0020717179
C   C95       1.0  0.91360  0.34834  0.64356  1.0000 0.0020717179
C   C96       1.0  0.91360  0.15166  0.35644  1.0000 -0.0007899816
C   C97       1.0  0.38900  0.43834  0.60409  1.0000 -0.0154220332
C   C98       1.0  0.61100  0.93834  0.60409  1.0000 -0.0154220332
C   C99       1.0  0.88900  0.93834  0.89591  1.0000 -0.0154220332
C   C100      1.0  0.88900  0.56166  0.10409  1.0000 -0.0142832589
C   C101      1.0  0.61100  0.56166  0.39591  1.0000 -0.0142832589
C   C102      1.0  0.38900  0.06166  0.39591  1.0000 -0.0154220332
C   C103      1.0  0.11100  0.06166  0.10409  1.0000 -0.0142832589
C   C104      1.0  0.11100  0.43834  0.89591  1.0000 -0.0142832589
C   C105      1.0  0.38140  0.40371  0.65054  1.0000 0.1123543662
C   C106      1.0  0.61860  0.90371  0.65054  1.0000 0.1123543662
C   C107      1.0  0.88140  0.90371  0.84946  1.0000 0.1123543662
C   C108      1.0  0.88140  0.59629  0.15054  1.0000 0.1123543662
C   C109      1.0  0.61860  0.59629  0.34946  1.0000 0.1123543662
C   C110      1.0  0.38140  0.09629  0.34946  1.0000 0.1123543662
C   C111      1.0  0.11860  0.09629  0.15054  1.0000 0.1123543662
C   C112      1.0  0.11860  0.40371  0.84946  1.0000 0.1123543662
C   C113      1.0  0.53630  0.34931  0.62457  1.0000 0.0176791737
C   C114      1.0  0.46370  0.84931  0.62457  1.0000 0.0176791737
C   C115      1.0  0.03630  0.84931  0.87543  1.0000 0.0176791737
C   C116      1.0  0.03630  0.65069  0.12457  1.0000 0.0176791737
C   C117      1.0  0.46370  0.65069  0.37543  1.0000 0.0176791737
C   C118      1.0  0.53630  0.15069  0.37543  1.0000 0.0176791737
C   C119      1.0  0.96370  0.15069  0.12457  1.0000 0.0176791737
C   C120      1.0  0.96370  0.34931  0.87543  1.0000 0.0176791737
C   C121      1.0  0.54070  0.38290  0.57791  1.0000 0.0020717179
C   C122      1.0  0.45930  0.88290  0.57791  1.0000 0.0020717179
C   C123      1.0  0.04070  0.88290  0.92209  1.0000 0.0020717179
C   C124      1.0  0.04070  0.61710  0.07791  1.0000 0.0020717179
C   C125      1.0  0.45930  0.61710  0.42209  1.0000 0.0020717179
C   C126      1.0  0.54070  0.11710  0.42209  1.0000 0.0020717179
C   C127      1.0  0.95930  0.11710  0.07791  1.0000 0.0020717179
C   C128      1.0  0.95930  0.38290  0.92209  1.0000 0.0020717179
C   C129      1.0  0.28880  0.41346  0.68978  1.0000 0.2092181118
C   C130      1.0  0.71120  0.91346  0.68978  1.0000 0.2092181118
C   C131      1.0  0.78880  0.91346  0.81022  1.0000 0.2092181118
C   C132      1.0  0.78880  0.58654  0.18978  1.0000 0.2092181118
C   C133      1.0  0.71120  0.58654  0.31022  1.0000 0.2092181118
C   C134      1.0  0.28880  0.08654  0.31022  1.0000 0.2092181118
C   C135      1.0  0.21120  0.08654  0.18978  1.0000 0.2092181118
C   C136      1.0  0.21120  0.41346  0.81022  1.0000 0.2092181118
C   C137      1.0  0.19560  0.45650  0.67571  1.0000 -0.5130341128
C   C138      1.0  0.80440  0.95650  0.67571  1.0000 -0.5130341128
C   C139      1.0  0.69560  0.95650  0.82429  1.0000 -0.5130341128
C   C140      1.0  0.69560  0.54350  0.17571  1.0000 -0.5130341128
C   C141      1.0  0.80440  0.54350  0.32429  1.0000 -0.5130341128
C   C142      1.0  0.19560  0.04350  0.32429  1.0000 -0.5130341128
C   C143      1.0  0.30440  0.04350  0.17571  1.0000 -0.5130341128
C   C144      1.0  0.30440  0.45650  0.82429  1.0000 -0.5130341128
N   N1        1.0  0.39000  0.44737  0.42961  1.0000 -0.1494648152
N   N2        1.0  0.61000  0.94737  0.42961  1.0000 -0.1494648152
N   N3        1.0  0.89000  0.94737  0.07039  1.0000 -0.1494648152
N   N4        1.0  0.89000  0.55263  0.92961  1.0000 -0.1494648152
N   N5        1.0  0.61000  0.55263  0.57039  1.0000 -0.1494648152
N   N6        1.0  0.39000  0.05263  0.57039  1.0000 -0.1494648152
N   N7        1.0  0.11000  0.05263  0.92961  1.0000 -0.1494648152
N   N8        1.0  0.11000  0.44737  0.07039  1.0000 -0.1494648152
N   N9        1.0  0.30500  0.41179  0.33153  1.0000 -0.1889960352
N   N10       1.0  0.69500  0.91179  0.33153  1.0000 -0.1889960352
N   N11       1.0  0.80500  0.91179  0.16847  1.0000 -0.1889960352
N   N12       1.0  0.80500  0.58821  0.83153  1.0000 -0.1889960352
N   N13       1.0  0.69500  0.58821  0.66847  1.0000 -0.1889960352
N   N14       1.0  0.30500  0.08821  0.66847  1.0000 -0.1889960352
N   N15       1.0  0.19500  0.08821  0.83153  1.0000 -0.1889960352
N   N16       1.0  0.19500  0.41179  0.16847  1.0000 -0.1889960352
N   N17       1.0  0.42480  0.33483  0.26882  1.0000 -0.1889960352
N   N18       1.0  0.57520  0.83483  0.26882  1.0000 -0.1889960352
N   N19       1.0  0.92480  0.83483  0.23118  1.0000 -0.1889960352
N   N20       1.0  0.92480  0.66517  0.76882  1.0000 -0.1889960352
N   N21       1.0  0.57520  0.66517  0.73118  1.0000 -0.1889960352
N   N22       1.0  0.42480  0.16517  0.73118  1.0000 -0.1889960352
N   N23       1.0  0.07520  0.16517  0.76882  1.0000 -0.1889960352
N   N24       1.0  0.07520  0.33483  0.23118  1.0000 -0.1889960352
N   N25       1.0  0.47380  0.28930  0.23738  1.0000 -0.1889960352
N   N26       1.0  0.52620  0.78930  0.23738  1.0000 -0.1889960352
N   N27       1.0  0.97380  0.78930  0.26262  1.0000 -0.1889960352
N   N28       1.0  0.97380  0.71070  0.73738  1.0000 -0.1889960352
N   N29       1.0  0.52620  0.71070  0.76262  1.0000 -0.1889960352
N   N30       1.0  0.47380  0.21070  0.76262  1.0000 -0.1889960352
N   N31       1.0  0.02620  0.21070  0.73738  1.0000 -0.1889960352
N   N32       1.0  0.02620  0.28930  0.26262  1.0000 -0.1889960352
N   N33       1.0  0.55000  0.19623  0.17574  1.0000 -0.1972488166
N   N34       1.0  0.45000  0.69623  0.17574  1.0000 -0.1972488166
N   N35       1.0  0.05000  0.69623  0.32426  1.0000 -0.1972488166
N   N36       1.0  0.05000  0.80377  0.67574  1.0000 -0.1972488166
N   N37       1.0  0.45000  0.80377  0.82426  1.0000 -0.1972488166
N   N38       1.0  0.55000  0.30377  0.82426  1.0000 -0.1972488166
N   N39       1.0  0.95000  0.30377  0.67574  1.0000 -0.1972488166
N   N40       1.0  0.95000  0.19623  0.32426  1.0000 -0.1972488166
N   N41       1.0  0.66440  0.22284  0.08182  1.0000 -0.1414720445
N   N42       1.0  0.33560  0.72284  0.08182  1.0000 -0.1494648152
N   N43       1.0  0.16440  0.72284  0.41818  1.0000 -0.1414720445
N   N44       1.0  0.16440  0.77716  0.58182  1.0000 -0.1494648152
N   N45       1.0  0.33560  0.77716  0.91818  1.0000 -0.1494648152
N   N46       1.0  0.66440  0.27716  0.91818  1.0000 -0.1414720445
N   N47       1.0  0.83560  0.27716  0.58182  1.0000 -0.1414720445
N   N48       1.0  0.83560  0.22284  0.41818  1.0000 -0.1414720445
N   N49       1.0  0.46810  0.42817  0.56788  1.0000 -0.1414720445
N   N50       1.0  0.53190  0.92817  0.56788  1.0000 -0.1414720445
N   N51       1.0  0.96810  0.92817  0.93212  1.0000 -0.1414720445
N   N52       1.0  0.96810  0.57183  0.06788  1.0000 -0.1414720445
N   N53       1.0  0.53190  0.57183  0.43212  1.0000 -0.1414720445
N   N54       1.0  0.46810  0.07183  0.43212  1.0000 -0.1414720445
N   N55       1.0  0.03190  0.07183  0.06788  1.0000 -0.1414720445
N   N56       1.0  0.03190  0.42817  0.93212  1.0000 -0.1414720445
N   N57       1.0  0.45730  0.35945  0.66114  1.0000 -0.1889960352
N   N58       1.0  0.54270  0.85945  0.66114  1.0000 -0.1889960352
N   N59       1.0  0.95730  0.85945  0.83886  1.0000 -0.1889960352
N   N60       1.0  0.95730  0.64055  0.16114  1.0000 -0.1889960352
N   N61       1.0  0.54270  0.64055  0.33886  1.0000 -0.1889960352
N   N62       1.0  0.45730  0.14055  0.33886  1.0000 -0.1889960352
N   N63       1.0  0.04270  0.14055  0.16114  1.0000 -0.1889960352
N   N64       1.0  0.04270  0.35945  0.83886  1.0000 -0.1889960352
N   N65       1.0  0.29560  0.38243  0.73300  1.0000 -0.1972488166
N   N66       1.0  0.70440  0.88243  0.73300  1.0000 -0.1972488166
N   N67       1.0  0.79560  0.88243  0.76700  1.0000 -0.1972488166
N   N68       1.0  0.79560  0.61757  0.23300  1.0000 -0.1972488166
N   N69       1.0  0.70440  0.61757  0.26700  1.0000 -0.1972488166
N   N70       1.0  0.29560  0.11757  0.26700  1.0000 -0.1972488166
N   N71       1.0  0.20440  0.11757  0.23300  1.0000 -0.1972488166
N   N72       1.0  0.20440  0.38243  0.76700  1.0000 -0.1972488166
N   N73       1.0  0.99170  0.25000  0.00000  1.0000 0.6364470049
N   N74       1.0  0.00830  0.75000  0.00000  1.0000 0.6364470049
N   N75       1.0  0.49170  0.75000  0.50000  1.0000 0.6364470049
N   N76       1.0  0.50830  0.25000  0.50000  1.0000 0.6364470049
N   N77       1.0  0.24650  0.59185  0.95590  1.0000 0.6683781519
N   N78       1.0  0.24650  0.90815  0.04410  1.0000 0.6683781519
N   N79       1.0  0.25350  0.90815  0.45590  1.0000 0.6683781519
N   N80       1.0  0.74650  0.40815  0.45590  1.0000 0.6683781519
N   N81       1.0  0.75350  0.40815  0.04410  1.0000 0.6683781519
N   N82       1.0  0.75350  0.09185  0.95590  1.0000 0.6683781519
N   N83       1.0  0.74650  0.09185  0.54410  1.0000 0.6683781519
N   N84       1.0  0.25350  0.59185  0.54410  1.0000 0.6683781519
O   O1        1.0  0.93740  0.27330  0.03626  1.0000 -0.4031547532
O   O2        1.0  0.06260  0.77330  0.03626  1.0000 -0.4031547532
O   O3        1.0  0.43740  0.77330  0.46374  1.0000 -0.4031547532
O   O4        1.0  0.43740  0.72670  0.53626  1.0000 -0.4031547532
O   O5        1.0  0.06260  0.72670  0.96374  1.0000 -0.4031547532
O   O6        1.0  0.93740  0.22670  0.96374  1.0000 -0.4031547532
O   O7        1.0  0.56260  0.22670  0.53626  1.0000 -0.4031547532
O   O8        1.0  0.56260  0.27330  0.46374  1.0000 -0.4031547532
O   O9        1.0  0.09280  0.25000  0.00000  1.0000 -0.3475949988
O   O10       1.0  0.90720  0.75000  0.00000  1.0000 -0.3475949988
O   O11       1.0  0.59280  0.75000  0.50000  1.0000 -0.3475949988
O   O12       1.0  0.40720  0.25000  0.50000  1.0000 -0.3475949988
O   O13       1.0  0.20240  0.55260  0.98493  1.0000 -0.4433036932
O   O14       1.0  0.23660  0.58885  0.90760  1.0000 -0.4031547532
O   O15       1.0  0.30790  0.63234  0.97555  1.0000 -0.4290535451
O   O16       1.0  0.20240  0.94740  0.01507  1.0000 -0.4433036932
O   O17       1.0  0.23660  0.91115  0.09240  1.0000 -0.4031547532
O   O18       1.0  0.30790  0.86766  0.02445  1.0000 -0.4290535451
O   O19       1.0  0.29760  0.94740  0.48493  1.0000 -0.4433036932
O   O20       1.0  0.26340  0.91115  0.40760  1.0000 -0.4031547532
O   O21       1.0  0.19210  0.86766  0.47555  1.0000 -0.4290535451
O   O22       1.0  0.70240  0.44740  0.48493  1.0000 -0.4433036932
O   O23       1.0  0.73660  0.41115  0.40760  1.0000 -0.4031547532
O   O24       1.0  0.80790  0.36766  0.47555  1.0000 -0.4290535451
O   O25       1.0  0.79760  0.44740  0.01507  1.0000 -0.4433036932
O   O26       1.0  0.76340  0.41115  0.09240  1.0000 -0.4031547532
O   O27       1.0  0.69210  0.36766  0.02445  1.0000 -0.4290535451
O   O28       1.0  0.79760  0.05260  0.98493  1.0000 -0.4433036932
O   O29       1.0  0.76340  0.08885  0.90760  1.0000 -0.4031547532
O   O30       1.0  0.69210  0.13234  0.97555  1.0000 -0.4290535451
O   O31       1.0  0.70240  0.05260  0.51507  1.0000 -0.4433036932
O   O32       1.0  0.73660  0.08885  0.59240  1.0000 -0.4031547532
O   O33       1.0  0.80790  0.13234  0.52445  1.0000 -0.4290535451
O   O34       1.0  0.29760  0.55260  0.51507  1.0000 -0.4433036932
O   O35       1.0  0.26340  0.58885  0.59240  1.0000 -0.4031547532
O   O36       1.0  0.19210  0.63234  0.52445  1.0000 -0.4290535451
