# DDEC6 charges by PACMAN v1.1 (https://github.com/mtap-research/PACMAN-charge/)
data_2004[WCu][dia]3[ION]1
_chemical_formula_sum              "Cu32 H192 W8 C240 S32 I16 N48"
_cell_length_a       22.494
_cell_length_b       22.494
_cell_length_c       22.494
_cell_angle_alpha    113.084
_cell_angle_beta     113.084
_cell_angle_gamma    102.464

_symmetry_space_group_name_H-M    "P 1"
_symmetry_Int_Tables_number       1

loop_
  _symmetry_equiv_pos_as_xyz
  'x, y, z'

loop_
  _atom_site_type_symbol
  _atom_site_label
  _atom_site_symmetry_multiplicity
  _atom_site_fract_x
  _atom_site_fract_y
  _atom_site_fract_z
  _atom_site_occupancy
  _atom_site_charge
Cu  Cu1       1.0  0.32417  0.54475  0.60657  1.0000 0.4201525613
Cu  Cu2       1.0  0.43801  0.71749  0.89298  1.0000 0.4201525613
Cu  Cu3       1.0  0.55150  0.44759  0.22767  1.0000 0.4080003924
Cu  Cu4       1.0  0.71938  0.32365  0.27169  1.0000 0.4080003924
Cu  Cu5       1.0  0.06457  0.95538  0.27967  1.0000 0.4291396341
Cu  Cu6       1.0  0.17593  0.78524  0.22056  1.0000 0.4291396341
Cu  Cu7       1.0  0.78538  0.06470  0.60951  1.0000 0.4291396341
Cu  Cu8       1.0  0.95557  0.17690  0.89122  1.0000 0.4291396341
Cu  Cu9       1.0  0.67506  0.45670  0.39035  1.0000 0.4291396341
Cu  Cu10      1.0  0.56587  0.28463  0.10895  1.0000 0.4291396341
Cu  Cu11      1.0  0.45811  0.56398  0.78031  1.0000 0.4201525613
Cu  Cu12      1.0  0.28318  0.67732  0.71938  1.0000 0.4201525613
Cu  Cu13      1.0  0.95045  0.05417  0.73066  1.0000 0.4045637822
Cu  Cu14      1.0  0.82340  0.22031  0.76997  1.0000 0.4045637822
Cu  Cu15      1.0  0.21962  0.94913  0.39651  1.0000 0.4045637822
Cu  Cu16      1.0  0.05245  0.82310  0.10376  1.0000 0.4045637822
Cu  Cu17      1.0  0.94699  0.69891  0.40003  1.0000 0.4201525613
Cu  Cu18      1.0  0.79896  0.54682  0.10009  1.0000 0.4201525613
Cu  Cu19      1.0  0.69890  0.79878  0.75263  1.0000 0.4291396341
Cu  Cu20      1.0  0.54637  0.94617  0.74741  1.0000 0.4291396341
Cu  Cu21      1.0  0.04413  0.29648  0.59963  1.0000 0.4201525613
Cu  Cu22      1.0  0.19694  0.44435  0.90022  1.0000 0.4201525613
Cu  Cu23      1.0  0.29642  0.19637  0.25188  1.0000 0.4291396341
Cu  Cu24      1.0  0.44445  0.04443  0.24800  1.0000 0.4291396341
Cu  Cu25      1.0  0.79261  0.69320  0.24380  1.0000 0.4374242252
Cu  Cu26      1.0  0.94958  0.54881  0.25634  1.0000 0.4374242252
Cu  Cu27      1.0  0.69250  0.94940  0.90063  1.0000 0.4291396341
Cu  Cu28      1.0  0.54896  0.79191  0.59955  1.0000 0.4291396341
Cu  Cu29      1.0  0.19141  0.29041  0.74365  1.0000 0.4291396341
Cu  Cu30      1.0  0.04681  0.44758  0.75622  1.0000 0.4291396341
Cu  Cu31      1.0  0.29030  0.04643  0.09899  1.0000 0.4291396341
Cu  Cu32      1.0  0.44743  0.19127  0.40080  1.0000 0.4291396341
H   H1        1.0  0.06008  0.73980  0.55116  1.0000 0.0800923152
H   H2        1.0  0.19227  0.79664  0.62914  1.0000 0.1202251269
H   H3        1.0  0.19804  0.81866  0.44985  1.0000 0.1202251269
H   H4        1.0  0.06500  0.76431  0.37592  1.0000 0.1003810793
H   H5        1.0  0.88902  0.81144  0.24251  1.0000 0.0904751597
H   H6        1.0  0.87020  0.87229  0.17186  1.0000 0.1202251269
H   H7        1.0  0.64312  0.73096  0.03853  1.0000 0.1202251269
H   H8        1.0  0.66680  0.67862  0.11774  1.0000 0.0904751597
H   H9        1.0  0.68870  0.50843  0.94879  1.0000 0.0800923152
H   H10       1.0  0.66740  0.56244  0.87060  1.0000 0.1202251269
H   H11       1.0  0.86842  0.74787  0.04986  1.0000 0.1202251269
H   H12       1.0  0.88816  0.68897  0.12403  1.0000 0.1003810793
H   H13       1.0  0.06912  0.64653  0.25768  1.0000 0.0904751597
H   H14       1.0  0.20063  0.69843  0.32841  1.0000 0.1202251269
H   H15       1.0  0.19258  0.60475  0.46178  1.0000 0.1202251269
H   H16       1.0  0.06105  0.54913  0.38248  1.0000 0.0904751597
H   H17       1.0  0.73763  0.68708  0.67820  1.0000 0.0800923152
H   H18       1.0  0.79523  0.66594  0.60396  1.0000 0.1202251269
H   H19       1.0  0.81921  0.86882  0.62214  1.0000 0.1202251269
H   H20       1.0  0.76540  0.88835  0.70084  1.0000 0.1003810793
H   H21       1.0  0.81080  0.06868  0.92256  1.0000 0.0904751597
H   H22       1.0  0.87176  0.20022  0.00209  1.0000 0.1202251269
H   H23       1.0  0.73038  0.19278  0.08780  1.0000 0.1202251269
H   H24       1.0  0.67732  0.06112  0.01127  1.0000 0.0904751597
H   H25       1.0  0.50832  0.05932  0.82035  1.0000 0.0800923152
H   H26       1.0  0.56152  0.19117  0.89477  1.0000 0.1202251269
H   H27       1.0  0.74754  0.19692  0.87933  1.0000 0.1202251269
H   H28       1.0  0.68836  0.06442  0.80055  1.0000 0.1003810793
H   H29       1.0  0.64741  0.88841  0.57860  1.0000 0.0904751597
H   H30       1.0  0.69941  0.86978  0.49909  1.0000 0.1202251269
H   H31       1.0  0.60414  0.64238  0.41144  1.0000 0.1202251269
H   H32       1.0  0.54900  0.66596  0.48797  1.0000 0.0904751597
H   H33       1.0  0.82266  0.77012  0.83209  1.0000 0.0800923152
H   H34       1.0  0.85014  0.71683  0.91126  1.0000 0.1202251269
H   H35       1.0  0.64630  0.68345  0.89224  1.0000 0.1202251269
H   H36       1.0  0.62254  0.73760  0.81359  1.0000 0.0904751597
H   H37       1.0  0.42835  0.65982  0.54833  1.0000 0.0904751597
H   H38       1.0  0.29682  0.60437  0.47142  1.0000 0.1202251269
H   H39       1.0  0.30927  0.78276  0.43872  1.0000 0.1202251269
H   H40       1.0  0.44114  0.83237  0.51368  1.0000 0.0904751597
H   H41       1.0  0.43851  0.98899  0.66502  1.0000 0.0800923152
H   H42       1.0  0.30605  0.93721  0.58544  1.0000 0.1097421626
H   H43       1.0  0.29136  0.75515  0.60980  1.0000 0.1202251269
H   H44       1.0  0.42412  0.81008  0.68871  1.0000 0.0904751597
H   H45       1.0  0.61168  0.88033  0.95218  1.0000 0.0904751597
H   H46       1.0  0.63321  0.82579  0.02919  1.0000 0.1202251269
H   H47       1.0  0.84411  0.87053  0.06144  1.0000 0.1202251269
H   H48       1.0  0.81872  0.92738  0.98643  1.0000 0.0904751597
H   H49       1.0  0.97188  0.83231  0.53219  1.0000 0.0800923152
H   H50       1.0  0.92032  0.86053  0.61306  1.0000 0.1097421626
H   H51       1.0  0.77436  0.63650  0.48251  1.0000 0.1202251269
H   H52       1.0  0.82879  0.61263  0.40479  1.0000 0.0904751597
H   H53       1.0  0.88204  0.42840  0.26945  1.0000 0.0904751597
H   H54       1.0  0.82731  0.29673  0.19340  1.0000 0.1202251269
H   H55       1.0  0.86875  0.30867  0.02529  1.0000 0.1202251269
H   H56       1.0  0.92584  0.44059  0.10733  1.0000 0.0800923152
H   H57       1.0  0.80193  0.43964  0.96944  1.0000 0.0800923152
H   H58       1.0  0.74936  0.30721  0.88856  1.0000 0.1097421626
H   H59       1.0  0.65276  0.29166  0.01650  1.0000 0.1202251269
H   H60       1.0  0.70652  0.42380  0.09420  1.0000 0.0904751597
H   H61       1.0  0.65863  0.61292  0.23021  1.0000 0.0904751597
H   H62       1.0  0.60304  0.63424  0.30629  1.0000 0.1202251269
H   H63       1.0  0.78410  0.84299  0.47539  1.0000 0.1202251269
H   H64       1.0  0.83393  0.81807  0.39332  1.0000 0.0800923152
H   H65       1.0  0.93731  0.30915  0.47787  1.0000 0.0800923152
H   H66       1.0  0.80493  0.25671  0.39704  1.0000 0.1097421626
H   H67       1.0  0.78928  0.14340  0.51024  1.0000 0.1097421626
H   H68       1.0  0.92126  0.19659  0.58729  1.0000 0.0904751597
H   H69       1.0  0.10809  0.16156  0.73521  1.0000 0.0904751597
H   H70       1.0  0.12961  0.10520  0.81057  1.0000 0.1202251269
H   H71       1.0  0.34535  0.27606  0.96962  1.0000 0.1202251269
H   H72       1.0  0.31987  0.32670  0.88812  1.0000 0.0800923152
H   H73       1.0  0.33149  0.45819  0.02075  1.0000 0.0800923152
H   H74       1.0  0.36001  0.40675  0.10171  1.0000 0.1097421626
H   H75       1.0  0.13343  0.28015  0.99095  1.0000 0.1097421626
H   H76       1.0  0.10946  0.33492  0.91377  1.0000 0.0904751597
H   H77       1.0  0.92631  0.37384  0.76530  1.0000 0.0904751597
H   H78       1.0  0.79462  0.32011  0.68993  1.0000 0.1202251269
H   H79       1.0  0.80659  0.37474  0.52964  1.0000 0.1202251269
H   H80       1.0  0.93868  0.43073  0.61118  1.0000 0.0800923152
H   H81       1.0  0.30460  0.33040  0.36766  1.0000 0.0800923152
H   H82       1.0  0.25052  0.35787  0.44600  1.0000 0.1202251269
H   H83       1.0  0.14342  0.13170  0.35352  1.0000 0.1097421626
H   H84       1.0  0.19838  0.10851  0.27625  1.0000 0.0904751597
H   H85       1.0  0.15976  0.92615  0.05113  1.0000 0.0904751597
H   H86       1.0  0.10375  0.79439  0.97381  1.0000 0.1202251269
H   H87       1.0  0.27776  0.80609  0.93399  1.0000 0.1268462962
H   H88       1.0  0.32839  0.93824  0.00995  1.0000 0.0800923152
H   H89       1.0  0.46332  0.93683  0.13292  1.0000 0.0800923152
H   H90       1.0  0.41252  0.80443  0.05466  1.0000 0.1202251269
H   H91       1.0  0.27781  0.78976  0.14600  1.0000 0.1097421626
H   H92       1.0  0.33183  0.92200  0.22322  1.0000 0.0904751597
H   H93       1.0  0.37462  0.10843  0.44820  1.0000 0.0904751597
H   H94       1.0  0.32031  0.12971  0.52565  1.0000 0.1202251269
H   H95       1.0  0.37270  0.34392  0.56650  1.0000 0.1268462962
H   H96       1.0  0.42878  0.31862  0.49040  1.0000 0.0904751597
H   H97       1.0  0.19152  0.24716  0.18938  1.0000 0.0800923152
H   H98       1.0  0.17034  0.30376  0.11406  1.0000 0.1202251269
H   H99       1.0  0.36144  0.30534  0.11135  1.0000 0.1202251269
H   H100      1.0  0.38049  0.25143  0.18989  1.0000 0.1003810793
H   H101      1.0  0.56606  0.31670  0.43153  1.0000 0.0904751597
H   H102      1.0  0.69787  0.37746  0.51056  1.0000 0.1202251269
H   H103      1.0  0.69147  0.22401  0.58091  1.0000 0.1202251269
H   H104      1.0  0.55987  0.17061  0.50480  1.0000 0.0904751597
H   H105      1.0  0.55756  0.00272  0.31251  1.0000 0.0800923152
H   H106      1.0  0.68946  0.05672  0.38787  1.0000 0.1202251269
H   H107      1.0  0.69410  0.24924  0.38717  1.0000 0.1202251269
H   H108      1.0  0.56167  0.18979  0.30850  1.0000 0.1003810793
H   H109      1.0  0.38433  0.13208  0.06615  1.0000 0.0904751597
H   H110      1.0  0.36616  0.18510  0.98729  1.0000 0.1202251269
H   H111      1.0  0.14337  0.11226  0.92060  1.0000 0.1202251269
H   H112      1.0  0.16590  0.05665  0.99660  1.0000 0.0904751597
H   H113      1.0  0.00035  0.18901  0.44362  1.0000 0.0800923152
H   H114      1.0  0.05340  0.16678  0.36446  1.0000 0.1202251269
H   H115      1.0  0.24645  0.35826  0.55062  1.0000 0.1202251269
H   H116      1.0  0.18879  0.37929  0.62565  1.0000 0.0904751597
H   H117      1.0  0.13332  0.56633  0.74905  1.0000 0.0904751597
H   H118      1.0  0.18543  0.69830  0.82014  1.0000 0.1268462962
H   H119      1.0  0.11127  0.69129  0.96877  1.0000 0.1202251269
H   H120      1.0  0.05570  0.55956  0.89015  1.0000 0.0904751597
H   H121      1.0  0.24463  0.55647  0.05587  1.0000 0.0800923152
H   H122      1.0  0.30159  0.68867  0.13515  1.0000 0.1202251269
H   H123      1.0  0.30869  0.69581  0.94982  1.0000 0.1202251269
H   H124      1.0  0.25464  0.56312  0.87467  1.0000 0.0904751597
H   H125      1.0  0.31790  0.38392  0.75148  1.0000 0.0904751597
H   H126      1.0  0.37875  0.36505  0.68035  1.0000 0.1268462962
H   H127      1.0  0.22232  0.14257  0.53074  1.0000 0.1202251269
H   H128      1.0  0.16913  0.16550  0.60928  1.0000 0.0904751597
H   H129      1.0  0.48201  0.61360  0.67255  1.0000 0.0904751597
H   H130      1.0  0.56046  0.58698  0.62459  1.0000 0.1202251269
H   H131      1.0  0.37242  0.44609  0.39739  1.0000 0.1202251269
H   H132      1.0  0.29777  0.46970  0.45136  1.0000 0.0800923152
H   H133      1.0  0.44069  0.80926  0.82678  1.0000 0.0904751597
H   H134      1.0  0.46186  0.93560  0.87457  1.0000 0.1202251269
H   H135      1.0  0.54787  0.97492  0.10182  1.0000 0.1202251269
H   H136      1.0  0.51773  0.84637  0.04801  1.0000 0.0800923152
H   H137      1.0  0.61163  0.44004  0.13306  1.0000 0.0800923152
H   H138      1.0  0.58771  0.46011  0.02743  1.0000 0.1202251269
H   H139      1.0  0.44555  0.54780  0.06938  1.0000 0.1268462962
H   H140      1.0  0.46704  0.51921  0.16898  1.0000 0.0800923152
H   H141      1.0  0.80658  0.47843  0.36653  1.0000 0.0800923152
H   H142      1.0  0.93224  0.56000  0.47230  1.0000 0.1202251269
H   H143      1.0  0.97774  0.37574  0.43015  1.0000 0.1202251269
H   H144      1.0  0.84959  0.29777  0.33043  1.0000 0.0800923152
H   H145      1.0  0.01156  0.85632  0.33119  1.0000 0.1003810793
H   H146      1.0  0.98618  0.87975  0.43412  1.0000 0.1097421626
H   H147      1.0  0.04693  0.10058  0.49562  1.0000 0.1202251269
H   H148      1.0  0.06927  0.07220  0.39208  1.0000 0.072731914
H   H149      1.0  0.02555  0.68071  0.16939  1.0000 0.1003810793
H   H150      1.0  0.94598  0.55240  0.06639  1.0000 0.1097421626
H   H151      1.0  0.10493  0.55184  0.00432  1.0000 0.1202251269
H   H152      1.0  0.18020  0.67765  0.10799  1.0000 0.072731914
H   H153      1.0  0.68157  0.01117  0.65605  1.0000 0.1003810793
H   H154      1.0  0.55300  0.98439  0.60705  1.0000 0.1097421626
H   H155      1.0  0.55137  0.04704  0.44798  1.0000 0.1202251269
H   H156      1.0  0.67716  0.06978  0.49816  1.0000 0.072731914
H   H157      1.0  0.85613  0.02676  0.84453  1.0000 0.1003810793
H   H158      1.0  0.87700  0.94632  0.89210  1.0000 0.1097421626
H   H159      1.0  0.10090  0.10729  0.05498  1.0000 0.1202251269
H   H160      1.0  0.07205  0.18168  0.00311  1.0000 0.072731914
H   H161      1.0  0.52627  0.35702  0.34799  1.0000 0.1003810793
H   H162      1.0  0.44739  0.38135  0.39749  1.0000 0.1097421626
H   H163      1.0  0.60241  0.60436  0.54846  1.0000 0.1202251269
H   H164      1.0  0.67711  0.57501  0.49743  1.0000 0.072731914
H   H165      1.0  0.50859  0.17822  0.15131  1.0000 0.1003810793
H   H166      1.0  0.48332  0.04982  0.10177  1.0000 0.1097421626
H   H167      1.0  0.55505  0.05371  0.95053  1.0000 0.1202251269
H   H168      1.0  0.57678  0.17945  0.00157  1.0000 0.072731914
H   H169      1.0  0.36345  0.50735  0.82780  1.0000 0.0800923152
H   H170      1.0  0.38430  0.48142  0.92978  1.0000 0.1202251269
H   H171      1.0  0.60946  0.55760  0.00616  1.0000 0.1202251269
H   H172      1.0  0.58332  0.58160  0.90338  1.0000 0.072731914
H   H173      1.0  0.17907  0.53489  0.67158  1.0000 0.0800923152
H   H174      1.0  0.05112  0.45385  0.56960  1.0000 0.1202251269
H   H175      1.0  0.05094  0.60310  0.49384  1.0000 0.1202251269
H   H176      1.0  0.17768  0.67966  0.59665  1.0000 0.072731914
H   H177      1.0  0.93906  0.10930  0.63095  1.0000 0.0800923152
H   H178      1.0  0.95633  0.08142  0.52320  1.0000 0.1202251269
H   H179      1.0  0.05069  0.94596  0.57282  1.0000 0.1202251269
H   H180      1.0  0.02482  0.97133  0.67472  1.0000 0.0800923152
H   H181      1.0  0.97818  0.30855  0.86904  1.0000 0.0800923152
H   H182      1.0  0.05821  0.43359  0.97667  1.0000 0.1202251269
H   H183      1.0  0.87328  0.47853  0.92756  1.0000 0.1202251269
H   H184      1.0  0.79655  0.35071  0.82583  1.0000 0.0800923152
H   H185      1.0  0.30926  0.94150  0.33108  1.0000 0.0800923152
H   H186      1.0  0.43412  0.95862  0.37624  1.0000 0.1202251269
H   H187      1.0  0.47571  0.04217  0.60439  1.0000 0.1202251269
H   H188      1.0  0.34842  0.01762  0.55291  1.0000 0.0800923152
H   H189      1.0  0.11079  0.97811  0.16869  1.0000 0.0800923152
H   H190      1.0  0.08265  0.05769  0.12340  1.0000 0.1202251269
H   H191      1.0  0.93562  0.87080  0.89594  1.0000 0.1202251269
H   H192      1.0  0.96309  0.79514  0.94749  1.0000 0.0800923152
W   W1        1.0  0.84481  0.59472  0.25008  1.0000 0.1633400298
W   W2        1.0  0.59425  0.84411  0.75008  1.0000 0.1544300592
W   W3        1.0  0.09305  0.34295  0.74993  1.0000 0.189322514
W   W4        1.0  0.34269  0.09267  0.24992  1.0000 0.1800519503
W   W5        1.0  0.34854  0.59846  0.74980  1.0000 0.252760706
W   W6        1.0  0.65786  0.40803  0.24968  1.0000 0.2599258995
W   W7        1.0  0.15822  0.90834  0.25010  1.0000 0.252760706
W   W8        1.0  0.90863  0.15897  0.75024  1.0000 0.2599258995
C   C1        1.0  0.09057  0.75749  0.52930  1.0000 0.072731914
C   C2        1.0  0.16595  0.78892  0.57328  1.0000 -0.1692911128
C   C3        1.0  0.20660  0.81083  0.54540  1.0000 0.1003810793
C   C4        1.0  0.16900  0.80254  0.47369  1.0000 -0.1601595272
C   C5        1.0  0.09318  0.77152  0.43155  1.0000 0.1003810793
C   C6        1.0  0.83544  0.79491  0.19855  1.0000 0.0904751597
C   C7        1.0  0.82430  0.82903  0.15717  1.0000 -0.1601595272
C   C8        1.0  0.75455  0.80742  0.09831  1.0000 0.1003810793
C   C9        1.0  0.69775  0.75139  0.08398  1.0000 -0.1692911128
C   C10       1.0  0.71118  0.72028  0.12821  1.0000 0.0904751597
C   C11       1.0  0.45875  0.57642  0.61254  1.0000 0.1097421626
C   C12       1.0  0.50298  0.56177  0.58488  1.0000 -0.1426101462
C   C13       1.0  0.47250  0.51275  0.50704  1.0000 0.1003810793
C   C14       1.0  0.39780  0.48165  0.45826  1.0000 -0.1784690547
C   C15       1.0  0.35547  0.49601  0.48870  1.0000 0.072731914
C   C16       1.0  0.72815  0.56081  0.97060  1.0000 0.072731914
C   C17       1.0  0.71552  0.59209  0.92649  1.0000 -0.1692911128
C   C18       1.0  0.76519  0.66064  0.95430  1.0000 0.1003810793
C   C19       1.0  0.82856  0.69494  0.02609  1.0000 -0.1601595272
C   C20       1.0  0.83977  0.66139  0.06835  1.0000 0.1003810793
C   C21       1.0  0.09655  0.63693  0.30165  1.0000 0.0904751597
C   C22       1.0  0.17205  0.66722  0.34309  1.0000 -0.1601595272
C   C23       1.0  0.20930  0.65639  0.40201  1.0000 0.1003810793
C   C24       1.0  0.16758  0.61390  0.41631  1.0000 -0.1692911128
C   C25       1.0  0.09224  0.58304  0.37202  1.0000 0.0904751597
C   C26       1.0  0.46343  0.84603  0.88676  1.0000 0.1097421626
C   C27       1.0  0.47633  0.91789  0.91433  1.0000 -0.1426101462
C   C28       1.0  0.50504  0.96529  0.99214  1.0000 0.1003810793
C   C29       1.0  0.52266  0.93941  0.04097  1.0000 -0.1784690547
C   C30       1.0  0.50669  0.86667  0.01062  1.0000 0.072731914
C   C31       1.0  0.75638  0.72714  0.66643  1.0000 0.072731914
C   C32       1.0  0.78831  0.71468  0.62295  1.0000 -0.1692911128
C   C33       1.0  0.81151  0.76505  0.60513  1.0000 0.1097421626
C   C34       1.0  0.80321  0.82856  0.63473  1.0000 -0.1601595272
C   C35       1.0  0.77218  0.83970  0.67950  1.0000 0.1003810793
C   C36       1.0  0.79418  0.09623  0.95945  1.0000 0.0904751597
C   C37       1.0  0.82838  0.17173  0.00464  1.0000 -0.1692911128
C   C38       1.0  0.80674  0.20910  0.05267  1.0000 0.1003810793
C   C39       1.0  0.75062  0.16757  0.05345  1.0000 -0.1692911128
C   C40       1.0  0.71924  0.09220  0.00877  1.0000 0.0904751597
C   C41       1.0  0.57470  0.46285  0.11773  1.0000 0.1003810793
C   C42       1.0  0.56166  0.47508  0.05864  1.0000 -0.1426101462
C   C43       1.0  0.51368  0.50459  0.03914  1.0000 0.1003810793
C   C44       1.0  0.48067  0.52226  0.08077  1.0000 -0.1784690547
C   C45       1.0  0.49330  0.50674  0.13767  1.0000 0.0800923152
C   C46       1.0  0.56047  0.08984  0.83278  1.0000 0.072731914
C   C47       1.0  0.59154  0.16525  0.87634  1.0000 -0.1692911128
C   C48       1.0  0.66013  0.20626  0.89500  1.0000 0.1097421626
C   C49       1.0  0.69441  0.16834  0.86612  1.0000 -0.1601595272
C   C50       1.0  0.66076  0.09256  0.82129  1.0000 0.1003810793
C   C51       1.0  0.63756  0.83481  0.54126  1.0000 0.0904751597
C   C52       1.0  0.66788  0.82378  0.49610  1.0000 -0.1692911128
C   C53       1.0  0.65664  0.75403  0.44753  1.0000 0.1003810793
C   C54       1.0  0.61374  0.69706  0.44621  1.0000 -0.1692911128
C   C55       1.0  0.58304  0.71041  0.49088  1.0000 0.0904751597
C   C56       1.0  0.84464  0.45676  0.38186  1.0000 0.1003810793
C   C57       1.0  0.91595  0.50273  0.44103  1.0000 -0.1426101462
C   C58       1.0  0.96490  0.47418  0.46052  1.0000 0.1003810793
C   C59       1.0  0.94088  0.39953  0.41881  1.0000 -0.1784690547
C   C60       1.0  0.86846  0.35534  0.36182  1.0000 0.0800923152
C   C61       1.0  0.78457  0.75167  0.84610  1.0000 0.072731914
C   C62       1.0  0.80034  0.72157  0.89141  1.0000 -0.1692911128
C   C63       1.0  0.75059  0.69552  0.90848  1.0000 0.1003810793
C   C64       1.0  0.68591  0.70187  0.87978  1.0000 -0.1601595272
C   C65       1.0  0.67245  0.73300  0.83531  1.0000 0.1003810793
C   C66       1.0  0.40170  0.68606  0.52370  1.0000 0.0904751597
C   C67       1.0  0.32636  0.65490  0.48010  1.0000 -0.1601595272
C   C68       1.0  0.29042  0.68848  0.44772  1.0000 0.1003810793
C   C69       1.0  0.33338  0.75332  0.46035  1.0000 -0.1692911128
C   C70       1.0  0.40881  0.78223  0.50372  1.0000 0.1003810793
C   C71       1.0  0.01705  0.90890  0.36648  1.0000 0.1003810793
C   C72       1.0  0.00364  0.92259  0.42532  1.0000 -0.1601595272
C   C73       1.0  0.01441  0.99224  0.47329  1.0000 0.1097421626
C   C74       1.0  0.03725  0.04609  0.45991  1.0000 -0.1692911128
C   C75       1.0  0.05004  0.03022  0.40117  1.0000 0.0904751597
C   C76       1.0  0.40594  0.93748  0.65211  1.0000 0.072731914
C   C77       1.0  0.33055  0.90790  0.60664  1.0000 -0.1692911128
C   C78       1.0  0.28732  0.84193  0.59110  1.0000 0.1003810793
C   C79       1.0  0.32229  0.80668  0.62123  1.0000 -0.1601595272
C   C80       1.0  0.39787  0.83770  0.66584  1.0000 0.1003810793
C   C81       1.0  0.66253  0.87825  0.97674  1.0000 0.0904751597
C   C82       1.0  0.67500  0.84655  0.02039  1.0000 -0.1601595272
C   C83       1.0  0.74093  0.84289  0.05266  1.0000 0.1003810793
C   C84       1.0  0.79308  0.87310  0.03991  1.0000 -0.1692911128
C   C85       1.0  0.77860  0.90512  0.99650  1.0000 0.1003810793
C   C86       1.0  0.04276  0.65093  0.13399  1.0000 0.1003810793
C   C87       1.0  0.99756  0.57870  0.07510  1.0000 -0.1601595272
C   C88       1.0  0.01909  0.54158  0.02692  1.0000 0.1097421626
C   C89       1.0  0.08626  0.57782  0.04018  1.0000 -0.1692911128
C   C90       1.0  0.12919  0.64931  0.09900  1.0000 0.0904751597
C   C91       1.0  0.92846  0.78988  0.52174  1.0000 0.072731914
C   C92       1.0  0.89892  0.80574  0.56772  1.0000 -0.1784690547
C   C93       1.0  0.84316  0.75056  0.55563  1.0000 0.1097421626
C   C94       1.0  0.81812  0.68051  0.49544  1.0000 -0.1498253369
C   C95       1.0  0.84890  0.66690  0.45077  1.0000 0.1003810793
C   C96       1.0  0.87903  0.40164  0.21598  1.0000 0.1003810793
C   C97       1.0  0.84722  0.32626  0.17188  1.0000 -0.1601595272
C   C98       1.0  0.84232  0.29020  0.10163  1.0000 0.1003810793
C   C99       1.0  0.87186  0.33297  0.07918  1.0000 -0.1692911128
C   C100      1.0  0.90406  0.40840  0.12560  1.0000 0.1003810793
C   C101      1.0  0.65148  0.01671  0.60909  1.0000 0.1003810793
C   C102      1.0  0.57905  0.00252  0.58189  1.0000 -0.1601595272
C   C103      1.0  0.54134  0.01316  0.52305  1.0000 0.1097421626
C   C104      1.0  0.57749  0.03700  0.49245  1.0000 -0.1692911128
C   C105      1.0  0.64912  0.05023  0.52097  1.0000 0.0904751597
C   C106      1.0  0.76922  0.40663  0.97926  1.0000 0.072731914
C   C107      1.0  0.73914  0.33112  0.93328  1.0000 -0.1784690547
C   C108      1.0  0.69517  0.28740  0.94459  1.0000 0.1097421626
C   C109      1.0  0.68446  0.32251  0.00409  1.0000 -0.1498253369
C   C110      1.0  0.71548  0.39796  0.04876  1.0000 0.1003810793
C   C111      1.0  0.68557  0.66320  0.28391  1.0000 0.1003810793
C   C112      1.0  0.65431  0.67550  0.32803  1.0000 -0.1601595272
C   C113      1.0  0.68878  0.74062  0.39856  1.0000 0.1003810793
C   C114      1.0  0.75429  0.79241  0.42129  1.0000 -0.1692911128
C   C115      1.0  0.78327  0.77819  0.37485  1.0000 0.1003810793
C   C116      1.0  0.90845  0.04353  0.89169  1.0000 0.1003810793
C   C117      1.0  0.92062  0.99764  0.91818  1.0000 -0.1692911128
C   C118      1.0  0.98934  0.01801  0.97731  1.0000 0.1097421626
C   C119      1.0  0.04649  0.08858  0.01014  1.0000 -0.1784690547
C   C120      1.0  0.03026  0.13056  0.98060  1.0000 0.0904751597
C   C121      1.0  0.90425  0.27242  0.48412  1.0000 0.0800923152
C   C122      1.0  0.82877  0.24249  0.43825  1.0000 -0.1784690547
C   C123      1.0  0.78507  0.19380  0.44529  1.0000 0.1097421626
C   C124      1.0  0.82011  0.17849  0.50071  1.0000 -0.1498253369
C   C125      1.0  0.89548  0.20925  0.54515  1.0000 0.1003810793
C   C126      1.0  0.15993  0.18604  0.78646  1.0000 0.1003810793
C   C127      1.0  0.17236  0.15443  0.83019  1.0000 -0.1498253369
C   C128      1.0  0.23945  0.18592  0.89771  1.0000 0.1003810793
C   C129      1.0  0.29306  0.24869  0.91779  1.0000 -0.1692911128
C   C130      1.0  0.27857  0.27810  0.87174  1.0000 0.1003810793
C   C131      1.0  0.54271  0.41042  0.39316  1.0000 0.1003810793
C   C132      1.0  0.49785  0.42460  0.42055  1.0000 -0.1692911128
C   C133      1.0  0.51868  0.49509  0.47727  1.0000 0.1097421626
C   C134      1.0  0.58449  0.54932  0.50551  1.0000 -0.1692911128
C   C135      1.0  0.62708  0.53288  0.47671  1.0000 0.1003810793
C   C136      1.0  0.28854  0.41943  0.01511  1.0000 0.0800923152
C   C137      1.0  0.30455  0.38989  0.06104  1.0000 -0.1692911128
C   C138      1.0  0.24885  0.33985  0.05476  1.0000 0.1097421626
C   C139      1.0  0.17805  0.32002  0.99995  1.0000 -0.1498253369
C   C140      1.0  0.16431  0.35085  0.95542  1.0000 0.1003810793
C   C141      1.0  0.89957  0.37398  0.71376  1.0000 0.1003810793
C   C142      1.0  0.82423  0.34273  0.67001  1.0000 -0.1498253369
C   C143      1.0  0.78822  0.34172  0.60211  1.0000 0.1003810793
C   C144      1.0  0.83097  0.37470  0.58171  1.0000 -0.1692911128
C   C145      1.0  0.90643  0.40623  0.62780  1.0000 0.1003810793
C   C146      1.0  0.51677  0.14946  0.10611  1.0000 0.1003810793
C   C147      1.0  0.50348  0.07719  0.07867  1.0000 -0.1692911128
C   C148      1.0  0.51713  0.04125  0.02187  1.0000 0.1097421626
C   C149      1.0  0.54304  0.07877  0.99355  1.0000 -0.1692911128
C   C150      1.0  0.55546  0.15019  0.02237  1.0000 0.1003810793
C   C151      1.0  0.26897  0.28723  0.36479  1.0000 0.072731914
C   C152      1.0  0.23804  0.30263  0.40938  1.0000 -0.1692911128
C   C153      1.0  0.19060  0.24663  0.40529  1.0000 0.1097421626
C   C154      1.0  0.17744  0.17627  0.35680  1.0000 -0.1498253369
C   C155      1.0  0.20923  0.16308  0.31316  1.0000 0.1003810793
C   C156      1.0  0.18509  0.89937  0.02511  1.0000 0.1003810793
C   C157      1.0  0.15363  0.82403  0.98138  1.0000 -0.1498253369
C   C158      1.0  0.18610  0.78802  0.94734  1.0000 0.1003810793
C   C159      1.0  0.24978  0.83061  0.95786  1.0000 -0.1692911128
C   C160      1.0  0.27909  0.90605  0.00154  1.0000 0.1003810793
C   C161      1.0  0.41660  0.51621  0.86633  1.0000 0.0904751597
C   C162      1.0  0.42876  0.50264  0.92463  1.0000 -0.1601595272
C   C163      1.0  0.49873  0.51724  0.97609  1.0000 0.1097421626
C   C164      1.0  0.55474  0.54486  0.96731  1.0000 -0.1692911128
C   C165      1.0  0.54021  0.55804  0.90886  1.0000 0.1003810793
C   C166      1.0  0.42277  0.90406  0.13553  1.0000 0.072731914
C   C167      1.0  0.39364  0.82856  0.09100  1.0000 -0.1692911128
C   C168      1.0  0.34145  0.78518  0.09477  1.0000 0.1097421626
C   C169      1.0  0.31928  0.82050  0.14294  1.0000 -0.1498253369
C   C170      1.0  0.34970  0.89594  0.18654  1.0000 0.1003810793
C   C171      1.0  0.37409  0.15986  0.47449  1.0000 0.1003810793
C   C172      1.0  0.34256  0.17211  0.51829  1.0000 -0.1498253369
C   C173      1.0  0.34086  0.23871  0.55264  1.0000 0.1003810793
C   C174      1.0  0.37315  0.29199  0.54238  1.0000 -0.1692911128
C   C175      1.0  0.40484  0.27764  0.49862  1.0000 0.1003810793
C   C176      1.0  0.14937  0.54964  0.63320  1.0000 0.0904751597
C   C177      1.0  0.07750  0.50356  0.57490  1.0000 -0.1601595272
C   C178      1.0  0.04062  0.52222  0.52361  1.0000 0.1097421626
C   C179      1.0  0.07703  0.58710  0.53256  1.0000 -0.1692911128
C   C180      1.0  0.14866  0.63097  0.59102  1.0000 0.1003810793
C   C181      1.0  0.22891  0.26070  0.17260  1.0000 0.0800923152
C   C182      1.0  0.21648  0.29216  0.12868  1.0000 -0.1692911128
C   C183      1.0  0.26350  0.30872  0.10468  1.0000 0.1097421626
C   C184      1.0  0.32374  0.29430  0.12850  1.0000 -0.1601595272
C   C185      1.0  0.33466  0.26333  0.17324  1.0000 0.1097421626
C   C186      1.0  0.59399  0.29705  0.46449  1.0000 0.0904751597
C   C187      1.0  0.66952  0.33132  0.50960  1.0000 -0.1692911128
C   C188      1.0  0.70717  0.30628  0.55329  1.0000 0.1097421626
C   C189      1.0  0.66596  0.24678  0.54995  1.0000 -0.1692911128
C   C190      1.0  0.59060  0.21523  0.50538  1.0000 0.1003810793
C   C191      1.0  0.96259  0.07284  0.61677  1.0000 0.1003810793
C   C192      1.0  0.97313  0.05736  0.55625  1.0000 -0.1498253369
C   C193      1.0  0.00325  0.00958  0.53779  1.0000 0.1097421626
C   C194      1.0  0.02388  0.98003  0.58265  1.0000 -0.1784690547
C   C195      1.0  0.01010  0.99511  0.64108  1.0000 0.0800923152
C   C196      1.0  0.58796  0.05655  0.32854  1.0000 0.072731914
C   C197      1.0  0.66334  0.08799  0.37249  1.0000 -0.1692911128
C   C198      1.0  0.70399  0.15859  0.39549  1.0000 0.1097421626
C   C199      1.0  0.66584  0.19467  0.37073  1.0000 -0.1601595272
C   C200      1.0  0.59013  0.16088  0.32592  1.0000 0.1097421626
C   C201      1.0  0.33200  0.12808  0.03414  1.0000 0.0904751597
C   C202      1.0  0.32121  0.15857  0.98910  1.0000 -0.1692911128
C   C203      1.0  0.25278  0.15364  0.94647  1.0000 0.1003810793
C   C204      1.0  0.19685  0.11684  0.95077  1.0000 -0.1692911128
C   C205      1.0  0.20979  0.08600  0.99529  1.0000 0.1003810793
C   C206      1.0  0.95597  0.34631  0.88330  1.0000 0.1003810793
C   C207      1.0  0.00110  0.41739  0.94374  1.0000 -0.1498253369
C   C208      1.0  0.97186  0.46598  0.96235  1.0000 0.1097421626
C   C209      1.0  0.89745  0.44184  0.91764  1.0000 -0.1784690547
C   C210      1.0  0.85400  0.36961  0.85930  1.0000 0.0800923152
C   C211      1.0  0.05414  0.22653  0.46653  1.0000 0.072731914
C   C212      1.0  0.08489  0.21352  0.42180  1.0000 -0.1692911128
C   C213      1.0  0.15535  0.26086  0.45112  1.0000 0.1097421626
C   C214      1.0  0.19198  0.32137  0.52533  1.0000 -0.1601595272
C   C215      1.0  0.15915  0.33301  0.56814  1.0000 0.1097421626
C   C216      1.0  0.12892  0.59418  0.79714  1.0000 0.0904751597
C   C217      1.0  0.15907  0.66967  0.83844  1.0000 -0.1601595272
C   C218      1.0  0.15378  0.70708  0.90169  1.0000 0.1003810793
C   C219      1.0  0.11643  0.66580  0.92026  1.0000 -0.1692911128
C   C220      1.0  0.08566  0.59044  0.87626  1.0000 0.0904751597
C   C221      1.0  0.34636  0.96302  0.39075  1.0000 0.1003810793
C   C222      1.0  0.41743  0.97352  0.41686  1.0000 -0.1498253369
C   C223      1.0  0.46530  0.00098  0.49428  1.0000 0.1097421626
C   C224      1.0  0.44001  0.01816  0.54384  1.0000 -0.1784690547
C   C225      1.0  0.36792  0.00488  0.51485  1.0000 0.0800923152
C   C226      1.0  0.25960  0.58740  0.03315  1.0000 0.072731914
C   C227      1.0  0.29133  0.66288  0.07795  1.0000 -0.1692911128
C   C228      1.0  0.30984  0.70410  0.04889  1.0000 0.1097421626
C   C229      1.0  0.29665  0.66658  0.97490  1.0000 -0.1601595272
C   C230      1.0  0.26546  0.59093  0.93202  1.0000 0.1097421626
C   C231      1.0  0.29745  0.33153  0.70314  1.0000 0.0904751597
C   C232      1.0  0.33167  0.32045  0.66185  1.0000 -0.1692911128
C   C233      1.0  0.30560  0.25201  0.59832  1.0000 0.1003810793
C   C234      1.0  0.24551  0.19614  0.57947  1.0000 -0.1692911128
C   C235      1.0  0.21412  0.20932  0.62343  1.0000 0.0904751597
C   C236      1.0  0.07219  0.95543  0.10912  1.0000 0.1003810793
C   C237      1.0  0.05649  0.00034  0.08295  1.0000 -0.1498253369
C   C238      1.0  0.00576  0.97062  0.00577  1.0000 0.1003810793
C   C239      1.0  0.97279  0.89576  0.95638  1.0000 -0.1692911128
C   C240      1.0  0.98877  0.85273  0.98539  1.0000 0.0800923152
S   S1        1.0  0.91102  0.72957  0.31347  1.0000 -0.4602339483
S   S2        1.0  0.35554  0.48916  0.66810  1.0000 -0.4602339483
S   S3        1.0  0.91622  0.59750  0.18663  1.0000 -0.4602339483
S   S4        1.0  0.32079  0.68688  0.83157  1.0000 -0.4602339483
S   S5        1.0  0.72895  0.91599  0.81871  1.0000 -0.4602339483
S   S6        1.0  0.52360  0.33040  0.18077  1.0000 -0.4064307087
S   S7        1.0  0.59763  0.91025  0.68153  1.0000 -0.4602339483
S   S8        1.0  0.64904  0.34261  0.31851  1.0000 -0.4064307087
S   S9        1.0  0.58658  0.73222  0.65372  1.0000 -0.4940251806
S   S10       1.0  0.18172  0.02013  0.36045  1.0000 -0.4544779384
S   S11       1.0  0.57863  0.93279  0.84634  1.0000 -0.4940251806
S   S12       1.0  0.15962  0.82153  0.13969  1.0000 -0.4544779384
S   S13       1.0  0.93338  0.58644  0.35378  1.0000 -0.4985724165
S   S14       1.0  0.82151  0.18160  0.66102  1.0000 -0.4602339483
S   S15       1.0  0.73280  0.57954  0.14638  1.0000 -0.4985724165
S   S16       1.0  0.02074  0.16143  0.83944  1.0000 -0.4602339483
S   S17       1.0  0.07744  0.23062  0.64624  1.0000 -0.4985724165
S   S18       1.0  0.65785  0.51977  0.33641  1.0000 -0.4602339483
S   S19       1.0  0.08444  0.43100  0.85362  1.0000 -0.4985724165
S   S20       1.0  0.68289  0.32133  0.16296  1.0000 -0.4602339483
S   S21       1.0  0.23048  0.08399  0.15294  1.0000 -0.4985724165
S   S22       1.0  0.48288  0.67845  0.82171  1.0000 -0.4032553905
S   S23       1.0  0.43105  0.07751  0.34696  1.0000 -0.4985724165
S   S24       1.0  0.35615  0.66087  0.67777  1.0000 -0.4032553905
S   S25       1.0  0.41391  0.22767  0.31874  1.0000 -0.4602339483
S   S26       1.0  0.83286  0.02456  0.68314  1.0000 -0.4064307087
S   S27       1.0  0.40882  0.09501  0.18104  1.0000 -0.4602339483
S   S28       1.0  0.84169  0.15046  0.81772  1.0000 -0.4064307087
S   S29       1.0  0.09546  0.41419  0.68611  1.0000 -0.4602339483
S   S30       1.0  0.14923  0.83179  0.30788  1.0000 -0.4032553905
S   S31       1.0  0.22811  0.40918  0.81368  1.0000 -0.4602339483
S   S32       1.0  0.02396  0.84134  0.19253  1.0000 -0.4032553905
I   I1        1.0  0.18770  0.47188  0.49583  1.0000 -0.5322295078
I   I2        1.0  0.47645  0.69201  0.00390  1.0000 -0.5322295078
I   I3        1.0  0.46689  0.47030  0.27939  1.0000 -0.4985724165
I   I4        1.0  0.69033  0.18729  0.21977  1.0000 -0.4985724165
I   I5        1.0  0.00038  0.01545  0.21186  1.0000 -0.5322295078
I   I6        1.0  0.30376  0.78863  0.28807  1.0000 -0.5322295078
I   I7        1.0  0.78790  0.00002  0.48456  1.0000 -0.5322295078
I   I8        1.0  0.01572  0.30457  0.01599  1.0000 -0.5322295078
I   I9        1.0  0.80337  0.51988  0.51481  1.0000 -0.5322295078
I   I10       1.0  0.50456  0.28860  0.98456  1.0000 -0.5322295078
I   I11       1.0  0.54042  0.52695  0.73054  1.0000 -0.4940251806
I   I12       1.0  0.29560  0.80933  0.76966  1.0000 -0.4940251806
I   I13       1.0  0.97702  0.97288  0.78610  1.0000 -0.4985724165
I   I14       1.0  0.68667  0.19121  0.71494  1.0000 -0.4985724165
I   I15       1.0  0.19040  0.97631  0.50410  1.0000 -0.4985724165
I   I16       1.0  0.97218  0.68627  0.99624  1.0000 -0.4985724165
N   N1        1.0  0.05518  0.74876  0.45937  1.0000 -0.217931759
N   N2        1.0  0.77932  0.74149  0.18389  1.0000 -0.1995303393
N   N3        1.0  0.38638  0.54079  0.56510  1.0000 -0.1995303393
N   N4        1.0  0.78933  0.59553  0.04059  1.0000 -0.217931759
N   N5        1.0  0.05778  0.59546  0.31629  1.0000 -0.1995303393
N   N6        1.0  0.47522  0.82116  0.93426  1.0000 -0.1995303393
N   N7        1.0  0.74869  0.78887  0.69409  1.0000 -0.217931759
N   N8        1.0  0.74056  0.05760  0.96200  1.0000 -0.1995303393
N   N9        1.0  0.53841  0.47597  0.15358  1.0000 -0.217931759
N   N10       1.0  0.59494  0.05449  0.80591  1.0000 -0.217931759
N   N11       1.0  0.59576  0.77858  0.53815  1.0000 -0.1995303393
N   N12       1.0  0.82184  0.38460  0.34590  1.0000 -0.217931759
N   N13       1.0  0.72141  0.75706  0.81886  1.0000 -0.2276408472
N   N14       1.0  0.44165  0.74870  0.53497  1.0000 -0.2276408472
N   N15       1.0  0.04017  0.96289  0.35604  1.0000 -0.1995303393
N   N16       1.0  0.43847  0.90238  0.68097  1.0000 -0.2276408472
N   N17       1.0  0.71384  0.90677  0.96532  1.0000 -0.2276408472
N   N18       1.0  0.10709  0.68451  0.14428  1.0000 -0.1995303393
N   N19       1.0  0.90352  0.72124  0.46451  1.0000 -0.2276408472
N   N20       1.0  0.90659  0.44143  0.19249  1.0000 -0.217931759
N   N21       1.0  0.68474  0.04027  0.57824  1.0000 -0.1995303393
N   N22       1.0  0.75689  0.43888  0.03573  1.0000 -0.2276408472
N   N23       1.0  0.74912  0.71405  0.30767  1.0000 -0.217931759
N   N24       1.0  0.96286  0.10786  0.92293  1.0000 -0.1995303393
N   N25       1.0  0.93639  0.25512  0.53611  1.0000 -0.2276408472
N   N26       1.0  0.21251  0.24696  0.80758  1.0000 -0.217931759
N   N27       1.0  0.60598  0.46469  0.42174  1.0000 -0.1995303393
N   N28       1.0  0.21921  0.40017  0.96377  1.0000 -0.2276408472
N   N29       1.0  0.93941  0.40485  0.69230  1.0000 -0.217931759
N   N30       1.0  0.54239  0.18413  0.07746  1.0000 -0.1995303393
N   N31       1.0  0.25389  0.21819  0.31721  1.0000 -0.2276408472
N   N32       1.0  0.24687  0.93910  0.03475  1.0000 -0.217931759
N   N33       1.0  0.47211  0.54276  0.85940  1.0000 -0.217931759
N   N34       1.0  0.40099  0.93657  0.18276  1.0000 -0.2276408472
N   N35       1.0  0.40441  0.21211  0.46511  1.0000 -0.217931759
N   N36       1.0  0.18286  0.61218  0.64032  1.0000 -0.217931759
N   N37       1.0  0.28706  0.24642  0.19393  1.0000 -0.217931759
N   N38       1.0  0.55567  0.23974  0.46260  1.0000 -0.2074962848
N   N39       1.0  0.97824  0.03945  0.65556  1.0000 -0.217931759
N   N40       1.0  0.55245  0.09299  0.30614  1.0000 -0.2074962848
N   N41       1.0  0.27685  0.09280  0.03710  1.0000 -0.2074962848
N   N42       1.0  0.88378  0.32321  0.84476  1.0000 -0.217931759
N   N43       1.0  0.09126  0.28548  0.53861  1.0000 -0.217931759
N   N44       1.0  0.09318  0.55572  0.81648  1.0000 -0.2074962848
N   N45       1.0  0.32245  0.97622  0.43914  1.0000 -0.217931759
N   N46       1.0  0.24694  0.55251  0.96127  1.0000 -0.217931759
N   N47       1.0  0.23937  0.27653  0.68346  1.0000 -0.2074962848
N   N48       1.0  0.03653  0.88310  0.06096  1.0000 -0.217931759
