# DDEC6 charges by PACMAN v1.1 (https://github.com/mtap-research/PACMAN-charge/)
data_2004[Eu][nan]3[ION]1
_chemical_formula_sum              "Eu6 H192 C248 S8 N48 Cl16 O72 F24"
_cell_length_a       24.1412
_cell_length_b       24.3031
_cell_length_c       24.4706
_cell_angle_alpha    84.434
_cell_angle_beta     118.258
_cell_angle_gamma    118.506

_symmetry_space_group_name_H-M    "P 1"
_symmetry_Int_Tables_number       1

loop_
  _symmetry_equiv_pos_as_xyz
  'x, y, z'

loop_
  _atom_site_type_symbol
  _atom_site_label
  _atom_site_symmetry_multiplicity
  _atom_site_fract_x
  _atom_site_fract_y
  _atom_site_fract_z
  _atom_site_occupancy
  _atom_site_charge
Eu  Eu1       1.0  0.14312  0.84933  0.70415  1.0000 1.9731195542
Eu  Eu2       1.0  0.85688  0.15067  0.29585  1.0000 1.9731195542
Eu  Eu3       1.0  0.24727  0.71832  0.26645  1.0000 1.9596111748
Eu  Eu4       1.0  0.75273  0.28168  0.73355  1.0000 1.9596111748
Eu  Eu5       1.0  0.65886  0.72143  0.86352  1.0000 1.9794719788
Eu  Eu6       1.0  0.34114  0.27857  0.13648  1.0000 1.9794719788
H   H1        1.0  0.23040  0.00550  0.63470  1.0000 0.13019483
H   H2        1.0  0.76960  0.99450  0.36530  1.0000 0.13019483
H   H3        1.0  0.56070  0.10030  0.66330  1.0000 0.139603485
H   H4        1.0  0.43930  0.89970  0.33670  1.0000 0.139603485
H   H5        1.0  0.44060  0.82750  0.42260  1.0000 0.13019483
H   H6        1.0  0.55940  0.17250  0.57740  1.0000 0.13019483
H   H7        1.0  0.75600  0.40250  0.60760  1.0000 0.139603485
H   H8        1.0  0.24400  0.59750  0.39240  1.0000 0.139603485
H   H9        1.0  0.44480  0.05370  0.65070  1.0000 0.1487017142
H   H10       1.0  0.55520  0.94630  0.34930  1.0000 0.1487017142
H   H11       1.0  0.13970  0.66000  0.36380  1.0000 0.139603485
H   H12       1.0  0.86030  0.34000  0.63620  1.0000 0.139603485
H   H13       1.0  0.89070  0.46860  0.79020  1.0000 0.1194274724
H   H14       1.0  0.10930  0.53140  0.20980  1.0000 0.1194274724
H   H15       1.0  0.52820  0.16790  0.81020  1.0000 0.1487017142
H   H16       1.0  0.47180  0.83210  0.18980  1.0000 0.1487017142
H   H17       1.0  0.36760  0.64420  0.38120  1.0000 0.13019483
H   H18       1.0  0.63240  0.35580  0.61880  1.0000 0.13019483
H   H19       1.0  0.64130  0.21250  0.81930  1.0000 0.1194274724
H   H20       1.0  0.35870  0.78750  0.18070  1.0000 0.1194274724
H   H21       1.0  0.24880  0.82720  0.13950  1.0000 0.13019483
H   H22       1.0  0.75120  0.17280  0.86050  1.0000 0.13019483
H   H23       1.0  0.14020  0.80820  0.17870  1.0000 0.1194274724
H   H24       1.0  0.85980  0.19180  0.82130  1.0000 0.1194274724
H   H25       1.0  0.24410  0.91530  0.61040  1.0000 0.13019483
H   H26       1.0  0.75590  0.08470  0.38960  1.0000 0.13019483
H   H27       1.0  0.06170  0.79500  0.81690  1.0000 0.1194274724
H   H28       1.0  0.93830  0.20500  0.18310  1.0000 0.1194274724
H   H29       1.0  0.36460  0.91350  0.80930  1.0000 0.13019483
H   H30       1.0  0.63540  0.08650  0.19070  1.0000 0.13019483
H   H31       1.0  0.33950  0.06190  0.63450  1.0000 0.139603485
H   H32       1.0  0.66050  0.93810  0.36550  1.0000 0.139603485
H   H33       1.0  0.10050  0.70440  0.79550  1.0000 0.1194274724
H   H34       1.0  0.89950  0.29560  0.20450  1.0000 0.1194274724
H   H35       1.0  0.97030  0.69510  0.57300  1.0000 0.139603485
H   H36       1.0  0.02970  0.30490  0.42700  1.0000 0.139603485
H   H37       1.0  0.88980  0.59830  0.58330  1.0000 0.1487017142
H   H38       1.0  0.11020  0.40170  0.41670  1.0000 0.1487017142
H   H39       1.0  0.95890  0.83700  0.55430  1.0000 0.139603485
H   H40       1.0  0.04110  0.16300  0.44570  1.0000 0.139603485
H   H41       1.0  0.33190  0.00960  0.81870  1.0000 0.13019483
H   H42       1.0  0.66810  0.99040  0.18130  1.0000 0.13019483
H   H43       1.0  0.29390  0.83950  0.98090  1.0000 0.139603485
H   H44       1.0  0.70610  0.16050  0.01910  1.0000 0.139603485
H   H45       1.0  0.29410  0.85610  0.88660  1.0000 0.139603485
H   H46       1.0  0.70590  0.14390  0.11340  1.0000 0.139603485
H   H47       1.0  0.44320  0.06720  0.82310  1.0000 0.1487017142
H   H48       1.0  0.55680  0.93280  0.17690  1.0000 0.1487017142
H   H49       1.0  0.35250  0.25460  0.98560  1.0000 0.139603485
H   H50       1.0  0.64750  0.74540  0.01440  1.0000 0.139603485
H   H51       1.0  0.46380  0.63760  0.69180  1.0000 0.1487017142
H   H52       1.0  0.53620  0.36240  0.30820  1.0000 0.1487017142
H   H53       1.0  0.98660  0.73820  0.16810  1.0000 0.139603485
H   H54       1.0  0.01340  0.26180  0.83190  1.0000 0.139603485
H   H55       1.0  0.36130  0.67970  0.75360  1.0000 0.139603485
H   H56       1.0  0.63870  0.32030  0.24640  1.0000 0.139603485
H   H57       1.0  0.08080  0.72580  0.25060  1.0000 0.139603485
H   H58       1.0  0.91920  0.27420  0.74940  1.0000 0.139603485
H   H59       1.0  0.88240  0.79550  0.97770  1.0000 0.1087455449
H   H60       1.0  0.11760  0.20450  0.02230  1.0000 0.1087455449
H   H61       1.0  0.26230  0.33800  0.20860  1.0000 0.1194274724
H   H62       1.0  0.73770  0.66200  0.79140  1.0000 0.1194274724
H   H63       1.0  0.41550  0.63600  0.48610  1.0000 0.1487017142
H   H64       1.0  0.58450  0.36400  0.51390  1.0000 0.1487017142
H   H65       1.0  0.19250  0.57510  0.14300  1.0000 0.13019483
H   H66       1.0  0.80750  0.42490  0.85700  1.0000 0.13019483
H   H67       1.0  0.30090  0.72690  0.70540  1.0000 0.139603485
H   H68       1.0  0.69910  0.27310  0.29460  1.0000 0.139603485
H   H69       1.0  0.24150  0.42410  0.20330  1.0000 0.139603485
H   H70       1.0  0.75850  0.57590  0.79670  1.0000 0.139603485
H   H71       1.0  0.41810  0.63530  0.58370  1.0000 0.1487017142
H   H72       1.0  0.58190  0.36470  0.41630  1.0000 0.1487017142
H   H73       1.0  0.98480  0.80780  0.83900  1.0000 0.13019483
H   H74       1.0  0.01520  0.19220  0.16100  1.0000 0.13019483
H   H75       1.0  0.46680  0.45680  0.25050  1.0000 0.1487017142
H   H76       1.0  0.53320  0.54320  0.74950  1.0000 0.1487017142
H   H77       1.0  0.84130  0.76240  0.65360  1.0000 0.1604130502
H   H78       1.0  0.15870  0.23760  0.34640  1.0000 0.1604130502
H   H79       1.0  0.16890  0.99210  0.11420  1.0000 0.13019483
H   H80       1.0  0.83110  0.00790  0.88580  1.0000 0.13019483
H   H81       1.0  0.39590  0.69540  0.26600  1.0000 0.13019483
H   H82       1.0  0.60410  0.30460  0.73400  1.0000 0.13019483
H   H83       1.0  0.68470  0.74640  0.71220  1.0000 0.139603485
H   H84       1.0  0.31530  0.25360  0.28780  1.0000 0.139603485
H   H85       1.0  0.83620  0.48530  0.58310  1.0000 0.1487017142
H   H86       1.0  0.16380  0.51470  0.41690  1.0000 0.1487017142
H   H87       1.0  0.85270  0.85510  0.87480  1.0000 0.1194274724
H   H88       1.0  0.14730  0.14490  0.12520  1.0000 0.1194274724
H   H89       1.0  0.50470  0.83310  0.88890  1.0000 0.139603485
H   H90       1.0  0.49530  0.16690  0.11110  1.0000 0.139603485
H   H91       1.0  0.93220  0.85010  0.84850  1.0000 0.1194274724
H   H92       1.0  0.06780  0.14990  0.15150  1.0000 0.1194274724
H   H93       1.0  0.30880  0.05640  0.94000  1.0000 0.1604130502
H   H94       1.0  0.69120  0.94360  0.06000  1.0000 0.1604130502
H   H95       1.0  0.19600  0.08370  0.07170  1.0000 0.1194274724
H   H96       1.0  0.80400  0.91630  0.92830  1.0000 0.1194274724
H   H97       1.0  0.27360  0.88080  0.54900  1.0000 0.1487017142
H   H98       1.0  0.72640  0.11920  0.45100  1.0000 0.1487017142
H   H99       1.0  0.32470  0.16730  0.92450  1.0000 0.1604130502
H   H100      1.0  0.67530  0.83270  0.07550  1.0000 0.1604130502
H   H101      1.0  0.94340  0.59460  0.05760  1.0000 0.13019483
H   H102      1.0  0.05660  0.40540  0.94240  1.0000 0.13019483
H   H103      1.0  0.11300  0.99810  0.67610  1.0000 0.139603485
H   H104      1.0  0.88700  0.00190  0.32390  1.0000 0.13019483
H   H105      1.0  0.76180  0.74100  0.68280  1.0000 0.1604130502
H   H106      1.0  0.23820  0.25900  0.31720  1.0000 0.1604130502
H   H107      1.0  0.44110  0.64100  0.79550  1.0000 0.139603485
H   H108      1.0  0.55890  0.35900  0.20450  1.0000 0.139603485
H   H109      1.0  0.97620  0.55060  0.76750  1.0000 0.13019483
H   H110      1.0  0.02380  0.44940  0.23250  1.0000 0.13019483
H   H111      1.0  0.10710  0.02450  0.81590  1.0000 0.13019483
H   H112      1.0  0.89290  0.97550  0.18410  1.0000 0.13019483
H   H113      1.0  0.06480  0.74710  0.44770  1.0000 0.1487017142
H   H114      1.0  0.93520  0.25290  0.55230  1.0000 0.1487017142
H   H115      1.0  0.43800  0.86840  0.85660  1.0000 0.139603485
H   H116      1.0  0.56200  0.13160  0.14340  1.0000 0.139603485
H   H117      1.0  0.15900  0.89940  0.13500  1.0000 0.13019483
H   H118      1.0  0.84100  0.10060  0.86500  1.0000 0.13019483
H   H119      1.0  0.34760  0.99710  0.29690  1.0000 0.1487017142
H   H120      1.0  0.65240  0.00290  0.70310  1.0000 0.1487017142
H   H121      1.0  0.15810  0.15900  0.97310  1.0000 0.1194274724
H   H122      1.0  0.84190  0.84100  0.02690  1.0000 0.1194274724
H   H123      1.0  0.29200  0.86240  0.48180  1.0000 0.1487017142
H   H124      1.0  0.70800  0.13760  0.51820  1.0000 0.1487017142
H   H125      1.0  0.32680  0.82010  0.43120  1.0000 0.13019483
H   H126      1.0  0.67320  0.17990  0.56880  1.0000 0.13019483
H   H127      1.0  0.40580  0.15230  0.18860  1.0000 0.139603485
H   H128      1.0  0.59420  0.84770  0.81140  1.0000 0.139603485
H   H129      1.0  0.10140  0.69800  0.41400  1.0000 0.13019483
H   H130      1.0  0.89860  0.30200  0.58600  1.0000 0.13019483
H   H131      1.0  0.58440  0.79410  0.93010  1.0000 0.1194274724
H   H132      1.0  0.41560  0.20590  0.06990  1.0000 0.13019483
H   H133      1.0  0.08780  0.05560  0.59480  1.0000 0.139603485
H   H134      1.0  0.91220  0.94440  0.40520  1.0000 0.139603485
H   H135      1.0  0.32370  0.90300  0.33830  1.0000 0.139603485
H   H136      1.0  0.67630  0.09700  0.66170  1.0000 0.139603485
H   H137      1.0  0.05890  0.58590  0.72460  1.0000 0.139603485
H   H138      1.0  0.94110  0.41410  0.27540  1.0000 0.139603485
H   H139      1.0  0.25920  0.84170  0.04890  1.0000 0.1487017142
H   H140      1.0  0.74080  0.15830  0.95110  1.0000 0.1487017142
H   H141      1.0  0.13730  0.68120  0.71070  1.0000 0.139603485
H   H142      1.0  0.86270  0.31880  0.28930  1.0000 0.139603485
H   H143      1.0  0.27950  0.96090  0.89440  1.0000 0.139603485
H   H144      1.0  0.72050  0.03910  0.10560  1.0000 0.139603485
H   H145      1.0  0.09830  0.68410  0.88980  1.0000 0.13019483
H   H146      1.0  0.90170  0.31590  0.11020  1.0000 0.13019483
H   H147      1.0  0.03760  0.78510  0.50790  1.0000 0.139603485
H   H148      1.0  0.96240  0.21490  0.49210  1.0000 0.139603485
H   H149      1.0  0.08190  0.93160  0.76860  1.0000 0.13019483
H   H150      1.0  0.91810  0.06840  0.23140  1.0000 0.13019483
H   H151      1.0  0.92240  0.75300  0.63390  1.0000 0.139603485
H   H152      1.0  0.07760  0.24700  0.36610  1.0000 0.139603485
H   H153      1.0  0.23040  0.77550  0.66220  1.0000 0.13019483
H   H154      1.0  0.76960  0.22450  0.33780  1.0000 0.13019483
H   H155      1.0  0.13010  0.07210  0.91300  1.0000 0.13019483
H   H156      1.0  0.86990  0.92790  0.08700  1.0000 0.13019483
H   H157      1.0  0.49250  0.82330  0.52860  1.0000 0.1487017142
H   H158      1.0  0.50750  0.17670  0.47140  1.0000 0.1487017142
H   H159      1.0  0.38220  0.06350  0.23700  1.0000 0.1487017142
H   H160      1.0  0.61780  0.93650  0.76300  1.0000 0.1487017142
H   H161      1.0  0.62070  0.81530  0.72350  1.0000 0.1194274724
H   H162      1.0  0.37930  0.18470  0.27650  1.0000 0.1194274724
H   H163      1.0  0.57830  0.81470  0.61670  1.0000 0.139603485
H   H164      1.0  0.42170  0.18530  0.38330  1.0000 0.139603485
H   H165      1.0  0.67720  0.62610  0.00310  1.0000 0.13019483
H   H166      1.0  0.32280  0.37390  0.99690  1.0000 0.13019483
H   H167      1.0  0.43450  0.48370  0.89420  1.0000 0.139603485
H   H168      1.0  0.56550  0.51630  0.10580  1.0000 0.1487017142
H   H169      1.0  0.21910  0.49450  0.14900  1.0000 0.139603485
H   H170      1.0  0.78090  0.50550  0.85100  1.0000 0.139603485
H   H171      1.0  0.11340  0.64330  0.07330  1.0000 0.1194274724
H   H172      1.0  0.88660  0.35670  0.92670  1.0000 0.1194274724
H   H173      1.0  0.44750  0.54310  0.24370  1.0000 0.139603485
H   H174      1.0  0.55250  0.45690  0.75630  1.0000 0.139603485
H   H175      1.0  0.42630  0.61420  0.27710  1.0000 0.1487017142
H   H176      1.0  0.57370  0.38580  0.72290  1.0000 0.1487017142
H   H177      1.0  0.03690  0.58520  0.14210  1.0000 0.1194274724
H   H178      1.0  0.96310  0.41480  0.85790  1.0000 0.1194274724
H   H179      1.0  0.74530  0.60900  0.92350  1.0000 0.13019483
H   H180      1.0  0.25470  0.39100  0.07650  1.0000 0.13019483
H   H181      1.0  0.82440  0.58910  0.01130  1.0000 0.139603485
H   H182      1.0  0.17560  0.41090  0.98870  1.0000 0.139603485
H   H183      1.0  0.49650  0.53830  0.84180  1.0000 0.139603485
H   H184      1.0  0.50350  0.46170  0.15820  1.0000 0.1487017142
H   H185      1.0  0.61660  0.57110  0.05800  1.0000 0.1487017142
H   H186      1.0  0.38340  0.42890  0.94200  1.0000 0.139603485
H   H187      1.0  0.12830  0.65360  0.98390  1.0000 0.139603485
H   H188      1.0  0.87170  0.34640  0.01610  1.0000 0.139603485
H   H189      1.0  0.93370  0.89480  0.47340  1.0000 0.139603485
H   H190      1.0  0.06630  0.10520  0.52660  1.0000 0.139603485
H   H191      1.0  0.96100  0.77760  0.06880  1.0000 0.139603485
H   H192      1.0  0.03900  0.22240  0.93120  1.0000 0.139603485
C   C1        1.0  0.27420  0.01740  0.67290  1.0000 -0.0501062912
C   C2        1.0  0.72580  0.98260  0.32710  1.0000 -0.0501062912
C   C3        1.0  0.55350  0.11340  0.69370  1.0000 -0.0203935479
C   C4        1.0  0.44650  0.88660  0.30630  1.0000 -0.0203935479
C   C5        1.0  0.43590  0.78830  0.43610  1.0000 -0.0128670114
C   C6        1.0  0.56410  0.21170  0.56390  1.0000 -0.0128670114
C   C7        1.0  0.80070  0.43390  0.64030  1.0000 -0.0203935479
C   C8        1.0  0.19930  0.56610  0.35970  1.0000 -0.0203935479
C   C9        1.0  0.47430  0.10300  0.73110  1.0000 0.0992791216
C   C10       1.0  0.52570  0.89700  0.26890  1.0000 0.0992791216
C   C11       1.0  0.48470  0.08510  0.68630  1.0000 -0.1492374411
C   C12       1.0  0.51530  0.91490  0.31370  1.0000 -0.1492374411
C   C13       1.0  0.17110  0.70100  0.38900  1.0000 -0.0406268005
C   C14       1.0  0.82890  0.29900  0.61100  1.0000 -0.0406268005
C   C15       1.0  0.87990  0.47210  0.74770  1.0000 -0.0203935479
C   C16       1.0  0.12010  0.52790  0.25230  1.0000 -0.0203935479
C   C17       1.0  0.53420  0.15260  0.78020  1.0000 -0.169028118
C   C18       1.0  0.46580  0.84740  0.21980  1.0000 -0.169028118
C   C19       1.0  0.39280  0.68070  0.41190  1.0000 -0.0305507105
C   C20       1.0  0.60720  0.31930  0.58810  1.0000 -0.0305507105
C   C21       1.0  0.60100  0.17930  0.78540  1.0000 -0.0501062912
C   C22       1.0  0.39900  0.82070  0.21460  1.0000 -0.0501062912
C   C23       1.0  0.22290  0.79230  0.10680  1.0000 -0.0582049597
C   C24       1.0  0.77710  0.20770  0.89320  1.0000 -0.0582049597
C   C25       1.0  0.18270  0.84720  0.20230  1.0000 -0.0501062912
C   C26       1.0  0.81730  0.15280  0.79770  1.0000 -0.0501062912
C   C27       1.0  0.20750  0.88080  0.57660  1.0000 -0.0305507105
C   C28       1.0  0.79250  0.11920  0.42340  1.0000 -0.0305507105
C   C29       1.0  0.19620  0.76100  0.94560  1.0000 0.0992791216
C   C30       1.0  0.80380  0.23900  0.05440  1.0000 0.0992791216
C   C31       1.0  0.01640  0.78870  0.78360  1.0000 -0.0501062912
C   C32       1.0  0.98360  0.21130  0.21640  1.0000 -0.0501062912
C   C33       1.0  0.35200  0.87510  0.78850  1.0000 -0.0128670114
C   C34       1.0  0.64800  0.12490  0.21150  1.0000 -0.0128670114
C   C35       1.0  0.33880  0.05120  0.67270  1.0000 -0.169028118
C   C36       1.0  0.66120  0.94880  0.32730  1.0000 -0.169028118
C   C37       1.0  0.13990  0.73210  0.83380  1.0000 -0.0305507105
C   C38       1.0  0.86010  0.26790  0.16620  1.0000 -0.0305507105
C   C39       1.0  0.98790  0.67270  0.60470  1.0000 -0.0203935479
C   C40       1.0  0.01210  0.32730  0.39530  1.0000 -0.0203935479
C   C41       1.0  0.94020  0.61590  0.61120  1.0000 -0.1492374411
C   C42       1.0  0.05980  0.38410  0.38880  1.0000 -0.1492374411
C   C43       1.0  0.98560  0.88210  0.56280  1.0000 -0.0203935479
C   C44       1.0  0.01440  0.11790  0.43720  1.0000 -0.0203935479
C   C45       1.0  0.33410  0.02010  0.78110  1.0000 -0.0128670114
C   C46       1.0  0.66590  0.97990  0.21890  1.0000 -0.0128670114
C   C47       1.0  0.25350  0.81130  0.94330  1.0000 -0.1492374411
C   C48       1.0  0.74650  0.18870  0.05670  1.0000 -0.1492374411
C   C49       1.0  0.96580  0.58330  0.65920  1.0000 0.1087455449
C   C50       1.0  0.03420  0.41670  0.34080  1.0000 0.1087455449
C   C51       1.0  0.25340  0.82130  0.88740  1.0000 -0.0128670114
C   C52       1.0  0.74660  0.17870  0.11260  1.0000 -0.0128670114
C   C53       1.0  0.40020  0.05420  0.78390  1.0000 -0.1405498424
C   C54       1.0  0.59980  0.94580  0.21610  1.0000 -0.1405498424
C   C55       1.0  0.30700  0.21700  0.97110  1.0000 -0.0203935479
C   C56       1.0  0.69300  0.78300  0.02890  1.0000 -0.0203935479
C   C57       1.0  0.48570  0.67430  0.67600  1.0000 0.0029537965
C   C58       1.0  0.51430  0.32570  0.32400  1.0000 0.0029537965
C   C59       1.0  0.99700  0.70720  0.16110  1.0000 -0.1596309734
C   C60       1.0  0.00300  0.29280  0.83890  1.0000 -0.1596309734
C   C61       1.0  0.40740  0.70410  0.78920  1.0000 -0.1492374411
C   C62       1.0  0.59260  0.29590  0.21080  1.0000 -0.1492374411
C   C63       1.0  0.95790  0.67120  0.10430  1.0000 0.0916808155
C   C64       1.0  0.04210  0.32880  0.89570  1.0000 0.0916808155
C   C65       1.0  0.05320  0.69980  0.21060  1.0000 -0.0038266291
C   C66       1.0  0.94680  0.30020  0.78940  1.0000 -0.0038266291
C   C67       1.0  0.87040  0.75320  0.98520  1.0000 -0.0501062912
C   C68       1.0  0.12960  0.24680  0.01480  1.0000 -0.0501062912
C   C69       1.0  0.29970  0.38010  0.21480  1.0000 -0.0305507105
C   C70       1.0  0.70030  0.61990  0.78520  1.0000 -0.0305507105
C   C71       1.0  0.34170  0.49240  0.22070  1.0000 0.0992791216
C   C72       1.0  0.65830  0.50760  0.77930  1.0000 0.0992791216
C   C73       1.0  0.42160  0.67600  0.47400  1.0000 -0.1492374411
C   C74       1.0  0.57840  0.32400  0.52600  1.0000 -0.1492374411
C   C75       1.0  0.24040  0.58280  0.16980  1.0000 -0.0582049597
C   C76       1.0  0.75960  0.41720  0.83020  1.0000 -0.0582049597
C   C77       1.0  0.31520  0.76530  0.72770  1.0000 -0.1805982453
C   C78       1.0  0.68480  0.23470  0.27230  1.0000 -0.1805982453
C   C79       1.0  0.28730  0.43140  0.21160  1.0000 -0.169028118
C   C80       1.0  0.71270  0.56860  0.78840  1.0000 -0.169028118
C   C81       1.0  0.45890  0.67300  0.61170  1.0000 -0.1492374411
C   C82       1.0  0.54110  0.32700  0.38830  1.0000 -0.1492374411
C   C83       1.0  0.97080  0.79620  0.79670  1.0000 -0.1888780218
C   C84       1.0  0.02920  0.20380  0.20330  1.0000 -0.1888780218
C   C85       1.0  0.42030  0.45000  0.23930  1.0000 -0.0038266291
C   C86       1.0  0.57970  0.55000  0.76070  1.0000 -0.0038266291
C   C87       1.0  0.88670  0.76990  0.68760  1.0000 -0.1405498424
C   C88       1.0  0.11330  0.23010  0.31240  1.0000 -0.1405498424
C   C89       1.0  0.21780  0.02470  0.13060  1.0000 -0.1888780218
C   C90       1.0  0.78220  0.97530  0.86940  1.0000 -0.1888780218
C   C91       1.0  0.36000  0.65400  0.24250  1.0000 0.0069054614
C   C92       1.0  0.64000  0.34600  0.75750  1.0000 0.0069054614
C   C93       1.0  0.73530  0.76700  0.74000  1.0000 -0.0038266291
C   C94       1.0  0.26470  0.23300  0.26000  1.0000 -0.0038266291
C   C95       1.0  0.84860  0.48240  0.62590  1.0000 -0.1405498424
C   C96       1.0  0.15140  0.51760  0.37410  1.0000 -0.1405498424
C   C97       1.0  0.83460  0.83100  0.83610  1.0000 -0.0501062912
C   C98       1.0  0.16540  0.16900  0.16390  1.0000 -0.0501062912
C   C99       1.0  0.49140  0.79410  0.86850  1.0000 -0.169028118
C   C100      1.0  0.50860  0.20590  0.13150  1.0000 -0.169028118
C   C101      1.0  0.88170  0.82820  0.82020  1.0000 -0.1888780218
C   C102      1.0  0.11830  0.17180  0.17980  1.0000 -0.1888780218
C   C103      1.0  0.26180  0.03090  0.90580  1.0000 -0.1340895621
C   C104      1.0  0.73820  0.96910  0.09420  1.0000 -0.1405498424
C   C105      1.0  0.27270  0.01680  0.18070  1.0000 0.0992791216
C   C106      1.0  0.72730  0.98320  0.81930  1.0000 0.0992791216
C   C107      1.0  0.23410  0.07890  0.10520  1.0000 -0.0406268005
C   C108      1.0  0.76590  0.92110  0.89480  1.0000 -0.0406268005
C   C109      1.0  0.22500  0.86000  0.54070  1.0000 -0.1492374411
C   C110      1.0  0.77500  0.14000  0.45930  1.0000 -0.1492374411
C   C111      1.0  0.29060  0.16430  0.93550  1.0000 -0.1492374411
C   C112      1.0  0.70940  0.83570  0.06450  1.0000 -0.1492374411
C   C113      1.0  0.97170  0.62270  0.09650  1.0000 -0.1888780218
C   C114      1.0  0.02830  0.37730  0.90350  1.0000 -0.1888780218
C   C115      1.0  0.07630  0.97660  0.63450  1.0000 -0.0406268005
C   C116      1.0  0.92370  0.02340  0.36550  1.0000 -0.0406268005
C   C117      1.0  0.78110  0.76380  0.72260  1.0000 -0.1405498424
C   C118      1.0  0.21890  0.23620  0.27740  1.0000 -0.1405498424
C   C119      1.0  0.45410  0.68070  0.81440  1.0000 -0.0038266291
C   C120      1.0  0.54590  0.31930  0.18560  1.0000 0.0029537965
C   C121      1.0  0.93050  0.52120  0.73410  1.0000 -0.169028118
C   C122      1.0  0.06950  0.47880  0.26590  1.0000 -0.169028118
C   C123      1.0  0.14320  0.01220  0.83220  1.0000 -0.1888780218
C   C124      1.0  0.85680  0.98780  0.16780  1.0000 -0.1888780218
C   C125      1.0  0.10240  0.78180  0.48110  1.0000 -0.1596309734
C   C126      1.0  0.89760  0.21820  0.51890  1.0000 -0.1596309734
C   C127      1.0  0.39600  0.84850  0.81670  1.0000 -0.169028118
C   C128      1.0  0.60400  0.15150  0.18330  1.0000 -0.169028118
C   C129      1.0  0.90460  0.78690  0.74840  1.0000 0.0992791216
C   C130      1.0  0.09540  0.21310  0.25160  1.0000 0.0992791216
C   C131      1.0  0.19410  0.90110  0.17620  1.0000 -0.1805982453
C   C132      1.0  0.80590  0.09890  0.82380  1.0000 -0.1805982453
C   C133      1.0  0.30510  0.95850  0.27190  1.0000 -0.1492374411
C   C134      1.0  0.69490  0.04150  0.72810  1.0000 -0.1492374411
C   C135      1.0  0.19290  0.16070  0.96380  1.0000 -0.0582049597
C   C136      1.0  0.80710  0.83930  0.03620  1.0000 -0.0582049597
C   C137      1.0  0.26050  0.82050  0.45870  1.0000 -0.1492374411
C   C138      1.0  0.73950  0.17950  0.54130  1.0000 -0.1492374411
C   C139      1.0  0.28070  0.79490  0.42840  1.0000 -0.0203935479
C   C140      1.0  0.71930  0.20510  0.57160  1.0000 -0.0203935479
C   C141      1.0  0.35740  0.11950  0.17440  1.0000 -0.0501062912
C   C142      1.0  0.64260  0.88050  0.82560  1.0000 -0.0501062912
C   C143      1.0  0.14830  0.72370  0.41850  1.0000 -0.1596309734
C   C144      1.0  0.85170  0.27630  0.58150  1.0000 -0.1596309734
C   C145      1.0  0.53860  0.77070  0.89370  1.0000 -0.0203935479
C   C146      1.0  0.46140  0.22930  0.10630  1.0000 -0.0203935479
C   C147      1.0  0.21070  0.05150  0.88420  1.0000 0.0916808155
C   C148      1.0  0.78930  0.94850  0.11580  1.0000 0.0916808155
C   C149      1.0  0.06080  0.01050  0.58600  1.0000 -0.1805982453
C   C150      1.0  0.93920  0.98950  0.41400  1.0000 -0.1888780218
C   C151      1.0  0.29100  0.90270  0.29650  1.0000 0.0069054614
C   C152      1.0  0.70900  0.09730  0.70350  1.0000 0.0069054614
C   C153      1.0  0.04000  0.60850  0.69420  1.0000 -0.169028118
C   C154      1.0  0.96000  0.39150  0.30580  1.0000 -0.169028118
C   C155      1.0  0.22910  0.80040  0.05310  1.0000 -0.169028118
C   C156      1.0  0.77090  0.19960  0.94690  1.0000 -0.169028118
C   C157      1.0  0.08660  0.66490  0.68630  1.0000 -0.0406268005
C   C158      1.0  0.91340  0.33510  0.31370  1.0000 -0.0406268005
C   C159      1.0  0.24480  0.97480  0.87830  1.0000 -0.0305507105
C   C160      1.0  0.75520  0.02520  0.12170  1.0000 -0.0305507105
C   C161      1.0  0.13850  0.72010  0.88960  1.0000 -0.1888780218
C   C162      1.0  0.86150  0.27990  0.11040  1.0000 -0.1888780218
C   C163      1.0  0.22710  0.10900  0.91630  1.0000 0.0992791216
C   C164      1.0  0.77290  0.89100  0.08370  1.0000 0.0992791216
C   C165      1.0  0.08630  0.80410  0.51660  1.0000 -0.0305507105
C   C166      1.0  0.91370  0.19590  0.48340  1.0000 -0.0305507105
C   C167      1.0  0.40360  0.06970  0.72930  1.0000 0.0992791216
C   C168      1.0  0.59640  0.93030  0.27070  1.0000 0.0992791216
C   C169      1.0  0.12770  0.95680  0.80420  1.0000 -0.0406268005
C   C170      1.0  0.87230  0.04320  0.19580  1.0000 -0.0406268005
C   C171      1.0  0.42570  0.76320  0.81470  1.0000 0.0836203891
C   C172      1.0  0.57430  0.23680  0.18530  1.0000 0.0836203891
C   C173      1.0  0.85540  0.79420  0.76390  1.0000 0.0992791216
C   C174      1.0  0.14460  0.20580  0.23610  1.0000 0.0992791216
C   C175      1.0  0.93450  0.76350  0.67590  1.0000 0.0029537965
C   C176      1.0  0.06550  0.23650  0.32410  1.0000 0.0029537965
C   C177      1.0  0.27310  0.79410  0.70190  1.0000 -0.0305507105
C   C178      1.0  0.72690  0.20590  0.29810  1.0000 -0.0305507105
C   C179      1.0  0.49030  0.72560  0.58780  1.0000 0.0992791216
C   C180      1.0  0.50970  0.27440  0.41220  1.0000 0.0992791216
C   C181      1.0  0.17660  0.10870  0.92880  1.0000 -0.1888780218
C   C182      1.0  0.82340  0.89130  0.07120  1.0000 -0.1888780218
C   C183      1.0  0.46650  0.78580  0.49890  1.0000 -0.1405498424
C   C184      1.0  0.53350  0.21420  0.50110  1.0000 -0.1405498424
C   C185      1.0  0.34340  0.06650  0.20240  1.0000 -0.169028118
C   C186      1.0  0.65660  0.93350  0.79760  1.0000 -0.169028118
C   C187      1.0  0.57820  0.77900  0.69440  1.0000 -0.0501062912
C   C188      1.0  0.42180  0.22100  0.30560  1.0000 -0.0501062912
C   C189      1.0  0.37820  0.79140  0.78600  1.0000 0.0992791216
C   C190      1.0  0.62180  0.20860  0.21400  1.0000 0.0992791216
C   C191      1.0  0.19290  0.78390  0.45510  1.0000 0.0992791216
C   C192      1.0  0.80710  0.21610  0.54490  1.0000 0.0992791216
C   C193      1.0  0.55300  0.77860  0.63130  1.0000 -0.1405498424
C   C194      1.0  0.44700  0.22140  0.36870  1.0000 -0.1405498424
C   C195      1.0  0.25630  0.95830  0.20940  1.0000 0.0916808155
C   C196      1.0  0.74370  0.04170  0.79060  1.0000 0.0916808155
C   C197      1.0  0.46010  0.72900  0.52000  1.0000 0.1087455449
C   C198      1.0  0.53990  0.27100  0.48000  1.0000 0.1087455449
C   C199      1.0  0.00800  0.98110  0.52580  1.0000 0.0916808155
C   C200      1.0  0.99200  0.01890  0.47420  1.0000 0.0916808155
C   C201      1.0  0.17260  0.80840  0.49210  1.0000 0.0992791216
C   C202      1.0  0.82740  0.19160  0.50790  1.0000 0.0992791216
C   C203      1.0  0.62710  0.59590  0.98090  1.0000 -0.0305507105
C   C204      1.0  0.37290  0.40410  0.01910  1.0000 -0.0305507105
C   C205      1.0  0.48510  0.51190  0.91770  1.0000 -0.169028118
C   C206      1.0  0.51490  0.48810  0.08230  1.0000 -0.169028118
C   C207      1.0  0.25620  0.53510  0.17390  1.0000 -0.169028118
C   C208      1.0  0.74380  0.46490  0.82610  1.0000 -0.169028118
C   C209      1.0  0.14410  0.68390  0.06830  1.0000 -0.0203935479
C   C210      1.0  0.85590  0.31610  0.93170  1.0000 -0.0203935479
C   C211      1.0  0.40880  0.50130  0.23570  1.0000 -0.1596309734
C   C212      1.0  0.59120  0.49870  0.76430  1.0000 -0.1596309734
C   C213      1.0  0.37830  0.60560  0.24900  1.0000 -0.1805982453
C   C214      1.0  0.62170  0.39440  0.75100  1.0000 -0.1805982453
C   C215      1.0  0.02730  0.61760  0.14670  1.0000 -0.0203935479
C   C216      1.0  0.97270  0.38240  0.85330  1.0000 -0.0203935479
C   C217      1.0  0.79000  0.64340  0.95310  1.0000 -0.0501062912
C   C218      1.0  0.21000  0.35660  0.04690  1.0000 -0.0501062912
C   C219      1.0  0.83680  0.63180  0.00530  1.0000 -0.169028118
C   C220      1.0  0.16320  0.36820  0.99470  1.0000 -0.169028118
C   C221      1.0  0.52150  0.54470  0.88650  1.0000 0.0029537965
C   C222      1.0  0.47850  0.45530  0.11350  1.0000 0.0069054614
C   C223      1.0  0.59110  0.56280  0.01330  1.0000 -0.169028118
C   C224      1.0  0.40890  0.43720  0.98670  1.0000 -0.1805982453
C   C225      1.0  0.15130  0.68990  0.01410  1.0000 -0.1975155574
C   C226      1.0  0.84870  0.31010  0.98590  1.0000 -0.1975155574
C   C227      1.0  0.97070  0.91660  0.51480  1.0000 -0.169028118
C   C228      1.0  0.02930  0.08340  0.48520  1.0000 -0.169028118
C   C229      1.0  0.91760  0.74250  0.03910  1.0000 -0.1975155574
C   C230      1.0  0.08240  0.25750  0.96090  1.0000 -0.1975155574
C   C231      1.0  0.91470  0.52730  0.67260  1.0000 0.1087455449
C   C232      1.0  0.08530  0.47270  0.32740  1.0000 0.1087455449
C   C233      1.0  0.19340  0.75090  0.00550  1.0000 0.1087455449
C   C234      1.0  0.80660  0.24910  0.99450  1.0000 0.1087455449
C   C235      1.0  0.51920  0.51810  0.98260  1.0000 0.0992791216
C   C236      1.0  0.48080  0.48190  0.01740  1.0000 0.0992791216
C   C237      1.0  0.90270  0.68120  0.05060  1.0000 0.0992791216
C   C238      1.0  0.09730  0.31880  0.94940  1.0000 0.0992791216
C   C239      1.0  0.32490  0.54460  0.21360  1.0000 0.1087455449
C   C240      1.0  0.67510  0.45540  0.78640  1.0000 0.1087455449
C   C241      1.0  0.67180  0.92300  0.51800  1.0000 0.4588584575
C   C242      1.0  0.32820  0.07700  0.48200  1.0000 0.4588584575
C   C243      1.0  0.45270  0.83590  0.01410  1.0000 0.4588584575
C   C244      1.0  0.54730  0.16410  0.98590  1.0000 0.4588584575
C   C245      1.0  0.42720  0.39430  0.42570  1.0000 0.4538878771
C   C246      1.0  0.57280  0.60570  0.57430  1.0000 0.4538878771
C   C247      1.0  0.30460  0.47990  0.74200  1.0000 0.4685727331
C   C248      1.0  0.69540  0.52010  0.25800  1.0000 0.4685727331
S   S1        1.0  0.63930  0.97560  0.51130  1.0000 0.9938237342
S   S2        1.0  0.36070  0.02440  0.48870  1.0000 0.9938237342
S   S3        1.0  0.52870  0.82810  0.06510  1.0000 0.9796786281
S   S4        1.0  0.47130  0.17190  0.93490  1.0000 0.9796786281
S   S5        1.0  0.37790  0.32370  0.44660  1.0000 0.9796786281
S   S6        1.0  0.62210  0.67630  0.55340  1.0000 0.9796786281
S   S7        1.0  0.34380  0.51770  0.69470  1.0000 1.0731797787
S   S8        1.0  0.65620  0.48230  0.30530  1.0000 1.0731797787
N   N1        1.0  0.29260  0.84850  0.73290  1.0000 0.3317249209
N   N2        1.0  0.70740  0.15150  0.26710  1.0000 0.3317249209
N   N3        1.0  0.17820  0.93840  0.82780  1.0000 0.3388386714
N   N4        1.0  0.82180  0.06160  0.17220  1.0000 0.3388386714
N   N5        1.0  0.99730  0.77230  0.72360  1.0000 0.3317249209
N   N6        1.0  0.00270  0.22770  0.27640  1.0000 0.3317249209
N   N7        1.0  0.05940  0.69720  0.64280  1.0000 0.3317249209
N   N8        1.0  0.94060  0.30280  0.35720  1.0000 0.3317249209
N   N9        1.0  0.03850  0.91260  0.62180  1.0000 0.3388386714
N   N10       1.0  0.96150  0.08740  0.37820  1.0000 0.3388386714
N   N11       1.0  0.27200  0.00100  0.72600  1.0000 0.3317249209
N   N12       1.0  0.72800  0.99900  0.27400  1.0000 0.3317249209
N   N13       1.0  0.19650  0.78270  0.83350  1.0000 0.3317249209
N   N14       1.0  0.80350  0.21730  0.16650  1.0000 0.3317249209
N   N15       1.0  0.13850  0.85300  0.56450  1.0000 0.3317249209
N   N16       1.0  0.86150  0.14700  0.43550  1.0000 0.3317249209
N   N17       1.0  0.29430  0.64200  0.20460  1.0000 0.3209957619
N   N18       1.0  0.70570  0.35800  0.79540  1.0000 0.3209957619
N   N19       1.0  0.36520  0.39060  0.22680  1.0000 0.3317249209
N   N20       1.0  0.63480  0.60940  0.77320  1.0000 0.3317249209
N   N21       1.0  0.80750  0.70460  0.94310  1.0000 0.3317249209
N   N22       1.0  0.19250  0.29540  0.05690  1.0000 0.3209957619
N   N23       1.0  0.61000  0.15860  0.74270  1.0000 0.3388386714
N   N24       1.0  0.39000  0.84140  0.25730  1.0000 0.3388386714
N   N25       1.0  0.06780  0.65630  0.20120  1.0000 0.3209957619
N   N26       1.0  0.93220  0.34370  0.79880  1.0000 0.3209957619
N   N27       1.0  0.17870  0.73280  0.11210  1.0000 0.3209957619
N   N28       1.0  0.82130  0.26720  0.88790  1.0000 0.3209957619
N   N29       1.0  0.54300  0.72770  0.71570  1.0000 0.3388386714
N   N30       1.0  0.45700  0.27230  0.28430  1.0000 0.3388386714
N   N31       1.0  0.30170  0.12530  0.12600  1.0000 0.3317249209
N   N32       1.0  0.69830  0.87470  0.87400  1.0000 0.3317249209
N   N33       1.0  0.39940  0.73650  0.39340  1.0000 0.3317249209
N   N34       1.0  0.60060  0.26350  0.60660  1.0000 0.3317249209
N   N35       1.0  0.25740  0.21380  0.98480  1.0000 0.3317249209
N   N36       1.0  0.74260  0.78620  0.01520  1.0000 0.3317249209
N   N37       1.0  0.23110  0.84830  0.26130  1.0000 0.3388386714
N   N38       1.0  0.76890  0.15170  0.73870  1.0000 0.3388386714
N   N39       1.0  0.51930  0.71430  0.86640  1.0000 0.3317249209
N   N40       1.0  0.48070  0.28570  0.13360  1.0000 0.3317249209
N   N41       1.0  0.81640  0.43010  0.70090  1.0000 0.3388386714
N   N42       1.0  0.18360  0.56990  0.29910  1.0000 0.3388386714
N   N43       1.0  0.23840  0.73650  0.39530  1.0000 0.3499842855
N   N44       1.0  0.76160  0.26350  0.60470  1.0000 0.3499842855
N   N45       1.0  0.76290  0.79920  0.79580  1.0000 0.3209957619
N   N46       1.0  0.23710  0.20080  0.20420  1.0000 0.3209957619
N   N47       1.0  0.59100  0.58530  0.91760  1.0000 0.3135896894
N   N48       1.0  0.40900  0.41470  0.08240  1.0000 0.3135896894
Cl  Cl1       1.0  0.12770  0.27450  0.47780  1.0000 -0.6080909994
Cl  Cl2       1.0  0.87230  0.72550  0.52220  1.0000 -0.6080909994
Cl  Cl3       1.0  0.60770  0.03580  0.08320  1.0000 -0.4970031333
Cl  Cl4       1.0  0.39230  0.96420  0.91680  1.0000 -0.4970031333
Cl  Cl5       1.0  0.42920  0.92070  0.43070  1.0000 -0.4564788666
Cl  Cl6       1.0  0.57080  0.07930  0.56930  1.0000 -0.4564788666
Cl  Cl7       1.0  0.99190  0.56670  0.28730  1.0000 -0.4970031333
Cl  Cl8       1.0  0.00810  0.43330  0.71270  1.0000 -0.4970031333
Cl  Cl9       1.0  0.94970  0.64600  0.30530  1.0000 -0.3496324149
Cl  Cl10      1.0  0.05030  0.35400  0.69470  1.0000 -0.3496324149
Cl  Cl11      1.0  0.34340  0.51730  0.37220  1.0000 -0.3388523635
Cl  Cl12      1.0  0.65660  0.48270  0.62780  1.0000 -0.3388523635
Cl  Cl13      1.0  0.29370  0.47910  0.45580  1.0000 -0.1340895621
Cl  Cl14      1.0  0.70630  0.52090  0.54420  1.0000 -0.1340895621
Cl  Cl15      1.0  0.20210  0.41160  0.32320  1.0000 -0.4436564175
Cl  Cl16      1.0  0.79790  0.58840  0.67680  1.0000 -0.4436564175
O   O1        1.0  0.12340  0.87430  0.60090  1.0000 -0.5929002193
O   O2        1.0  0.87660  0.12570  0.39910  1.0000 -0.5929002193
O   O3        1.0  0.25280  0.87700  0.70790  1.0000 -0.6080909994
O   O4        1.0  0.74720  0.12300  0.29210  1.0000 -0.6080909994
O   O5        1.0  0.31640  0.17710  0.09950  1.0000 -0.5984753248
O   O6        1.0  0.68360  0.82290  0.90050  1.0000 -0.5984753248
O   O7        1.0  0.26150  0.71390  0.36900  1.0000 -0.5708905187
O   O8        1.0  0.73850  0.28610  0.63100  1.0000 -0.5708905187
O   O9        1.0  0.19730  0.79430  0.77940  1.0000 -0.5929002193
O   O10       1.0  0.80270  0.20570  0.22060  1.0000 -0.5929002193
O   O11       1.0  0.22000  0.79560  0.28550  1.0000 -0.5807985169
O   O12       1.0  0.78000  0.20440  0.71450  1.0000 -0.5807985169
O   O13       1.0  0.56460  0.73090  0.77730  1.0000 -0.6080909994
O   O14       1.0  0.43540  0.26910  0.22270  1.0000 -0.6080909994
O   O15       1.0  0.04230  0.76580  0.71180  1.0000 -0.5929002193
O   O16       1.0  0.95770  0.23420  0.28820  1.0000 -0.5929002193
O   O17       1.0  0.76780  0.38480  0.71480  1.0000 -0.5929002193
O   O18       1.0  0.23220  0.61520  0.28520  1.0000 -0.5929002193
O   O19       1.0  0.56480  0.69140  0.88990  1.0000 -0.5929002193
O   O20       1.0  0.43520  0.30860  0.11010  1.0000 -0.5929002193
O   O21       1.0  0.36960  0.74070  0.33280  1.0000 -0.5807985169
O   O22       1.0  0.63040  0.25930  0.66720  1.0000 -0.5807985169
O   O23       1.0  0.71860  0.80050  0.81310  1.0000 -0.6164071289
O   O24       1.0  0.28140  0.19950  0.18690  1.0000 -0.6164071289
O   O25       1.0  0.20910  0.96390  0.72440  1.0000 -0.5984753248
O   O26       1.0  0.79090  0.03610  0.27560  1.0000 -0.5984753248
O   O27       1.0  0.67550  0.18160  0.75000  1.0000 -0.5929002193
O   O28       1.0  0.32450  0.81840  0.25000  1.0000 -0.5929002193
O   O29       1.0  0.10490  0.75520  0.63950  1.0000 -0.5984753248
O   O30       1.0  0.89510  0.24480  0.36050  1.0000 -0.5984753248
O   O31       1.0  0.05250  0.87910  0.66720  1.0000 -0.5807985169
O   O32       1.0  0.94750  0.12090  0.33280  1.0000 -0.5807985169
O   O33       1.0  0.62700  0.61680  0.88630  1.0000 -0.6164071289
O   O34       1.0  0.37300  0.38320  0.11370  1.0000 -0.6164071289
O   O35       1.0  0.16230  0.88290  0.80310  1.0000 -0.5984753248
O   O36       1.0  0.83770  0.11710  0.19690  1.0000 -0.5984753248
O   O37       1.0  0.37520  0.34150  0.22800  1.0000 -0.5708905187
O   O38       1.0  0.62480  0.65850  0.77200  1.0000 -0.5708905187
O   O39       1.0  0.12430  0.65280  0.24740  1.0000 -0.5807985169
O   O40       1.0  0.87570  0.34720  0.75260  1.0000 -0.5807985169
O   O41       1.0  0.76330  0.71580  0.89030  1.0000 -0.6080909994
O   O42       1.0  0.23670  0.28420  0.10970  1.0000 -0.6080909994
O   O43       1.0  0.27420  0.26170  0.02180  1.0000 -0.5929002193
O   O44       1.0  0.72580  0.73830  0.97820  1.0000 -0.5929002193
O   O45       1.0  0.16930  0.72440  0.16250  1.0000 -0.6080909994
O   O46       1.0  0.83070  0.27560  0.83750  1.0000 -0.6080909994
O   O47       1.0  0.27730  0.68790  0.19880  1.0000 -0.6080909994
O   O48       1.0  0.72270  0.31210  0.80120  1.0000 -0.6080909994
O   O49       1.0  0.56350  0.93340  0.48200  1.0000 -0.5097553161
O   O50       1.0  0.67000  0.00600  0.57470  1.0000 -0.5400135902
O   O51       1.0  0.66000  0.01570  0.47000  1.0000 -0.5510039754
O   O52       1.0  0.43650  0.06660  0.51800  1.0000 -0.5097553161
O   O53       1.0  0.33000  0.99400  0.42530  1.0000 -0.5400135902
O   O54       1.0  0.34000  0.98430  0.53000  1.0000 -0.5400135902
O   O55       1.0  0.50710  0.79250  0.10790  1.0000 -0.5303944575
O   O56       1.0  0.53800  0.79390  0.02780  1.0000 -0.5604546097
O   O57       1.0  0.58500  0.89270  0.09380  1.0000 -0.5400135902
O   O58       1.0  0.49290  0.20750  0.89210  1.0000 -0.5303944575
O   O59       1.0  0.46200  0.20610  0.97220  1.0000 -0.5604546097
O   O60       1.0  0.41500  0.10730  0.90620  1.0000 -0.5400135902
O   O61       1.0  0.37230  0.27690  0.41060  1.0000 -0.5303944575
O   O62       1.0  0.42100  0.32830  0.51400  1.0000 -0.5303944575
O   O63       1.0  0.30990  0.32130  0.42520  1.0000 -0.5097553161
O   O64       1.0  0.62770  0.72310  0.58940  1.0000 -0.5303944575
O   O65       1.0  0.57900  0.67170  0.48600  1.0000 -0.5303944575
O   O66       1.0  0.69010  0.67870  0.57480  1.0000 -0.5097553161
O   O67       1.0  0.30610  0.46860  0.64300  1.0000 -0.4885874716
O   O68       1.0  0.32770  0.56950  0.67630  1.0000 -0.5510039754
O   O69       1.0  0.41880  0.53630  0.73400  1.0000 -0.5604546097
O   O70       1.0  0.69390  0.53140  0.35700  1.0000 -0.4885874716
O   O71       1.0  0.67230  0.43050  0.32370  1.0000 -0.5510039754
O   O72       1.0  0.58120  0.46370  0.26600  1.0000 -0.5604546097
F   F1        1.0  0.65500  0.87980  0.55000  1.0000 -0.1492374411
F   F2        1.0  0.65600  0.89780  0.46600  1.0000 -0.169028118
F   F3        1.0  0.74420  0.95380  0.54900  1.0000 -0.1340895621
F   F4        1.0  0.34500  0.12020  0.45000  1.0000 -0.1492374411
F   F5        1.0  0.34400  0.10220  0.53400  1.0000 -0.169028118
F   F6        1.0  0.25580  0.04620  0.45100  1.0000 -0.1340895621
F   F7        1.0  0.43070  0.85520  0.04180  1.0000 -0.1805982453
F   F8        1.0  0.45810  0.86910  0.97200  1.0000 -0.169028118
F   F9        1.0  0.39580  0.77930  0.98080  1.0000 -0.169028118
F   F10       1.0  0.56930  0.14480  0.95820  1.0000 -0.1805982453
F   F11       1.0  0.54190  0.13090  0.02800  1.0000 -0.169028118
F   F12       1.0  0.60420  0.22070  0.01920  1.0000 -0.169028118
F   F13       1.0  0.44160  0.44450  0.45350  1.0000 -0.1231811036
F   F14       1.0  0.39950  0.39550  0.36730  1.0000 -0.169028118
F   F15       1.0  0.49280  0.40360  0.44170  1.0000 -0.1492374411
F   F16       1.0  0.55840  0.55550  0.54650  1.0000 -0.1231811036
F   F17       1.0  0.60050  0.60450  0.63270  1.0000 -0.169028118
F   F18       1.0  0.50720  0.59640  0.55830  1.0000 -0.1492374411
F   F19       1.0  0.31530  0.43450  0.76360  1.0000 -0.1888780218
F   F20       1.0  0.23800  0.46150  0.71720  1.0000 -0.2293750671
F   F21       1.0  0.33430  0.52030  0.79390  1.0000 -0.1596309734
F   F22       1.0  0.68470  0.56550  0.23640  1.0000 -0.1888780218
F   F23       1.0  0.76200  0.53850  0.28280  1.0000 -0.2405310747
F   F24       1.0  0.66570  0.47970  0.20610  1.0000 -0.1596309734
