# DDEC6 charges by PACMAN v1.1 (https://github.com/mtap-research/PACMAN-charge/)
data_2004[PbK][nan]3[ION]1
_chemical_formula_sum              "K12 H72 Pb12 C60 S12 N12 O48"
_cell_length_a       10.601
_cell_length_b       26.841
_cell_length_c       11.464
_cell_angle_alpha    90
_cell_angle_beta     97.32
_cell_angle_gamma    90

_symmetry_space_group_name_H-M    "P 1"
_symmetry_Int_Tables_number       1

loop_
  _symmetry_equiv_pos_as_xyz
  'x, y, z'

loop_
  _atom_site_type_symbol
  _atom_site_label
  _atom_site_symmetry_multiplicity
  _atom_site_fract_x
  _atom_site_fract_y
  _atom_site_fract_z
  _atom_site_occupancy
  _atom_site_charge
K   K1        1.0  0.51670  0.37406  0.68510  1.0000 0.8545001884
K   K2        1.0  0.89640  0.49039  0.63920  1.0000 0.8578430554
K   K3        1.0  0.81490  0.24226  0.61630  1.0000 0.8578430554
K   K4        1.0  0.98330  0.87406  0.81490  1.0000 0.8545001884
K   K5        1.0  0.60360  0.99039  0.86080  1.0000 0.8578430554
K   K6        1.0  0.68510  0.74226  0.88370  1.0000 0.8578430554
K   K7        1.0  0.48330  0.62594  0.31490  1.0000 0.8545001884
K   K8        1.0  0.10360  0.50961  0.36080  1.0000 0.8578430554
K   K9        1.0  0.18510  0.75774  0.38370  1.0000 0.8578430554
K   K10       1.0  0.01670  0.12594  0.18510  1.0000 0.8545001884
K   K11       1.0  0.39640  0.00961  0.13920  1.0000 0.8578430554
K   K12       1.0  0.31490  0.25774  0.11630  1.0000 0.8578430554
H   H1        1.0  0.82300  0.33260  0.83270  1.0000 0.1504028364
H   H2        1.0  0.82000  0.39100  0.82800  1.0000 0.1578763389
H   H3        1.0  0.92320  0.36360  0.91520  1.0000 0.1578763389
H   H4        1.0  0.23910  0.54590  0.69930  1.0000 0.1578763389
H   H5        1.0  0.37690  0.52460  0.73170  1.0000 0.1445259889
H   H6        1.0  0.27350  0.51550  0.81570  1.0000 0.1504028364
H   H7        1.0  0.66720  0.35460  0.14180  1.0000 0.1504028364
H   H8        1.0  0.69450  0.40010  0.06280  1.0000 0.1578763389
H   H9        1.0  0.70180  0.34560  0.01450  1.0000 0.1578763389
H   H10       1.0  0.27710  0.22540  0.76180  1.0000 0.1504028364
H   H11       1.0  0.16990  0.24900  0.67180  1.0000 0.1504028364
H   H12       1.0  0.13680  0.22740  0.79130  1.0000 0.1578763389
H   H13       1.0  0.36230  0.26650  0.55960  1.0000 0.1578763389
H   H14       1.0  0.48670  0.25350  0.50530  1.0000 0.169353648
H   H15       1.0  0.35390  0.23710  0.44060  1.0000 0.1578763389
H   H16       1.0  0.94080  0.37170  0.25630  1.0000 0.1578763389
H   H17       1.0  0.97210  0.34440  0.14250  1.0000 0.1578763389
H   H18       1.0  0.95030  0.40220  0.14110  1.0000 0.1504028364
H   H19       1.0  0.67700  0.83260  0.66730  1.0000 0.1504028364
H   H20       1.0  0.68000  0.89100  0.67200  1.0000 0.1578763389
H   H21       1.0  0.57680  0.86360  0.58480  1.0000 0.1578763389
H   H22       1.0  0.26090  0.04590  0.80070  1.0000 0.1578763389
H   H23       1.0  0.12310  0.02460  0.76830  1.0000 0.1445259889
H   H24       1.0  0.22650  0.01550  0.68430  1.0000 0.1504028364
H   H25       1.0  0.83280  0.85460  0.35820  1.0000 0.1504028364
H   H26       1.0  0.80550  0.90010  0.43720  1.0000 0.1578763389
H   H27       1.0  0.79820  0.84560  0.48550  1.0000 0.1578763389
H   H28       1.0  0.22290  0.72540  0.73820  1.0000 0.1504028364
H   H29       1.0  0.33010  0.74900  0.82820  1.0000 0.1504028364
H   H30       1.0  0.36320  0.72740  0.70870  1.0000 0.1578763389
H   H31       1.0  0.13770  0.76650  0.94040  1.0000 0.1578763389
H   H32       1.0  0.01330  0.75350  0.99470  1.0000 0.169353648
H   H33       1.0  0.14610  0.73710  0.05940  1.0000 0.1578763389
H   H34       1.0  0.55920  0.87170  0.24370  1.0000 0.1578763389
H   H35       1.0  0.52790  0.84440  0.35750  1.0000 0.1578763389
H   H36       1.0  0.54970  0.90220  0.35890  1.0000 0.1504028364
H   H37       1.0  0.17700  0.66740  0.16730  1.0000 0.1504028364
H   H38       1.0  0.18000  0.60900  0.17200  1.0000 0.1578763389
H   H39       1.0  0.07680  0.63640  0.08480  1.0000 0.1578763389
H   H40       1.0  0.76090  0.45410  0.30070  1.0000 0.1578763389
H   H41       1.0  0.62310  0.47540  0.26830  1.0000 0.1445259889
H   H42       1.0  0.72650  0.48450  0.18430  1.0000 0.1504028364
H   H43       1.0  0.33280  0.64540  0.85820  1.0000 0.1504028364
H   H44       1.0  0.30550  0.59990  0.93720  1.0000 0.1578763389
H   H45       1.0  0.29820  0.65440  0.98550  1.0000 0.1578763389
H   H46       1.0  0.72290  0.77460  0.23820  1.0000 0.1504028364
H   H47       1.0  0.83010  0.75100  0.32820  1.0000 0.1504028364
H   H48       1.0  0.86320  0.77260  0.20870  1.0000 0.1578763389
H   H49       1.0  0.63770  0.73350  0.44040  1.0000 0.1578763389
H   H50       1.0  0.51330  0.74650  0.49470  1.0000 0.169353648
H   H51       1.0  0.64610  0.76290  0.55940  1.0000 0.1578763389
H   H52       1.0  0.05920  0.62830  0.74370  1.0000 0.1578763389
H   H53       1.0  0.02790  0.65560  0.85750  1.0000 0.1578763389
H   H54       1.0  0.04970  0.59780  0.85890  1.0000 0.1504028364
H   H55       1.0  0.32300  0.16740  0.33270  1.0000 0.1504028364
H   H56       1.0  0.32000  0.10900  0.32800  1.0000 0.1504028364
H   H57       1.0  0.42320  0.13640  0.41520  1.0000 0.1578763389
H   H58       1.0  0.73910  0.95410  0.19930  1.0000 0.1578763389
H   H59       1.0  0.87690  0.97540  0.23170  1.0000 0.1445259889
H   H60       1.0  0.77350  0.98450  0.31570  1.0000 0.1504028364
H   H61       1.0  0.16720  0.14540  0.64180  1.0000 0.1504028364
H   H62       1.0  0.19450  0.09990  0.56280  1.0000 0.1578763389
H   H63       1.0  0.20180  0.15440  0.51450  1.0000 0.1578763389
H   H64       1.0  0.77710  0.27460  0.26180  1.0000 0.1504028364
H   H65       1.0  0.66990  0.25100  0.17180  1.0000 0.1504028364
H   H66       1.0  0.63680  0.27260  0.29130  1.0000 0.1578763389
H   H67       1.0  0.86230  0.23350  0.05960  1.0000 0.1578763389
H   H68       1.0  0.98670  0.24650  0.00530  1.0000 0.169353648
H   H69       1.0  0.85390  0.26290  0.94060  1.0000 0.1578763389
H   H70       1.0  0.44080  0.12830  0.75630  1.0000 0.1578763389
H   H71       1.0  0.47210  0.15560  0.64250  1.0000 0.1578763389
H   H72       1.0  0.45030  0.09780  0.64110  1.0000 0.1504028364
Pb  Pb1       1.0  0.13332  0.37412  0.56364  1.0000 1.0879686465
Pb  Pb2       1.0  0.26127  0.39041  0.91223  1.0000 1.0454672863
Pb  Pb3       1.0  0.39172  0.39575  0.27827  1.0000 0.8964995732
Pb  Pb4       1.0  0.36668  0.87412  0.93636  1.0000 1.0879686465
Pb  Pb5       1.0  0.23873  0.89041  0.58777  1.0000 1.0454672863
Pb  Pb6       1.0  0.10828  0.89575  0.22173  1.0000 0.8964995732
Pb  Pb7       1.0  0.86668  0.62588  0.43636  1.0000 1.0879686465
Pb  Pb8       1.0  0.73873  0.60959  0.08777  1.0000 1.0454672863
Pb  Pb9       1.0  0.60828  0.60425  0.72173  1.0000 0.8964995732
Pb  Pb10      1.0  0.63332  0.12588  0.06364  1.0000 1.0879686465
Pb  Pb11      1.0  0.76127  0.10959  0.41223  1.0000 1.0454672863
Pb  Pb12      1.0  0.89172  0.10425  0.77827  1.0000 0.8964995732
C   C1        1.0  0.96320  0.36150  0.74510  1.0000 0.6682795425
C   C2        1.0  0.87400  0.36220  0.83900  1.0000 -0.6092163198
C   C3        1.0  0.24750  0.46940  0.66780  1.0000 0.6928854575
C   C4        1.0  0.28800  0.51860  0.73500  1.0000 -0.6205051043
C   C5        1.0  0.52060  0.36960  0.01530  1.0000 0.6682795425
C   C6        1.0  0.65830  0.36730  0.06280  1.0000 -0.5941500525
C   C7        1.0  0.22580  0.29490  0.81090  1.0000 0.6682795425
C   C8        1.0  0.20000  0.24460  0.75380  1.0000 -0.6205051043
C   C9        1.0  0.38900  0.30860  0.42450  1.0000 0.6280230572
C   C10       1.0  0.39900  0.26270  0.48800  1.0000 -0.6205051043
C   C11       1.0  0.13200  0.38300  0.22760  1.0000 0.658194079
C   C12       1.0  0.98410  0.37450  0.18790  1.0000 -0.5725055943
C   C13       1.0  0.58410  0.25580  0.82600  1.0000 0.2587108528
C   C14       1.0  0.82000  0.39090  0.47520  1.0000 0.2527104458
C   C15       1.0  0.59300  0.48850  0.60100  1.0000 0.0265899365
C   C16       1.0  0.53680  0.86150  0.75490  1.0000 0.6682795425
C   C17       1.0  0.62600  0.86220  0.66100  1.0000 -0.6092163198
C   C18       1.0  0.25250  0.96940  0.83220  1.0000 0.6928854575
C   C19       1.0  0.21200  0.01860  0.76500  1.0000 -0.6205051043
C   C20       1.0  0.97940  0.86960  0.48470  1.0000 0.6682795425
C   C21       1.0  0.84170  0.86730  0.43720  1.0000 -0.5941500525
C   C22       1.0  0.27420  0.79490  0.68910  1.0000 0.6682795425
C   C23       1.0  0.30000  0.74460  0.74620  1.0000 -0.6205051043
C   C24       1.0  0.11100  0.80860  0.07550  1.0000 0.6280230572
C   C25       1.0  0.10100  0.76270  0.01200  1.0000 -0.6205051043
C   C26       1.0  0.36800  0.88300  0.27240  1.0000 0.658194079
C   C27       1.0  0.51590  0.87450  0.31210  1.0000 -0.5725055943
C   C28       1.0  0.91590  0.75580  0.67400  1.0000 0.2587108528
C   C29       1.0  0.68000  0.89090  0.02480  1.0000 0.2527104458
C   C30       1.0  0.90700  0.98850  0.89900  1.0000 0.0265899365
C   C31       1.0  0.03680  0.63850  0.25490  1.0000 0.6682795425
C   C32       1.0  0.12600  0.63780  0.16100  1.0000 -0.6205051043
C   C33       1.0  0.75250  0.53060  0.33220  1.0000 0.6928854575
C   C34       1.0  0.71200  0.48140  0.26500  1.0000 -0.6205051043
C   C35       1.0  0.47940  0.63040  0.98470  1.0000 0.6682795425
C   C36       1.0  0.34170  0.63270  0.93720  1.0000 -0.5941500525
C   C37       1.0  0.77420  0.70510  0.18910  1.0000 0.6682795425
C   C38       1.0  0.80000  0.75540  0.24620  1.0000 -0.6205051043
C   C39       1.0  0.61100  0.69140  0.57550  1.0000 0.6280230572
C   C40       1.0  0.60100  0.73730  0.51200  1.0000 -0.6205051043
C   C41       1.0  0.86800  0.61700  0.77240  1.0000 0.658194079
C   C42       1.0  0.01590  0.62550  0.81210  1.0000 -0.5725055943
C   C43       1.0  0.41590  0.74420  0.17400  1.0000 0.2587108528
C   C44       1.0  0.18000  0.60910  0.52480  1.0000 0.2527104458
C   C45       1.0  0.40700  0.51150  0.39900  1.0000 0.0265899365
C   C46       1.0  0.46320  0.13850  0.24510  1.0000 0.6682795425
C   C47       1.0  0.37400  0.13780  0.33900  1.0000 -0.6092163198
C   C48       1.0  0.74750  0.03060  0.16780  1.0000 0.6928854575
C   C49       1.0  0.78800  0.98140  0.23500  1.0000 -0.6205051043
C   C50       1.0  0.02060  0.13040  0.51530  1.0000 0.6682795425
C   C51       1.0  0.15830  0.13270  0.56280  1.0000 -0.5941500525
C   C52       1.0  0.72580  0.20510  0.31090  1.0000 0.6682795425
C   C53       1.0  0.70000  0.25540  0.25380  1.0000 -0.6205051043
C   C54       1.0  0.88900  0.19140  0.92450  1.0000 0.6280230572
C   C55       1.0  0.89900  0.23730  0.98800  1.0000 -0.6205051043
C   C56       1.0  0.63200  0.11700  0.72760  1.0000 0.658194079
C   C57       1.0  0.48410  0.12550  0.68790  1.0000 -0.5725055943
C   C58       1.0  0.08410  0.24420  0.32600  1.0000 0.2587108528
C   C59       1.0  0.32000  0.10910  0.97520  1.0000 0.2527104458
C   C60       1.0  0.09300  0.01150  0.10100  1.0000 0.0265899365
S   S1        1.0  0.53110  0.23030  0.93990  1.0000 -0.3812426487
S   S2        1.0  0.68450  0.35970  0.45950  1.0000 -0.4319713945
S   S3        1.0  0.51100  0.51700  0.49100  1.0000 0.0101002999
S   S4        1.0  0.96890  0.73030  0.56010  1.0000 -0.3812426487
S   S5        1.0  0.81550  0.85970  0.04050  1.0000 -0.4319713945
S   S6        1.0  0.98900  0.01700  0.00900  1.0000 0.0101002999
S   S7        1.0  0.46890  0.76970  0.06010  1.0000 -0.3812426487
S   S8        1.0  0.31550  0.64030  0.54050  1.0000 -0.4319713945
S   S9        1.0  0.48900  0.48300  0.50900  1.0000 0.0101002999
S   S10       1.0  0.03110  0.26970  0.43990  1.0000 -0.3812426487
S   S11       1.0  0.18450  0.14030  0.95950  1.0000 -0.4319713945
S   S12       1.0  0.01100  0.98300  0.99100  1.0000 0.0101002999
N   N1        1.0  0.62150  0.27520  0.74730  1.0000 -0.5284306715
N   N2        1.0  0.91660  0.41060  0.48200  1.0000 -0.4673999781
N   N3        1.0  0.65100  0.47600  0.68500  1.0000 -0.4422791709
N   N4        1.0  0.87850  0.77520  0.75270  1.0000 -0.5284306715
N   N5        1.0  0.58340  0.91060  0.01800  1.0000 -0.4673999781
N   N6        1.0  0.84900  0.97600  0.81500  1.0000 -0.4422791709
N   N7        1.0  0.37850  0.72480  0.25270  1.0000 -0.5284306715
N   N8        1.0  0.08340  0.58940  0.51800  1.0000 -0.4673999781
N   N9        1.0  0.34900  0.52400  0.31500  1.0000 -0.4422791709
N   N10       1.0  0.12150  0.22480  0.24730  1.0000 -0.5284306715
N   N11       1.0  0.41660  0.08940  0.98200  1.0000 -0.4673999781
N   N12       1.0  0.15100  0.02400  0.18500  1.0000 -0.445723028
O   O1        1.0  0.96260  0.32430  0.67840  1.0000 -0.5993005755
O   O2        1.0  0.03860  0.39690  0.73930  1.0000 -0.5993005755
O   O3        1.0  0.15650  0.46930  0.58310  1.0000 -0.6429587016
O   O4        1.0  0.30070  0.42900  0.70460  1.0000 -0.6205051043
O   O5        1.0  0.43780  0.35810  0.08140  1.0000 -0.5993005755
O   O6        1.0  0.48750  0.38310  0.91120  1.0000 -0.5793138752
O   O7        1.0  0.20200  0.30160  0.91210  1.0000 -0.5577568124
O   O8        1.0  0.27280  0.32920  0.75200  1.0000 -0.6092163198
O   O9        1.0  0.39320  0.30930  0.32060  1.0000 -0.4641135047
O   O10       1.0  0.37990  0.34980  0.47750  1.0000 -0.6092163198
O   O11       1.0  0.16410  0.40540  0.31980  1.0000 -0.5993005755
O   O12       1.0  0.20030  0.36900  0.15500  1.0000 -0.552688987
O   O13       1.0  0.53740  0.82430  0.82160  1.0000 -0.5993005755
O   O14       1.0  0.46140  0.89690  0.76070  1.0000 -0.5993005755
O   O15       1.0  0.34350  0.96930  0.91690  1.0000 -0.6429587016
O   O16       1.0  0.19930  0.92900  0.79540  1.0000 -0.6205051043
O   O17       1.0  0.06220  0.85810  0.41860  1.0000 -0.5993005755
O   O18       1.0  0.01250  0.88310  0.58880  1.0000 -0.5793138752
O   O19       1.0  0.29800  0.80160  0.58790  1.0000 -0.5577568124
O   O20       1.0  0.22720  0.82920  0.74800  1.0000 -0.6092163198
O   O21       1.0  0.10680  0.80930  0.17940  1.0000 -0.4641135047
O   O22       1.0  0.12010  0.84980  0.02250  1.0000 -0.6092163198
O   O23       1.0  0.33590  0.90540  0.18020  1.0000 -0.5993005755
O   O24       1.0  0.29970  0.86900  0.34500  1.0000 -0.552688987
O   O25       1.0  0.03740  0.67570  0.32160  1.0000 -0.5993005755
O   O26       1.0  0.96140  0.60310  0.26070  1.0000 -0.5993005755
O   O27       1.0  0.84350  0.53070  0.41690  1.0000 -0.6429587016
O   O28       1.0  0.69930  0.57100  0.29540  1.0000 -0.6205051043
O   O29       1.0  0.56220  0.64190  0.91860  1.0000 -0.5993005755
O   O30       1.0  0.51250  0.61690  0.08880  1.0000 -0.5793138752
O   O31       1.0  0.79800  0.69840  0.08790  1.0000 -0.5577568124
O   O32       1.0  0.72720  0.67080  0.24800  1.0000 -0.6092163198
O   O33       1.0  0.60680  0.69070  0.67940  1.0000 -0.4641135047
O   O34       1.0  0.62010  0.65020  0.52250  1.0000 -0.6092163198
O   O35       1.0  0.83590  0.59460  0.68020  1.0000 -0.5993005755
O   O36       1.0  0.79970  0.63100  0.84500  1.0000 -0.552688987
O   O37       1.0  0.46260  0.17570  0.17840  1.0000 -0.5993005755
O   O38       1.0  0.53860  0.10310  0.23930  1.0000 -0.5993005755
O   O39       1.0  0.65650  0.03070  0.08310  1.0000 -0.6429587016
O   O40       1.0  0.80070  0.07100  0.20460  1.0000 -0.6205051043
O   O41       1.0  0.93780  0.14190  0.58140  1.0000 -0.5993005755
O   O42       1.0  0.98750  0.11690  0.41120  1.0000 -0.5793138752
O   O43       1.0  0.70200  0.19840  0.41210  1.0000 -0.5577568124
O   O44       1.0  0.77280  0.17080  0.25200  1.0000 -0.6092163198
O   O45       1.0  0.89320  0.19070  0.82060  1.0000 -0.4641135047
O   O46       1.0  0.87990  0.15020  0.97750  1.0000 -0.6092163198
O   O47       1.0  0.66410  0.09460  0.81980  1.0000 -0.5993005755
O   O48       1.0  0.70030  0.13100  0.65500  1.0000 -0.552688987
