# DDEC6 charges by PACMAN v1.1 (https://github.com/mtap-research/PACMAN-charge/)
data_2004[Cd][pcu]3[ION]1
_chemical_formula_sum              "Cd1 H30 C30 N12 F2"
_cell_length_a       10.9262
_cell_length_b       10.9262
_cell_length_c       10.9262
_cell_angle_alpha    66.5468
_cell_angle_beta     66.5468
_cell_angle_gamma    66.5468

_symmetry_space_group_name_H-M    "P 1"
_symmetry_Int_Tables_number       1

loop_
  _symmetry_equiv_pos_as_xyz
  'x, y, z'

loop_
  _atom_site_type_symbol
  _atom_site_label
  _atom_site_symmetry_multiplicity
  _atom_site_fract_x
  _atom_site_fract_y
  _atom_site_fract_z
  _atom_site_occupancy
  _atom_site_charge
Cd  Cd1       1.0  0.00000  0.00000  0.00000  1.0000 0.7011227297
H   H1        1.0  0.19965  0.19965  0.98230  1.0000 0.1227623994
H   H2        1.0  0.19965  0.98230  0.19965  1.0000 0.1227623994
H   H3        1.0  0.98230  0.19965  0.19965  1.0000 0.1227623994
H   H4        1.0  0.80035  0.01770  0.80035  1.0000 0.1227623994
H   H5        1.0  0.01770  0.80035  0.80035  1.0000 0.1227623994
H   H6        1.0  0.80035  0.80035  0.01770  1.0000 0.1227623994
H   H7        1.0  0.84410  0.33240  0.84410  1.0000 0.1265207392
H   H8        1.0  0.33240  0.84410  0.84410  1.0000 0.1265207392
H   H9        1.0  0.84410  0.84410  0.33240  1.0000 0.1265207392
H   H10       1.0  0.15590  0.15590  0.66760  1.0000 0.1265207392
H   H11       1.0  0.66760  0.15590  0.15590  1.0000 0.1265207392
H   H12       1.0  0.15590  0.66760  0.15590  1.0000 0.1265207392
H   H13       1.0  0.69425  0.42510  0.69425  1.0000 0.1227623994
H   H14       1.0  0.42510  0.69425  0.69425  1.0000 0.1227623994
H   H15       1.0  0.69425  0.69425  0.42510  1.0000 0.1227623994
H   H16       1.0  0.30575  0.30575  0.57490  1.0000 0.1227623994
H   H17       1.0  0.57490  0.30575  0.30575  1.0000 0.1227623994
H   H18       1.0  0.30575  0.57490  0.30575  1.0000 0.1227623994
H   H19       1.0  0.70040  0.17150  0.56970  1.0000 0.1227623994
H   H20       1.0  0.17150  0.56970  0.70040  1.0000 0.1227623994
H   H21       1.0  0.56970  0.70040  0.17150  1.0000 0.1227623994
H   H22       1.0  0.29960  0.43030  0.82850  1.0000 0.1227623994
H   H23       1.0  0.17150  0.70040  0.56970  1.0000 0.1227623994
H   H24       1.0  0.56970  0.17150  0.70040  1.0000 0.1227623994
H   H25       1.0  0.82850  0.43030  0.29960  1.0000 0.1227623994
H   H26       1.0  0.43030  0.29960  0.82850  1.0000 0.1227623994
H   H27       1.0  0.29960  0.82850  0.43030  1.0000 0.1227623994
H   H28       1.0  0.70040  0.56970  0.17150  1.0000 0.1227623994
H   H29       1.0  0.82850  0.29960  0.43030  1.0000 0.1227623994
H   H30       1.0  0.43030  0.82850  0.29960  1.0000 0.1227623994
C   C1        1.0  0.79295  0.10800  0.79295  1.0000 0.0887165703
C   C2        1.0  0.10800  0.79295  0.79295  1.0000 0.0887165703
C   C3        1.0  0.79295  0.79295  0.10800  1.0000 0.0887165703
C   C4        1.0  0.20705  0.20705  0.89200  1.0000 0.0887165703
C   C5        1.0  0.89200  0.20705  0.20705  1.0000 0.0887165703
C   C6        1.0  0.20705  0.89200  0.20705  1.0000 0.0887165703
C   C7        1.0  0.81655  0.27950  0.81655  1.0000 -0.0365556119
C   C8        1.0  0.27950  0.81655  0.81655  1.0000 -0.0365556119
C   C9        1.0  0.81655  0.81655  0.27950  1.0000 -0.0365556119
C   C10       1.0  0.18345  0.18345  0.72050  1.0000 -0.0365556119
C   C11       1.0  0.72050  0.18345  0.18345  1.0000 -0.0365556119
C   C12       1.0  0.18345  0.72050  0.18345  1.0000 -0.0365556119
C   C13       1.0  0.73400  0.33150  0.73400  1.0000 -0.1386626674
C   C14       1.0  0.33150  0.73400  0.73400  1.0000 -0.1386626674
C   C15       1.0  0.73400  0.73400  0.33150  1.0000 -0.1386626674
C   C16       1.0  0.26600  0.26600  0.66850  1.0000 -0.1386626674
C   C17       1.0  0.66850  0.26600  0.26600  1.0000 -0.1386626674
C   C18       1.0  0.26600  0.66850  0.26600  1.0000 -0.1386626674
C   C19       1.0  0.63865  0.22070  0.63865  1.0000 -0.1764083741
C   C20       1.0  0.22070  0.63865  0.63865  1.0000 -0.1764083741
C   C21       1.0  0.63865  0.63865  0.22070  1.0000 -0.1764083741
C   C22       1.0  0.36135  0.36135  0.77930  1.0000 -0.1764083741
C   C23       1.0  0.77930  0.36135  0.36135  1.0000 -0.1764083741
C   C24       1.0  0.36135  0.77930  0.36135  1.0000 -0.1764083741
C   C25       1.0  0.56663  0.36618  0.56663  1.0000 0.0014963919
C   C26       1.0  0.36618  0.56663  0.56663  1.0000 0.0014963919
C   C27       1.0  0.56663  0.56663  0.36618  1.0000 0.0014963919
C   C28       1.0  0.43337  0.43337  0.63382  1.0000 0.0014963919
C   C29       1.0  0.63382  0.43337  0.43337  1.0000 0.0014963919
C   C30       1.0  0.43337  0.63382  0.43337  1.0000 0.0014963919
N   N1        1.0  0.14548  0.14548  0.86153  1.0000 -0.281609313
N   N2        1.0  0.14548  0.86153  0.14548  1.0000 -0.281609313
N   N3        1.0  0.86153  0.14548  0.14548  1.0000 -0.281609313
N   N4        1.0  0.85452  0.13847  0.85452  1.0000 -0.281609313
N   N5        1.0  0.13847  0.85452  0.85452  1.0000 -0.281609313
N   N6        1.0  0.85452  0.85452  0.13847  1.0000 -0.281609313
N   N7        1.0  0.71936  0.22086  0.71936  1.0000 0.0471147435
N   N8        1.0  0.22086  0.71936  0.71936  1.0000 0.0471147435
N   N9        1.0  0.71936  0.71936  0.22086  1.0000 0.0471147435
N   N10       1.0  0.28064  0.28064  0.77914  1.0000 0.0471147435
N   N11       1.0  0.77914  0.28064  0.28064  1.0000 0.0471147435
N   N12       1.0  0.28064  0.77914  0.28064  1.0000 0.0471147435
F   F1        1.0  0.19503  0.19503  0.19503  1.0000 -0.7164485765
F   F2        1.0  0.80497  0.80497  0.80497  1.0000 -0.7146466089
