# DDEC6 charges by PACMAN v1.1 (https://github.com/mtap-research/PACMAN-charge/)
data_2005[Nd][dia]3[ION]1
_chemical_formula_sum              "Nd2 H10 C8 N4 O18"
_cell_length_a       8.507
_cell_length_b       9.762
_cell_length_c       10.249
_cell_angle_alpha    62.378
_cell_angle_beta     76.681
_cell_angle_gamma    73.858

_symmetry_space_group_name_H-M    "P 1"
_symmetry_Int_Tables_number       1

loop_
  _symmetry_equiv_pos_as_xyz
  'x, y, z'

loop_
  _atom_site_type_symbol
  _atom_site_label
  _atom_site_symmetry_multiplicity
  _atom_site_fract_x
  _atom_site_fract_y
  _atom_site_fract_z
  _atom_site_occupancy
  _atom_site_charge
Nd  Nd1       1.0  0.32982  0.36987  0.84509  1.0000 2.0130088125
Nd  Nd2       1.0  0.67018  0.63013  0.15491  1.0000 2.0130088125
H   H1        1.0  0.96975  0.12738  0.88686  1.0000 0.2578743491
H   H2        1.0  0.03025  0.87262  0.11314  1.0000 0.2578743491
H   H3        1.0  0.81512  0.28959  0.82905  1.0000 0.2873380575
H   H4        1.0  0.18488  0.71041  0.17095  1.0000 0.2873380575
H   H5        1.0  0.93126  0.20216  0.59397  1.0000 0.3275028461
H   H6        1.0  0.06874  0.79784  0.40603  1.0000 0.3275028461
H   H7        1.0  0.73766  0.20134  0.68948  1.0000 0.3275028461
H   H8        1.0  0.26234  0.79866  0.31052  1.0000 0.322478403
H   H9        1.0  0.89786  0.03500  0.74690  1.0000 0.322478403
H   H10       1.0  0.10214  0.96500  0.25310  1.0000 0.322478403
C   C1        1.0  0.98455  0.41421  0.05036  1.0000 0.5082459692
C   C2        1.0  0.01545  0.58579  0.94965  1.0000 0.5170767301
C   C3        1.0  0.42287  0.97772  0.99126  1.0000 0.5082459692
C   C4        1.0  0.57713  0.02227  0.00875  1.0000 0.5046769176
C   C5        1.0  0.56687  0.42406  0.51683  1.0000 0.5082459692
C   C6        1.0  0.43313  0.57594  0.48317  1.0000 0.5082459692
C   C7        1.0  0.55864  0.53377  0.92737  1.0000 0.5170767301
C   C8        1.0  0.44137  0.46623  0.07263  1.0000 0.5170767301
N   N1        1.0  0.86604  0.15588  0.69686  1.0000 -0.5823585397
N   N2        1.0  0.13396  0.84412  0.30314  1.0000 -0.5823585397
N   N3        1.0  0.93157  0.23329  0.79717  1.0000 -0.0199727639
N   N4        1.0  0.06843  0.76671  0.20283  1.0000 -0.0199727639
O   O1        1.0  0.07430  0.30552  0.01609  1.0000 -0.6097235288
O   O2        1.0  0.92570  0.69448  0.98391  1.0000 -0.6097235288
O   O3        1.0  0.30968  0.08970  0.92646  1.0000 -0.5988008982
O   O4        1.0  0.69032  0.91030  0.07354  1.0000 -0.5988008982
O   O5        1.0  0.54999  0.31236  0.64675  1.0000 -0.5823585397
O   O6        1.0  0.45001  0.68763  0.35325  1.0000 -0.5823585397
O   O7        1.0  0.54772  0.50617  0.82084  1.0000 -0.5988008982
O   O8        1.0  0.45228  0.49383  0.17916  1.0000 -0.5988008982
O   O9        1.0  0.42074  0.83197  0.04613  1.0000 -0.5988008982
O   O10       1.0  0.57926  0.16803  0.95387  1.0000 -0.5988008982
O   O11       1.0  0.87130  0.39776  0.15774  1.0000 -0.5889977123
O   O12       1.0  0.12871  0.60224  0.84226  1.0000 -0.5889977123
O   O13       1.0  0.65684  0.61000  0.92756  1.0000 -0.5823585397
O   O14       1.0  0.34316  0.39001  0.07244  1.0000 -0.5823585397
O   O15       1.0  0.68307  0.42118  0.41614  1.0000 -0.5623020735
O   O16       1.0  0.31693  0.57882  0.58386  1.0000 -0.5623020735
O   O17       1.0  0.03980  0.31673  0.71324  1.0000 -0.2531641927
O   O18       1.0  0.96020  0.68327  0.28676  1.0000 -0.2531641927
