# DDEC6 charges by PACMAN v1.1 (https://github.com/mtap-research/PACMAN-charge/)
data_2005[NiV][nan]3[ION]1
_chemical_formula_sum              "V32 Ni4 H64 C80 N16 Cl2 O76"
_cell_length_a       17.074
_cell_length_b       17.074
_cell_length_c       14.606
_cell_angle_alpha    90
_cell_angle_beta     90
_cell_angle_gamma    90

_symmetry_space_group_name_H-M    "P 1"
_symmetry_Int_Tables_number       1

loop_
  _symmetry_equiv_pos_as_xyz
  'x, y, z'

loop_
  _atom_site_type_symbol
  _atom_site_label
  _atom_site_symmetry_multiplicity
  _atom_site_fract_x
  _atom_site_fract_y
  _atom_site_fract_z
  _atom_site_occupancy
  _atom_site_charge
V   V1        1.0  0.12203  0.88776  0.12782  1.0000 1.939642461
V   V2        1.0  0.87797  0.11224  0.12782  1.0000 1.939642461
V   V3        1.0  0.11224  0.12203  0.87218  1.0000 1.939642461
V   V4        1.0  0.88776  0.87797  0.87218  1.0000 1.939642461
V   V5        1.0  0.37797  0.38776  0.62782  1.0000 1.939642461
V   V6        1.0  0.62203  0.61224  0.62782  1.0000 1.939642461
V   V7        1.0  0.38776  0.62203  0.37218  1.0000 1.939642461
V   V8        1.0  0.61224  0.37797  0.37218  1.0000 1.939642461
V   V9        1.0  0.18458  0.04842  0.08916  1.0000 1.8981261718
V   V10       1.0  0.81542  0.95158  0.08916  1.0000 1.8981261718
V   V11       1.0  0.95158  0.18458  0.91084  1.0000 1.8981261718
V   V12       1.0  0.04842  0.81542  0.91084  1.0000 1.8981261718
V   V13       1.0  0.31542  0.54842  0.58916  1.0000 1.8981261718
V   V14       1.0  0.68458  0.45158  0.58916  1.0000 1.8981261718
V   V15       1.0  0.54842  0.68458  0.41084  1.0000 1.8981261718
V   V16       1.0  0.45158  0.31542  0.41084  1.0000 1.8981261718
V   V17       1.0  0.96783  0.81163  0.08669  1.0000 1.9123714287
V   V18       1.0  0.03217  0.18837  0.08669  1.0000 1.9123714287
V   V19       1.0  0.18837  0.96783  0.91331  1.0000 1.9123714287
V   V20       1.0  0.81163  0.03217  0.91331  1.0000 1.9123714287
V   V21       1.0  0.53217  0.31163  0.58669  1.0000 1.9123714287
V   V22       1.0  0.46783  0.68837  0.58669  1.0000 1.9123714287
V   V23       1.0  0.31163  0.46783  0.41331  1.0000 1.9123714287
V   V24       1.0  0.68837  0.53217  0.41331  1.0000 1.9123714287
V   V25       1.0  0.06536  0.07144  0.23017  1.0000 1.9675502646
V   V26       1.0  0.93464  0.92856  0.23017  1.0000 1.9675502646
V   V27       1.0  0.92856  0.06536  0.76983  1.0000 1.9675502646
V   V28       1.0  0.07144  0.93464  0.76983  1.0000 1.9675502646
V   V29       1.0  0.43464  0.57144  0.73017  1.0000 1.9675502646
V   V30       1.0  0.56536  0.42856  0.73017  1.0000 1.9675502646
V   V31       1.0  0.57144  0.56536  0.26983  1.0000 1.9675502646
V   V32       1.0  0.42856  0.43464  0.26983  1.0000 1.9675502646
Ni  Ni1       1.0  0.25467  0.75467  0.25000  1.0000 0.7069542873
Ni  Ni2       1.0  0.74533  0.24533  0.25000  1.0000 0.7069542873
Ni  Ni3       1.0  0.24533  0.25467  0.75000  1.0000 0.7069542873
Ni  Ni4       1.0  0.75467  0.74533  0.75000  1.0000 0.7069542873
H   H1        1.0  0.18490  0.28490  0.94480  1.0000 0.1211395421
H   H2        1.0  0.81510  0.71510  0.94480  1.0000 0.1211395421
H   H3        1.0  0.71510  0.18490  0.05520  1.0000 0.1211395421
H   H4        1.0  0.28490  0.81510  0.05520  1.0000 0.1211395421
H   H5        1.0  0.31510  0.78490  0.44480  1.0000 0.1211395421
H   H6        1.0  0.68490  0.21510  0.44480  1.0000 0.1211395421
H   H7        1.0  0.78490  0.68490  0.55520  1.0000 0.1211395421
H   H8        1.0  0.21510  0.31510  0.55520  1.0000 0.1211395421
H   H9        1.0  0.18080  0.38400  0.05300  1.0000 0.1423081569
H   H10       1.0  0.81920  0.61600  0.05300  1.0000 0.1423081569
H   H11       1.0  0.61600  0.18080  0.94700  1.0000 0.1423081569
H   H12       1.0  0.38400  0.81920  0.94700  1.0000 0.1423081569
H   H13       1.0  0.31920  0.88400  0.55300  1.0000 0.1423081569
H   H14       1.0  0.68080  0.11600  0.55300  1.0000 0.1423081569
H   H15       1.0  0.88400  0.68080  0.44700  1.0000 0.1423081569
H   H16       1.0  0.11600  0.31920  0.44700  1.0000 0.1423081569
H   H17       1.0  0.23590  0.53530  0.85550  1.0000 0.1423081569
H   H18       1.0  0.76410  0.46470  0.85550  1.0000 0.1423081569
H   H19       1.0  0.46470  0.23590  0.14450  1.0000 0.1423081569
H   H20       1.0  0.53530  0.76410  0.14450  1.0000 0.1423081569
H   H21       1.0  0.26410  0.03530  0.35550  1.0000 0.1423081569
H   H22       1.0  0.73590  0.96470  0.35550  1.0000 0.1423081569
H   H23       1.0  0.03530  0.73590  0.64450  1.0000 0.1423081569
H   H24       1.0  0.96470  0.26410  0.64450  1.0000 0.1423081569
H   H25       1.0  0.23870  0.43340  0.75280  1.0000 0.1211395421
H   H26       1.0  0.76130  0.56660  0.75280  1.0000 0.1211395421
H   H27       1.0  0.56660  0.23870  0.24720  1.0000 0.1211395421
H   H28       1.0  0.43340  0.76130  0.24720  1.0000 0.1211395421
H   H29       1.0  0.26130  0.93340  0.25280  1.0000 0.1211395421
H   H30       1.0  0.73870  0.06660  0.25280  1.0000 0.1211395421
H   H31       1.0  0.93340  0.73870  0.74720  1.0000 0.1211395421
H   H32       1.0  0.06660  0.26130  0.74720  1.0000 0.1211395421
H   H33       1.0  0.25270  0.57710  0.24310  1.0000 0.1211395421
H   H34       1.0  0.74730  0.42290  0.24310  1.0000 0.1211395421
H   H35       1.0  0.42290  0.25270  0.75690  1.0000 0.1211395421
H   H36       1.0  0.57710  0.74730  0.75690  1.0000 0.1211395421
H   H37       1.0  0.24730  0.07710  0.74310  1.0000 0.1211395421
H   H38       1.0  0.75270  0.92290  0.74310  1.0000 0.1211395421
H   H39       1.0  0.07710  0.75270  0.25690  1.0000 0.1211395421
H   H40       1.0  0.92290  0.24730  0.25690  1.0000 0.1211395421
H   H41       1.0  0.24070  0.47430  0.14740  1.0000 0.1423081569
H   H42       1.0  0.75930  0.52570  0.14740  1.0000 0.1423081569
H   H43       1.0  0.52570  0.24070  0.85260  1.0000 0.1423081569
H   H44       1.0  0.47430  0.75930  0.85260  1.0000 0.1423081569
H   H45       1.0  0.25930  0.97430  0.64740  1.0000 0.1423081569
H   H46       1.0  0.74070  0.02570  0.64740  1.0000 0.1423081569
H   H47       1.0  0.97430  0.74070  0.35260  1.0000 0.1423081569
H   H48       1.0  0.02570  0.25930  0.35260  1.0000 0.1423081569
H   H49       1.0  0.16760  0.62220  0.95390  1.0000 0.1423081569
H   H50       1.0  0.83240  0.37780  0.95390  1.0000 0.1423081569
H   H51       1.0  0.37780  0.16760  0.04610  1.0000 0.1423081569
H   H52       1.0  0.62220  0.83240  0.04610  1.0000 0.1423081569
H   H53       1.0  0.33240  0.12220  0.45390  1.0000 0.1423081569
H   H54       1.0  0.66760  0.87780  0.45390  1.0000 0.1423081569
H   H55       1.0  0.12220  0.66760  0.54610  1.0000 0.1423081569
H   H56       1.0  0.87780  0.33240  0.54610  1.0000 0.1423081569
H   H57       1.0  0.17960  0.72130  0.05620  1.0000 0.1211395421
H   H58       1.0  0.82040  0.27870  0.05620  1.0000 0.1211395421
H   H59       1.0  0.27870  0.17960  0.94380  1.0000 0.1211395421
H   H60       1.0  0.72130  0.82040  0.94380  1.0000 0.1211395421
H   H61       1.0  0.32040  0.22130  0.55620  1.0000 0.1211395421
H   H62       1.0  0.67960  0.77870  0.55620  1.0000 0.1211395421
H   H63       1.0  0.22130  0.67960  0.44380  1.0000 0.1211395421
H   H64       1.0  0.77870  0.32040  0.44380  1.0000 0.1211395421
C   C1        1.0  0.19580  0.33590  0.92660  1.0000 0.1083761206
C   C2        1.0  0.80420  0.66410  0.92660  1.0000 0.1083761206
C   C3        1.0  0.66410  0.19580  0.07340  1.0000 0.1083761206
C   C4        1.0  0.33590  0.80420  0.07340  1.0000 0.1083761206
C   C5        1.0  0.30420  0.83590  0.42660  1.0000 0.1083761206
C   C6        1.0  0.69580  0.16410  0.42660  1.0000 0.1083761206
C   C7        1.0  0.83590  0.69580  0.57340  1.0000 0.1083761206
C   C8        1.0  0.16410  0.30420  0.57340  1.0000 0.1083761206
C   C9        1.0  0.19230  0.39580  0.99230  1.0000 -0.1783694795
C   C10       1.0  0.80770  0.60420  0.99230  1.0000 -0.1783694795
C   C11       1.0  0.60420  0.19230  0.00770  1.0000 -0.1703582156
C   C12       1.0  0.39580  0.80770  0.00770  1.0000 -0.1783694795
C   C13       1.0  0.30770  0.89580  0.49230  1.0000 -0.1783694795
C   C14       1.0  0.69230  0.10420  0.49230  1.0000 -0.1783694795
C   C15       1.0  0.89580  0.69230  0.50770  1.0000 -0.1783694795
C   C16       1.0  0.10420  0.30770  0.50770  1.0000 -0.1783694795
C   C17       1.0  0.20560  0.47060  0.96690  1.0000 0.1083761206
C   C18       1.0  0.79440  0.52940  0.96690  1.0000 0.1083761206
C   C19       1.0  0.52940  0.20560  0.03310  1.0000 0.1083761206
C   C20       1.0  0.47060  0.79440  0.03310  1.0000 0.1083761206
C   C21       1.0  0.29440  0.97060  0.46690  1.0000 0.1083761206
C   C22       1.0  0.70560  0.02940  0.46690  1.0000 0.1083761206
C   C23       1.0  0.97060  0.70560  0.53310  1.0000 0.1083761206
C   C24       1.0  0.02940  0.29440  0.53310  1.0000 0.1083761206
C   C25       1.0  0.22490  0.48470  0.87510  1.0000 -0.1703582156
C   C26       1.0  0.77510  0.51530  0.87510  1.0000 -0.1703582156
C   C27       1.0  0.51530  0.22490  0.12490  1.0000 -0.1703582156
C   C28       1.0  0.48470  0.77510  0.12490  1.0000 -0.1703582156
C   C29       1.0  0.27510  0.98470  0.37510  1.0000 -0.1703582156
C   C30       1.0  0.72490  0.01530  0.37510  1.0000 -0.1703582156
C   C31       1.0  0.98470  0.72490  0.62490  1.0000 -0.1703582156
C   C32       1.0  0.01530  0.27510  0.62490  1.0000 -0.1703582156
C   C33       1.0  0.22750  0.42320  0.81390  1.0000 0.1000462304
C   C34       1.0  0.77250  0.57680  0.81390  1.0000 0.1000462304
C   C35       1.0  0.57680  0.22750  0.18610  1.0000 0.1000462304
C   C36       1.0  0.42320  0.77250  0.18610  1.0000 0.1000462304
C   C37       1.0  0.27250  0.92320  0.31390  1.0000 0.1000462304
C   C38       1.0  0.72750  0.07680  0.31390  1.0000 0.1000462304
C   C39       1.0  0.92320  0.72750  0.68610  1.0000 0.1000462304
C   C40       1.0  0.07680  0.27250  0.68610  1.0000 0.1000462304
C   C41       1.0  0.23700  0.58700  0.18330  1.0000 0.1083761206
C   C42       1.0  0.76300  0.41300  0.18330  1.0000 0.1083761206
C   C43       1.0  0.41300  0.23700  0.81670  1.0000 0.1083761206
C   C44       1.0  0.58700  0.76300  0.81670  1.0000 0.1083761206
C   C45       1.0  0.26300  0.08700  0.68330  1.0000 0.1083761206
C   C46       1.0  0.73700  0.91300  0.68330  1.0000 0.1083761206
C   C47       1.0  0.08700  0.73700  0.31670  1.0000 0.1083761206
C   C48       1.0  0.91300  0.26300  0.31670  1.0000 0.1083761206
C   C49       1.0  0.23090  0.52460  0.12580  1.0000 -0.1783694795
C   C50       1.0  0.76910  0.47540  0.12580  1.0000 -0.1783694795
C   C51       1.0  0.47540  0.23090  0.87420  1.0000 -0.1783694795
C   C52       1.0  0.52460  0.76910  0.87420  1.0000 -0.1783694795
C   C53       1.0  0.26910  0.02460  0.62580  1.0000 -0.1783694795
C   C54       1.0  0.73090  0.97540  0.62580  1.0000 -0.1783694795
C   C55       1.0  0.02460  0.73090  0.37420  1.0000 -0.1783694795
C   C56       1.0  0.97540  0.26910  0.37420  1.0000 -0.1783694795
C   C57       1.0  0.20990  0.53600  0.03430  1.0000 0.1083761206
C   C58       1.0  0.79010  0.46400  0.03430  1.0000 0.1083761206
C   C59       1.0  0.46400  0.20990  0.96570  1.0000 0.1083761206
C   C60       1.0  0.53600  0.79010  0.96570  1.0000 0.1083761206
C   C61       1.0  0.29010  0.03600  0.53430  1.0000 0.1083761206
C   C62       1.0  0.70990  0.96400  0.53430  1.0000 0.1083761206
C   C63       1.0  0.03600  0.70990  0.46570  1.0000 0.1083761206
C   C64       1.0  0.96400  0.29010  0.46570  1.0000 0.1083761206
C   C65       1.0  0.18750  0.61170  0.01180  1.0000 -0.1783694795
C   C66       1.0  0.81250  0.38830  0.01180  1.0000 -0.1783694795
C   C67       1.0  0.38830  0.18750  0.98820  1.0000 -0.1783694795
C   C68       1.0  0.61170  0.81250  0.98820  1.0000 -0.1783694795
C   C69       1.0  0.31250  0.11170  0.51180  1.0000 -0.1783694795
C   C70       1.0  0.68750  0.88830  0.51180  1.0000 -0.1783694795
C   C71       1.0  0.11170  0.68750  0.48820  1.0000 -0.1783694795
C   C72       1.0  0.88830  0.31250  0.48820  1.0000 -0.1783694795
C   C73       1.0  0.19460  0.67120  0.07400  1.0000 0.0798507406
C   C74       1.0  0.80540  0.32880  0.07400  1.0000 0.0798507406
C   C75       1.0  0.32880  0.19460  0.92600  1.0000 0.0798507406
C   C76       1.0  0.67120  0.80540  0.92600  1.0000 0.0798507406
C   C77       1.0  0.30540  0.17120  0.57400  1.0000 0.0798507406
C   C78       1.0  0.69460  0.82880  0.57400  1.0000 0.0798507406
C   C79       1.0  0.17120  0.69460  0.42600  1.0000 0.0798507406
C   C80       1.0  0.82880  0.30540  0.42600  1.0000 0.0798507406
N   N1        1.0  0.22230  0.66110  0.16060  1.0000 -0.2263435256
N   N2        1.0  0.77770  0.33890  0.16060  1.0000 -0.2263435256
N   N3        1.0  0.33890  0.22230  0.83940  1.0000 -0.2263435256
N   N4        1.0  0.66110  0.77770  0.83940  1.0000 -0.2263435256
N   N5        1.0  0.27770  0.16110  0.66060  1.0000 -0.2263435256
N   N6        1.0  0.72230  0.83890  0.66060  1.0000 -0.2263435256
N   N7        1.0  0.16110  0.72230  0.33940  1.0000 -0.2263435256
N   N8        1.0  0.83890  0.27770  0.33940  1.0000 -0.2263435256
N   N9        1.0  0.21410  0.34890  0.84020  1.0000 -0.2168113982
N   N10       1.0  0.78590  0.65110  0.84020  1.0000 -0.2168113982
N   N11       1.0  0.65110  0.21410  0.15980  1.0000 -0.2168113982
N   N12       1.0  0.34890  0.78590  0.15980  1.0000 -0.2168113982
N   N13       1.0  0.28590  0.84890  0.34020  1.0000 -0.2168113982
N   N14       1.0  0.71410  0.15110  0.34020  1.0000 -0.2168113982
N   N15       1.0  0.84890  0.71410  0.65980  1.0000 -0.2168113982
N   N16       1.0  0.15110  0.28590  0.65980  1.0000 -0.2168113982
Cl  Cl1       1.0  0.50000  0.50000  0.50000  1.0000 -0.791863097
Cl  Cl2       1.0  0.00000  0.00000  0.00000  1.0000 -0.791863097
O   O1        1.0  0.18230  0.82950  0.18170  1.0000 -0.7514876854
O   O2        1.0  0.81770  0.17050  0.18170  1.0000 -0.7514876854
O   O3        1.0  0.17050  0.18230  0.81830  1.0000 -0.7514876854
O   O4        1.0  0.82950  0.81770  0.81830  1.0000 -0.7514876854
O   O5        1.0  0.31770  0.32950  0.68170  1.0000 -0.7514876854
O   O6        1.0  0.68230  0.67050  0.68170  1.0000 -0.7514876854
O   O7        1.0  0.32950  0.68230  0.31830  1.0000 -0.7514876854
O   O8        1.0  0.67050  0.31770  0.31830  1.0000 -0.7514876854
O   O9        1.0  0.12980  0.99100  0.18190  1.0000 -1.071021719
O   O10       1.0  0.87020  0.00900  0.18190  1.0000 -1.071021719
O   O11       1.0  0.00900  0.12980  0.81810  1.0000 -1.071021719
O   O12       1.0  0.99100  0.87020  0.81810  1.0000 -1.071021719
O   O13       1.0  0.37020  0.49100  0.68190  1.0000 -1.071021719
O   O14       1.0  0.62980  0.50900  0.68190  1.0000 -1.071021719
O   O15       1.0  0.49100  0.62980  0.31810  1.0000 -1.071021719
O   O16       1.0  0.50900  0.37020  0.31810  1.0000 -1.071021719
O   O17       1.0  0.18570  0.94110  0.03850  1.0000 -1.0438164902
O   O18       1.0  0.81430  0.05890  0.03850  1.0000 -1.0438164902
O   O19       1.0  0.05890  0.18570  0.96150  1.0000 -1.0438164902
O   O20       1.0  0.94110  0.81430  0.96150  1.0000 -1.0438164902
O   O21       1.0  0.31430  0.44110  0.53850  1.0000 -1.0438164902
O   O22       1.0  0.68570  0.55890  0.53850  1.0000 -1.0438164902
O   O23       1.0  0.44110  0.68570  0.46150  1.0000 -1.0438164902
O   O24       1.0  0.55890  0.31430  0.46150  1.0000 -1.0438164902
O   O25       1.0  0.01990  0.87110  0.18160  1.0000 -1.071021719
O   O26       1.0  0.98010  0.12890  0.18160  1.0000 -1.071021719
O   O27       1.0  0.12890  0.01990  0.81840  1.0000 -1.071021719
O   O28       1.0  0.87110  0.98010  0.81840  1.0000 -1.071021719
O   O29       1.0  0.48010  0.37110  0.68160  1.0000 -1.071021719
O   O30       1.0  0.51990  0.62890  0.68160  1.0000 -1.071021719
O   O31       1.0  0.37110  0.51990  0.31840  1.0000 -1.071021719
O   O32       1.0  0.62890  0.48010  0.31840  1.0000 -1.071021719
O   O33       1.0  0.07310  0.82030  0.03670  1.0000 -1.0464957934
O   O34       1.0  0.92690  0.17970  0.03670  1.0000 -1.0464957934
O   O35       1.0  0.17970  0.07310  0.96330  1.0000 -1.0464957934
O   O36       1.0  0.82030  0.92690  0.96330  1.0000 -1.0464957934
O   O37       1.0  0.42690  0.32030  0.53670  1.0000 -1.0464957934
O   O38       1.0  0.57310  0.67970  0.53670  1.0000 -1.0464957934
O   O39       1.0  0.32030  0.57310  0.46330  1.0000 -1.0464957934
O   O40       1.0  0.67970  0.42690  0.46330  1.0000 -1.0464957934
O   O41       1.0  0.12020  0.13290  0.12270  1.0000 -1.01342812
O   O42       1.0  0.87980  0.86710  0.12270  1.0000 -1.01342812
O   O43       1.0  0.86710  0.12020  0.87730  1.0000 -1.01342812
O   O44       1.0  0.13290  0.87980  0.87730  1.0000 -1.01342812
O   O45       1.0  0.37980  0.63290  0.62270  1.0000 -1.01342812
O   O46       1.0  0.62020  0.36710  0.62270  1.0000 -1.01342812
O   O47       1.0  0.63290  0.62020  0.37730  1.0000 -1.01342812
O   O48       1.0  0.36710  0.37980  0.37730  1.0000 -1.01342812
O   O49       1.0  0.27110  0.06900  0.12540  1.0000 -0.6535155234
O   O50       1.0  0.72890  0.93100  0.12540  1.0000 -0.6535155234
O   O51       1.0  0.93100  0.27110  0.87460  1.0000 -0.6535155234
O   O52       1.0  0.06900  0.72890  0.87460  1.0000 -0.6535155234
O   O53       1.0  0.22890  0.56900  0.62540  1.0000 -0.6535155234
O   O54       1.0  0.77110  0.43100  0.62540  1.0000 -0.6535155234
O   O55       1.0  0.56900  0.77110  0.37460  1.0000 -0.6535155234
O   O56       1.0  0.43100  0.22890  0.37460  1.0000 -0.6535155234
O   O57       1.0  0.95710  0.72400  0.12240  1.0000 -0.6412507799
O   O58       1.0  0.04290  0.27600  0.12240  1.0000 -0.6412507799
O   O59       1.0  0.27600  0.95710  0.87760  1.0000 -0.6412507799
O   O60       1.0  0.72400  0.04290  0.87760  1.0000 -0.6412507799
O   O61       1.0  0.54290  0.22400  0.62240  1.0000 -0.6412507799
O   O62       1.0  0.45710  0.77600  0.62240  1.0000 -0.6412507799
O   O63       1.0  0.22400  0.45710  0.37760  1.0000 -0.6412507799
O   O64       1.0  0.77600  0.54290  0.37760  1.0000 -0.6412507799
O   O65       1.0  0.10450  0.11340  0.31730  1.0000 -0.6606422943
O   O66       1.0  0.89550  0.88660  0.31730  1.0000 -0.6606422943
O   O67       1.0  0.88660  0.10450  0.68270  1.0000 -0.6606422943
O   O68       1.0  0.11340  0.89550  0.68270  1.0000 -0.6606422943
O   O69       1.0  0.39550  0.61340  0.81730  1.0000 -0.6606422943
O   O70       1.0  0.60450  0.38660  0.81730  1.0000 -0.6606422943
O   O71       1.0  0.61340  0.60450  0.18270  1.0000 -0.6606422943
O   O72       1.0  0.38660  0.39550  0.18270  1.0000 -0.6606422943
O   O73       1.0  0.00000  0.00000  0.28320  1.0000 -0.8801873011
O   O74       1.0  0.00000  0.00000  0.71680  1.0000 -0.8801873011
O   O75       1.0  0.50000  0.50000  0.78320  1.0000 -0.8801873011
O   O76       1.0  0.50000  0.50000  0.21680  1.0000 -0.8801873011
