# DDEC6 charges by PACMAN v1.1 (https://github.com/mtap-research/PACMAN-charge/)
data_2006[Cd][pyr]3[ION]1
_chemical_formula_sum              "Cd4 H144 C192 N48 Cl24 O24"
_cell_length_a       21.4638
_cell_length_b       21.4638
_cell_length_c       21.4638
_cell_angle_alpha    109.471
_cell_angle_beta     109.471
_cell_angle_gamma    109.471

_symmetry_space_group_name_H-M    "P 1"
_symmetry_Int_Tables_number       1

loop_
  _symmetry_equiv_pos_as_xyz
  'x, y, z'

loop_
  _atom_site_type_symbol
  _atom_site_label
  _atom_site_symmetry_multiplicity
  _atom_site_fract_x
  _atom_site_fract_y
  _atom_site_fract_z
  _atom_site_occupancy
  _atom_site_charge
Cd  Cd1       1.0  0.50000  0.00000  0.00000  1.0000 0.6212762311
Cd  Cd2       1.0  0.00000  0.50000  0.00000  1.0000 0.6212762311
Cd  Cd3       1.0  0.00000  0.00000  0.50000  1.0000 0.6147544101
Cd  Cd4       1.0  0.50000  0.50000  0.50000  1.0000 0.6212762311
H   H1        1.0  0.81500  0.20160  0.36340  1.0000 0.2868398443
H   H2        1.0  0.36340  0.81500  0.20160  1.0000 0.2868398443
H   H3        1.0  0.20160  0.36340  0.81500  1.0000 0.2868398443
H   H4        1.0  0.33820  0.45160  0.13660  1.0000 0.2868398443
H   H5        1.0  0.16180  0.29840  0.11340  1.0000 0.2868398443
H   H6        1.0  0.68500  0.04840  0.38660  1.0000 0.2868398443
H   H7        1.0  0.13660  0.33820  0.45160  1.0000 0.2868398443
H   H8        1.0  0.11340  0.16180  0.29840  1.0000 0.2868398443
H   H9        1.0  0.38660  0.68500  0.04840  1.0000 0.2868398443
H   H10       1.0  0.45160  0.13660  0.33820  1.0000 0.2868398443
H   H11       1.0  0.29840  0.11340  0.16180  1.0000 0.2868398443
H   H12       1.0  0.04840  0.38660  0.68500  1.0000 0.2868398443
H   H13       1.0  0.18500  0.79840  0.63660  1.0000 0.2868398443
H   H14       1.0  0.63660  0.18500  0.79840  1.0000 0.2868398443
H   H15       1.0  0.79840  0.63660  0.18500  1.0000 0.2868398443
H   H16       1.0  0.66180  0.54840  0.86340  1.0000 0.2868398443
H   H17       1.0  0.83820  0.70160  0.88660  1.0000 0.2868398443
H   H18       1.0  0.31500  0.95160  0.61340  1.0000 0.2868398443
H   H19       1.0  0.86340  0.66180  0.54840  1.0000 0.2868398443
H   H20       1.0  0.88660  0.83820  0.70160  1.0000 0.2868398443
H   H21       1.0  0.61340  0.31500  0.95160  1.0000 0.2868398443
H   H22       1.0  0.54840  0.86340  0.66180  1.0000 0.2868398443
H   H23       1.0  0.70160  0.88660  0.83820  1.0000 0.2868398443
H   H24       1.0  0.95160  0.61340  0.31500  1.0000 0.2868398443
H   H25       1.0  0.87550  0.20990  0.47500  1.0000 0.1335384637
H   H26       1.0  0.47500  0.87550  0.20990  1.0000 0.1335384637
H   H27       1.0  0.20990  0.47500  0.87550  1.0000 0.1335384637
H   H28       1.0  0.23490  0.40050  0.02500  1.0000 0.1335384637
H   H29       1.0  0.26510  0.29010  0.16560  1.0000 0.1335384637
H   H30       1.0  0.62450  0.09950  0.33440  1.0000 0.1335384637
H   H31       1.0  0.02500  0.23490  0.40050  1.0000 0.1335384637
H   H32       1.0  0.16560  0.26510  0.29010  1.0000 0.1335384637
H   H33       1.0  0.33440  0.62450  0.09950  1.0000 0.1335384637
H   H34       1.0  0.40050  0.02500  0.23490  1.0000 0.1335384637
H   H35       1.0  0.29010  0.16560  0.26510  1.0000 0.1335384637
H   H36       1.0  0.09950  0.33440  0.62450  1.0000 0.1335384637
H   H37       1.0  0.12450  0.79010  0.52500  1.0000 0.1335384637
H   H38       1.0  0.52500  0.12450  0.79010  1.0000 0.1335384637
H   H39       1.0  0.79010  0.52500  0.12450  1.0000 0.1335384637
H   H40       1.0  0.76510  0.59950  0.97500  1.0000 0.1335384637
H   H41       1.0  0.73490  0.70990  0.83440  1.0000 0.1335384637
H   H42       1.0  0.37550  0.90050  0.66560  1.0000 0.1335384637
H   H43       1.0  0.97500  0.76510  0.59950  1.0000 0.1335384637
H   H44       1.0  0.83440  0.73490  0.70990  1.0000 0.1335384637
H   H45       1.0  0.66560  0.37550  0.90050  1.0000 0.1335384637
H   H46       1.0  0.59950  0.97500  0.76510  1.0000 0.1335384637
H   H47       1.0  0.70990  0.83440  0.73490  1.0000 0.1335384637
H   H48       1.0  0.90050  0.66560  0.37550  1.0000 0.1335384637
H   H49       1.0  0.65790  0.99620  0.08070  1.0000 0.1185739803
H   H50       1.0  0.08070  0.65790  0.99620  1.0000 0.1185739803
H   H51       1.0  0.99620  0.08070  0.65790  1.0000 0.1185739803
H   H52       1.0  0.41550  0.57720  0.41930  1.0000 0.1185739803
H   H53       1.0  0.08450  0.50380  0.16170  1.0000 0.1185739803
H   H54       1.0  0.84210  0.92280  0.33830  1.0000 0.1185739803
H   H55       1.0  0.41930  0.41550  0.57720  1.0000 0.1185739803
H   H56       1.0  0.16170  0.08450  0.50380  1.0000 0.1185739803
H   H57       1.0  0.33830  0.84210  0.92280  1.0000 0.1185739803
H   H58       1.0  0.57720  0.41930  0.41550  1.0000 0.1185739803
H   H59       1.0  0.50380  0.16170  0.08450  1.0000 0.1185739803
H   H60       1.0  0.92280  0.33830  0.84210  1.0000 0.1185739803
H   H61       1.0  0.34210  0.00380  0.91930  1.0000 0.1185739803
H   H62       1.0  0.91930  0.34210  0.00380  1.0000 0.1185739803
H   H63       1.0  0.00380  0.91930  0.34210  1.0000 0.1185739803
H   H64       1.0  0.58450  0.42280  0.58070  1.0000 0.1185739803
H   H65       1.0  0.91550  0.49620  0.83830  1.0000 0.1185739803
H   H66       1.0  0.15790  0.07720  0.66170  1.0000 0.1185739803
H   H67       1.0  0.58070  0.58450  0.42280  1.0000 0.1185739803
H   H68       1.0  0.83830  0.91550  0.49620  1.0000 0.1185739803
H   H69       1.0  0.66170  0.15790  0.07720  1.0000 0.1185739803
H   H70       1.0  0.42280  0.58070  0.58450  1.0000 0.1185739803
H   H71       1.0  0.49620  0.83830  0.91550  1.0000 0.1185739803
H   H72       1.0  0.07720  0.66170  0.15790  1.0000 0.1185739803
H   H73       1.0  0.76970  0.05410  0.19320  1.0000 0.1710289908
H   H74       1.0  0.19320  0.76970  0.05410  1.0000 0.1710289908
H   H75       1.0  0.05410  0.19320  0.76970  1.0000 0.1710289908
H   H76       1.0  0.36090  0.57650  0.30680  1.0000 0.1710289908
H   H77       1.0  0.13910  0.44590  0.21560  1.0000 0.1710289908
H   H78       1.0  0.73030  0.92350  0.28440  1.0000 0.1710289908
H   H79       1.0  0.30680  0.36090  0.57650  1.0000 0.1710289908
H   H80       1.0  0.21560  0.13910  0.44590  1.0000 0.1710289908
H   H81       1.0  0.28440  0.73030  0.92350  1.0000 0.1710289908
H   H82       1.0  0.57650  0.30680  0.36090  1.0000 0.1710289908
H   H83       1.0  0.44590  0.21560  0.13910  1.0000 0.1710289908
H   H84       1.0  0.92350  0.28440  0.73030  1.0000 0.1710289908
H   H85       1.0  0.23030  0.94590  0.80680  1.0000 0.1710289908
H   H86       1.0  0.80680  0.23030  0.94590  1.0000 0.1710289908
H   H87       1.0  0.94590  0.80680  0.23030  1.0000 0.1710289908
H   H88       1.0  0.63910  0.42350  0.69320  1.0000 0.1710289908
H   H89       1.0  0.86090  0.55410  0.78440  1.0000 0.1710289908
H   H90       1.0  0.26970  0.07650  0.71560  1.0000 0.1710289908
H   H91       1.0  0.69320  0.63910  0.42350  1.0000 0.1710289908
H   H92       1.0  0.78440  0.86090  0.55410  1.0000 0.1710289908
H   H93       1.0  0.71560  0.26970  0.07650  1.0000 0.1710289908
H   H94       1.0  0.42350  0.69320  0.63910  1.0000 0.1710289908
H   H95       1.0  0.55410  0.78440  0.86090  1.0000 0.1710289908
H   H96       1.0  0.07650  0.71560  0.26970  1.0000 0.1710289908
H   H97       1.0  0.70010  0.18850  0.29240  1.0000 0.1710289908
H   H98       1.0  0.29240  0.70010  0.18850  1.0000 0.1710289908
H   H99       1.0  0.18850  0.29240  0.70010  1.0000 0.1710289908
H   H100      1.0  0.39610  0.40770  0.20760  1.0000 0.1710289908
H   H101      1.0  0.10390  0.31150  0.01160  1.0000 0.1710289908
H   H102      1.0  0.79990  0.09230  0.48840  1.0000 0.1710289908
H   H103      1.0  0.20760  0.39610  0.40770  1.0000 0.1710289908
H   H104      1.0  0.01160  0.10390  0.31150  1.0000 0.1710289908
H   H105      1.0  0.48840  0.79990  0.09230  1.0000 0.1710289908
H   H106      1.0  0.40770  0.20760  0.39610  1.0000 0.1710289908
H   H107      1.0  0.31150  0.01160  0.10390  1.0000 0.1710289908
H   H108      1.0  0.09230  0.48840  0.79990  1.0000 0.1710289908
H   H109      1.0  0.29990  0.81150  0.70760  1.0000 0.1710289908
H   H110      1.0  0.70760  0.29990  0.81150  1.0000 0.1710289908
H   H111      1.0  0.81150  0.70760  0.29990  1.0000 0.1710289908
H   H112      1.0  0.60390  0.59230  0.79240  1.0000 0.1710289908
H   H113      1.0  0.89610  0.68850  0.98840  1.0000 0.1710289908
H   H114      1.0  0.20010  0.90770  0.51160  1.0000 0.1710289908
H   H115      1.0  0.79240  0.60390  0.59230  1.0000 0.1710289908
H   H116      1.0  0.98840  0.89610  0.68850  1.0000 0.1710289908
H   H117      1.0  0.51160  0.20010  0.90770  1.0000 0.1710289908
H   H118      1.0  0.59230  0.79240  0.60390  1.0000 0.1710289908
H   H119      1.0  0.68850  0.98840  0.89610  1.0000 0.1710289908
H   H120      1.0  0.90770  0.51160  0.20010  1.0000 0.1710289908
H   H121      1.0  0.58810  0.12240  0.17930  1.0000 0.1185739803
H   H122      1.0  0.17930  0.58810  0.12240  1.0000 0.1185739803
H   H123      1.0  0.12240  0.17930  0.58810  1.0000 0.1185739803
H   H124      1.0  0.44310  0.40880  0.32070  1.0000 0.1185739803
H   H125      1.0  0.05690  0.37760  0.96570  1.0000 0.1185739803
H   H126      1.0  0.91190  0.09120  0.53430  1.0000 0.1185739803
H   H127      1.0  0.32070  0.44310  0.40880  1.0000 0.1185739803
H   H128      1.0  0.96570  0.05690  0.37760  1.0000 0.1185739803
H   H129      1.0  0.53430  0.91190  0.09120  1.0000 0.1185739803
H   H130      1.0  0.40880  0.32070  0.44310  1.0000 0.1185739803
H   H131      1.0  0.37760  0.96570  0.05690  1.0000 0.1185739803
H   H132      1.0  0.09120  0.53430  0.91190  1.0000 0.1185739803
H   H133      1.0  0.41190  0.87760  0.82070  1.0000 0.1185739803
H   H134      1.0  0.82070  0.41190  0.87760  1.0000 0.1185739803
H   H135      1.0  0.87760  0.82070  0.41190  1.0000 0.1185739803
H   H136      1.0  0.55690  0.59120  0.67930  1.0000 0.1185739803
H   H137      1.0  0.94310  0.62240  0.03430  1.0000 0.1185739803
H   H138      1.0  0.08810  0.90880  0.46570  1.0000 0.1185739803
H   H139      1.0  0.67930  0.55690  0.59120  1.0000 0.1185739803
H   H140      1.0  0.03430  0.94310  0.62240  1.0000 0.1185739803
H   H141      1.0  0.46570  0.08810  0.90880  1.0000 0.1185739803
H   H142      1.0  0.59120  0.67930  0.55690  1.0000 0.1185739803
H   H143      1.0  0.62240  0.03430  0.94310  1.0000 0.1185739803
H   H144      1.0  0.90880  0.46570  0.08810  1.0000 0.1185739803
C   C1        1.0  0.92570  0.23030  0.48520  1.0000 -0.0979932309
C   C2        1.0  0.48520  0.92570  0.23030  1.0000 -0.0979932309
C   C3        1.0  0.23030  0.48520  0.92570  1.0000 -0.0979932309
C   C4        1.0  0.24510  0.44050  0.01480  1.0000 -0.0979932309
C   C5        1.0  0.25490  0.26970  0.19540  1.0000 -0.0979932309
C   C6        1.0  0.57430  0.05950  0.30460  1.0000 -0.0979932309
C   C7        1.0  0.01480  0.24510  0.44050  1.0000 -0.0979932309
C   C8        1.0  0.19540  0.25490  0.26970  1.0000 -0.0979932309
C   C9        1.0  0.30460  0.57430  0.05950  1.0000 -0.0979932309
C   C10       1.0  0.44050  0.01480  0.24510  1.0000 -0.0979932309
C   C11       1.0  0.26970  0.19540  0.25490  1.0000 -0.0979932309
C   C12       1.0  0.05950  0.30460  0.57430  1.0000 -0.0979932309
C   C13       1.0  0.07430  0.76970  0.51480  1.0000 -0.0979932309
C   C14       1.0  0.51480  0.07430  0.76970  1.0000 -0.0979932309
C   C15       1.0  0.76970  0.51480  0.07430  1.0000 -0.0979932309
C   C16       1.0  0.75490  0.55950  0.98520  1.0000 -0.0979932309
C   C17       1.0  0.74510  0.73030  0.80460  1.0000 -0.0979932309
C   C18       1.0  0.42570  0.94050  0.69540  1.0000 -0.0979932309
C   C19       1.0  0.98520  0.75490  0.55950  1.0000 -0.0979932309
C   C20       1.0  0.80460  0.74510  0.73030  1.0000 -0.0979932309
C   C21       1.0  0.69540  0.42570  0.94050  1.0000 -0.0979932309
C   C22       1.0  0.55950  0.98520  0.75490  1.0000 -0.0979932309
C   C23       1.0  0.73030  0.80460  0.74510  1.0000 -0.0979932309
C   C24       1.0  0.94050  0.69540  0.42570  1.0000 -0.0979932309
C   C25       1.0  0.94100  0.21560  0.42540  1.0000 -0.0059246362
C   C26       1.0  0.42540  0.94100  0.21560  1.0000 -0.0059246362
C   C27       1.0  0.21560  0.42540  0.94100  1.0000 -0.0059246362
C   C28       1.0  0.29020  0.51560  0.07460  1.0000 -0.0059246362
C   C29       1.0  0.20980  0.28440  0.22540  1.0000 -0.0059246362
C   C30       1.0  0.55900  0.98440  0.27460  1.0000 -0.0059246362
C   C31       1.0  0.07460  0.29020  0.51560  1.0000 -0.0059246362
C   C32       1.0  0.22540  0.20980  0.28440  1.0000 -0.0059246362
C   C33       1.0  0.27460  0.55900  0.98440  1.0000 -0.0059246362
C   C34       1.0  0.51560  0.07460  0.29020  1.0000 -0.0059246362
C   C35       1.0  0.28440  0.22540  0.20980  1.0000 -0.0059246362
C   C36       1.0  0.98440  0.27460  0.55900  1.0000 -0.0059246362
C   C37       1.0  0.05900  0.78440  0.57460  1.0000 -0.0059246362
C   C38       1.0  0.57460  0.05900  0.78440  1.0000 -0.0059246362
C   C39       1.0  0.78440  0.57460  0.05900  1.0000 -0.0059246362
C   C40       1.0  0.70980  0.48440  0.92540  1.0000 -0.0059246362
C   C41       1.0  0.79020  0.71560  0.77460  1.0000 -0.0059246362
C   C42       1.0  0.44100  0.01560  0.72540  1.0000 -0.0059246362
C   C43       1.0  0.92540  0.70980  0.48440  1.0000 -0.0059246362
C   C44       1.0  0.77460  0.79020  0.71560  1.0000 -0.0059246362
C   C45       1.0  0.72540  0.44100  0.01560  1.0000 -0.0059246362
C   C46       1.0  0.48440  0.92540  0.70980  1.0000 -0.0059246362
C   C47       1.0  0.71560  0.77460  0.79020  1.0000 -0.0059246362
C   C48       1.0  0.01560  0.72540  0.44100  1.0000 -0.0059246362
C   C49       1.0  0.87820  0.16380  0.34320  1.0000 0.4905795519
C   C50       1.0  0.34320  0.87820  0.16380  1.0000 0.4905795519
C   C51       1.0  0.16380  0.34320  0.87820  1.0000 0.4905795519
C   C52       1.0  0.32060  0.53500  0.15680  1.0000 0.4905795519
C   C53       1.0  0.17940  0.33620  0.21440  1.0000 0.4905795519
C   C54       1.0  0.62180  0.96500  0.28560  1.0000 0.4905795519
C   C55       1.0  0.15680  0.32060  0.53500  1.0000 0.4905795519
C   C56       1.0  0.21440  0.17940  0.33620  1.0000 0.4905795519
C   C57       1.0  0.28560  0.62180  0.96500  1.0000 0.4905795519
C   C58       1.0  0.53500  0.15680  0.32060  1.0000 0.4905795519
C   C59       1.0  0.33620  0.21440  0.17940  1.0000 0.4905795519
C   C60       1.0  0.96500  0.28560  0.62180  1.0000 0.4905795519
C   C61       1.0  0.12180  0.83620  0.65680  1.0000 0.4905795519
C   C62       1.0  0.65680  0.12180  0.83620  1.0000 0.4905795519
C   C63       1.0  0.83620  0.65680  0.12180  1.0000 0.4905795519
C   C64       1.0  0.67940  0.46500  0.84320  1.0000 0.4905795519
C   C65       1.0  0.82060  0.66380  0.78560  1.0000 0.4905795519
C   C66       1.0  0.37820  0.03500  0.71440  1.0000 0.4905795519
C   C67       1.0  0.84320  0.67940  0.46500  1.0000 0.4905795519
C   C68       1.0  0.78560  0.82060  0.66380  1.0000 0.4905795519
C   C69       1.0  0.71440  0.37820  0.03500  1.0000 0.4905795519
C   C70       1.0  0.46500  0.84320  0.67940  1.0000 0.4905795519
C   C71       1.0  0.66380  0.78560  0.82060  1.0000 0.4905795519
C   C72       1.0  0.03500  0.71440  0.37820  1.0000 0.4905795519
C   C73       1.0  0.66620  0.03510  0.12410  1.0000 0.0800313555
C   C74       1.0  0.12410  0.66620  0.03510  1.0000 0.0800313555
C   C75       1.0  0.03510  0.12410  0.66620  1.0000 0.0800313555
C   C76       1.0  0.41100  0.54210  0.37590  1.0000 0.0800313555
C   C77       1.0  0.08900  0.46490  0.13110  1.0000 0.0800313555
C   C78       1.0  0.83380  0.95790  0.36890  1.0000 0.0800313555
C   C79       1.0  0.37590  0.41100  0.54210  1.0000 0.0800313555
C   C80       1.0  0.13110  0.08900  0.46490  1.0000 0.0800313555
C   C81       1.0  0.36890  0.83380  0.95790  1.0000 0.0800313555
C   C82       1.0  0.54210  0.37590  0.41100  1.0000 0.0800313555
C   C83       1.0  0.46490  0.13110  0.08900  1.0000 0.0800313555
C   C84       1.0  0.95790  0.36890  0.83380  1.0000 0.0800313555
C   C85       1.0  0.33380  0.96490  0.87590  1.0000 0.0800313555
C   C86       1.0  0.87590  0.33380  0.96490  1.0000 0.0800313555
C   C87       1.0  0.96490  0.87590  0.33380  1.0000 0.0800313555
C   C88       1.0  0.58900  0.45790  0.62410  1.0000 0.0800313555
C   C89       1.0  0.91100  0.53510  0.86890  1.0000 0.0800313555
C   C90       1.0  0.16620  0.04210  0.63110  1.0000 0.0800313555
C   C91       1.0  0.62410  0.58900  0.45790  1.0000 0.0800313555
C   C92       1.0  0.86890  0.91100  0.53510  1.0000 0.0800313555
C   C93       1.0  0.63110  0.16620  0.04210  1.0000 0.0800313555
C   C94       1.0  0.45790  0.62410  0.58900  1.0000 0.0800313555
C   C95       1.0  0.53510  0.86890  0.91100  1.0000 0.0800313555
C   C96       1.0  0.04210  0.63110  0.16620  1.0000 0.0800313555
C   C97       1.0  0.73420  0.07020  0.19140  1.0000 -0.1952635184
C   C98       1.0  0.19140  0.73420  0.07020  1.0000 -0.1952635184
C   C99       1.0  0.07020  0.19140  0.73420  1.0000 -0.1942487829
C   C100      1.0  0.37880  0.54280  0.30860  1.0000 -0.1942487829
C   C101      1.0  0.12120  0.42980  0.16400  1.0000 -0.1942487829
C   C102      1.0  0.76580  0.95720  0.33600  1.0000 -0.1942487829
C   C103      1.0  0.30860  0.37880  0.54280  1.0000 -0.1952635184
C   C104      1.0  0.16400  0.12120  0.42980  1.0000 -0.1942487829
C   C105      1.0  0.33600  0.76580  0.95720  1.0000 -0.1952635184
C   C106      1.0  0.54280  0.30860  0.37880  1.0000 -0.1942487829
C   C107      1.0  0.42980  0.16400  0.12120  1.0000 -0.1942487829
C   C108      1.0  0.95720  0.33600  0.76580  1.0000 -0.1942487829
C   C109      1.0  0.26580  0.92980  0.80860  1.0000 -0.1942487829
C   C110      1.0  0.80860  0.26580  0.92980  1.0000 -0.1952635184
C   C111      1.0  0.92980  0.80860  0.26580  1.0000 -0.1942487829
C   C112      1.0  0.62120  0.45720  0.69140  1.0000 -0.1952635184
C   C113      1.0  0.87880  0.57020  0.83600  1.0000 -0.1942487829
C   C114      1.0  0.23420  0.04280  0.66400  1.0000 -0.1942487829
C   C115      1.0  0.69140  0.62120  0.45720  1.0000 -0.1942487829
C   C116      1.0  0.83600  0.87880  0.57020  1.0000 -0.1942487829
C   C117      1.0  0.66400  0.23420  0.04280  1.0000 -0.1942487829
C   C118      1.0  0.45720  0.69140  0.62120  1.0000 -0.1952635184
C   C119      1.0  0.57020  0.83600  0.87880  1.0000 -0.1942487829
C   C120      1.0  0.04280  0.66400  0.23420  1.0000 -0.1952635184
C   C121      1.0  0.74880  0.12930  0.25570  1.0000 0.2819758817
C   C122      1.0  0.25570  0.74880  0.12930  1.0000 0.2819758817
C   C123      1.0  0.12930  0.25570  0.74880  1.0000 0.2819758817
C   C124      1.0  0.37360  0.49310  0.24430  1.0000 0.2819758817
C   C125      1.0  0.12640  0.37070  0.11950  1.0000 0.2819758817
C   C126      1.0  0.75120  0.00690  0.38050  1.0000 0.2819758817
C   C127      1.0  0.24430  0.37360  0.49310  1.0000 0.2819758817
C   C128      1.0  0.11950  0.12640  0.37070  1.0000 0.2819758817
C   C129      1.0  0.38050  0.75120  0.00690  1.0000 0.2819758817
C   C130      1.0  0.49310  0.24430  0.37360  1.0000 0.2819758817
C   C131      1.0  0.37070  0.11950  0.12640  1.0000 0.2819758817
C   C132      1.0  0.00690  0.38050  0.75120  1.0000 0.2819758817
C   C133      1.0  0.25120  0.87070  0.74430  1.0000 0.2819758817
C   C134      1.0  0.74430  0.25120  0.87070  1.0000 0.2819758817
C   C135      1.0  0.87070  0.74430  0.25120  1.0000 0.2819758817
C   C136      1.0  0.62640  0.50690  0.75570  1.0000 0.2819758817
C   C137      1.0  0.87360  0.62930  0.88050  1.0000 0.2819758817
C   C138      1.0  0.24880  0.99310  0.61950  1.0000 0.2819758817
C   C139      1.0  0.75570  0.62640  0.50690  1.0000 0.2819758817
C   C140      1.0  0.88050  0.87360  0.62930  1.0000 0.2819758817
C   C141      1.0  0.61950  0.24880  0.99310  1.0000 0.2819758817
C   C142      1.0  0.50690  0.75570  0.62640  1.0000 0.2819758817
C   C143      1.0  0.62930  0.88050  0.87360  1.0000 0.2819758817
C   C144      1.0  0.99310  0.61950  0.24880  1.0000 0.2819758817
C   C145      1.0  0.69260  0.14900  0.25020  1.0000 -0.1942487829
C   C146      1.0  0.25020  0.69260  0.14900  1.0000 -0.1942487829
C   C147      1.0  0.14900  0.25020  0.69260  1.0000 -0.1942487829
C   C148      1.0  0.39880  0.44240  0.24980  1.0000 -0.1942487829
C   C149      1.0  0.10120  0.35100  0.04360  1.0000 -0.1942487829
C   C150      1.0  0.80740  0.05760  0.45640  1.0000 -0.1942487829
C   C151      1.0  0.24980  0.39880  0.44240  1.0000 -0.1942487829
C   C152      1.0  0.04360  0.10120  0.35100  1.0000 -0.1942487829
C   C153      1.0  0.45640  0.80740  0.05760  1.0000 -0.1942487829
C   C154      1.0  0.44240  0.24980  0.39880  1.0000 -0.1942487829
C   C155      1.0  0.35100  0.04360  0.10120  1.0000 -0.1942487829
C   C156      1.0  0.05760  0.45640  0.80740  1.0000 -0.1942487829
C   C157      1.0  0.30740  0.85100  0.74980  1.0000 -0.1942487829
C   C158      1.0  0.74980  0.30740  0.85100  1.0000 -0.1942487829
C   C159      1.0  0.85100  0.74980  0.30740  1.0000 -0.1942487829
C   C160      1.0  0.60120  0.55760  0.75020  1.0000 -0.1942487829
C   C161      1.0  0.89880  0.64900  0.95640  1.0000 -0.1942487829
C   C162      1.0  0.19260  0.94240  0.54360  1.0000 -0.1942487829
C   C163      1.0  0.75020  0.60120  0.55760  1.0000 -0.1942487829
C   C164      1.0  0.95640  0.89880  0.64900  1.0000 -0.1942487829
C   C165      1.0  0.54360  0.19260  0.94240  1.0000 -0.1942487829
C   C166      1.0  0.55760  0.75020  0.60120  1.0000 -0.1942487829
C   C167      1.0  0.64900  0.95640  0.89880  1.0000 -0.1942487829
C   C168      1.0  0.94240  0.54360  0.19260  1.0000 -0.1942487829
C   C169      1.0  0.62580  0.10960  0.18160  1.0000 0.0858555724
C   C170      1.0  0.18160  0.62580  0.10960  1.0000 0.0858555724
C   C171      1.0  0.10960  0.18160  0.62580  1.0000 0.0858555724
C   C172      1.0  0.42800  0.44420  0.31840  1.0000 0.0858555724
C   C173      1.0  0.07200  0.39040  0.01620  1.0000 0.0858555724
C   C174      1.0  0.87420  0.05580  0.48380  1.0000 0.0858555724
C   C175      1.0  0.31840  0.42800  0.44420  1.0000 0.0858555724
C   C176      1.0  0.01620  0.07200  0.39040  1.0000 0.0858555724
C   C177      1.0  0.48380  0.87420  0.05580  1.0000 0.0858555724
C   C178      1.0  0.44420  0.31840  0.42800  1.0000 0.0858555724
C   C179      1.0  0.39040  0.01620  0.07200  1.0000 0.0858555724
C   C180      1.0  0.05580  0.48380  0.87420  1.0000 0.0858555724
C   C181      1.0  0.37420  0.89040  0.81840  1.0000 0.0858555724
C   C182      1.0  0.81840  0.37420  0.89040  1.0000 0.0858555724
C   C183      1.0  0.89040  0.81840  0.37420  1.0000 0.0858555724
C   C184      1.0  0.57200  0.55580  0.68160  1.0000 0.0858555724
C   C185      1.0  0.92800  0.60960  0.98380  1.0000 0.0858555724
C   C186      1.0  0.12580  0.94420  0.51620  1.0000 0.0858555724
C   C187      1.0  0.68160  0.57200  0.55580  1.0000 0.0858555724
C   C188      1.0  0.98380  0.92800  0.60960  1.0000 0.0858555724
C   C189      1.0  0.51620  0.12580  0.94420  1.0000 0.0858555724
C   C190      1.0  0.55580  0.68160  0.57200  1.0000 0.0858555724
C   C191      1.0  0.60960  0.98380  0.92800  1.0000 0.0858555724
C   C192      1.0  0.94420  0.51620  0.12580  1.0000 0.0858555724
N   N1        1.0  0.61207  0.05368  0.11791  1.0000 -0.2467825398
N   N2        1.0  0.11791  0.61207  0.05368  1.0000 -0.2467825398
N   N3        1.0  0.05368  0.11791  0.61207  1.0000 -0.2467825398
N   N4        1.0  0.43577  0.49416  0.38209  1.0000 -0.2467825398
N   N5        1.0  0.06423  0.44632  0.05839  1.0000 -0.2467825398
N   N6        1.0  0.88793  0.00584  0.44161  1.0000 -0.2467825398
N   N7        1.0  0.38209  0.43577  0.49416  1.0000 -0.2467825398
N   N8        1.0  0.05839  0.06423  0.44632  1.0000 -0.2467825398
N   N9        1.0  0.44161  0.88793  0.00584  1.0000 -0.2467825398
N   N10       1.0  0.49416  0.38209  0.43577  1.0000 -0.2467825398
N   N11       1.0  0.44632  0.05839  0.06423  1.0000 -0.2467825398
N   N12       1.0  0.00584  0.44161  0.88793  1.0000 -0.2467825398
N   N13       1.0  0.38793  0.94632  0.88209  1.0000 -0.2467825398
N   N14       1.0  0.88209  0.38793  0.94632  1.0000 -0.2467825398
N   N15       1.0  0.94632  0.88209  0.38793  1.0000 -0.2467825398
N   N16       1.0  0.56423  0.50584  0.61791  1.0000 -0.2467825398
N   N17       1.0  0.93577  0.55368  0.94161  1.0000 -0.2467825398
N   N18       1.0  0.11207  0.99416  0.55839  1.0000 -0.2467825398
N   N19       1.0  0.61791  0.56423  0.50584  1.0000 -0.2467825398
N   N20       1.0  0.94161  0.93577  0.55368  1.0000 -0.2467825398
N   N21       1.0  0.55839  0.11207  0.99416  1.0000 -0.2467825398
N   N22       1.0  0.50584  0.61791  0.56423  1.0000 -0.2467825398
N   N23       1.0  0.55368  0.94161  0.93577  1.0000 -0.2467825398
N   N24       1.0  0.99416  0.55839  0.11207  1.0000 -0.2467825398
N   N25       1.0  0.81470  0.16930  0.32620  1.0000 -0.3248752937
N   N26       1.0  0.32620  0.81470  0.16930  1.0000 -0.3248752937
N   N27       1.0  0.16930  0.32620  0.81470  1.0000 -0.3248752937
N   N28       1.0  0.34310  0.48850  0.17380  1.0000 -0.3248752937
N   N29       1.0  0.15690  0.33070  0.14540  1.0000 -0.3252899632
N   N30       1.0  0.68530  0.01150  0.35460  1.0000 -0.3248752937
N   N31       1.0  0.17380  0.34310  0.48850  1.0000 -0.3252899632
N   N32       1.0  0.14540  0.15690  0.33070  1.0000 -0.3252899632
N   N33       1.0  0.35460  0.68530  0.01150  1.0000 -0.3248752937
N   N34       1.0  0.48850  0.17380  0.34310  1.0000 -0.3252899632
N   N35       1.0  0.33070  0.14540  0.15690  1.0000 -0.3248752937
N   N36       1.0  0.01150  0.35460  0.68530  1.0000 -0.3248752937
N   N37       1.0  0.18530  0.83070  0.67380  1.0000 -0.3248752937
N   N38       1.0  0.67380  0.18530  0.83070  1.0000 -0.3248752937
N   N39       1.0  0.83070  0.67380  0.18530  1.0000 -0.3248752937
N   N40       1.0  0.65690  0.51150  0.82620  1.0000 -0.3248752937
N   N41       1.0  0.84310  0.66930  0.85460  1.0000 -0.3248752937
N   N42       1.0  0.31470  0.98850  0.64540  1.0000 -0.3248752937
N   N43       1.0  0.82620  0.65690  0.51150  1.0000 -0.3248752937
N   N44       1.0  0.85460  0.84310  0.66930  1.0000 -0.3248752937
N   N45       1.0  0.64540  0.31470  0.98850  1.0000 -0.3248752937
N   N46       1.0  0.51150  0.82620  0.65690  1.0000 -0.3248752937
N   N47       1.0  0.66930  0.85460  0.84310  1.0000 -0.3248752937
N   N48       1.0  0.98850  0.64540  0.31470  1.0000 -0.3248752937
Cl  Cl1       1.0  0.88090  0.51610  0.31200  1.0000 -0.5284561699
Cl  Cl2       1.0  0.79590  0.98390  0.86480  1.0000 -0.5204448387
Cl  Cl3       1.0  0.61910  0.93110  0.63520  1.0000 -0.5204448387
Cl  Cl4       1.0  0.51610  0.31200  0.88090  1.0000 -0.5204448387
Cl  Cl5       1.0  0.98390  0.86480  0.79590  1.0000 -0.5284561699
Cl  Cl6       1.0  0.93110  0.63520  0.61910  1.0000 -0.5284561699
Cl  Cl7       1.0  0.31200  0.88090  0.51610  1.0000 -0.5204448387
Cl  Cl8       1.0  0.86480  0.79590  0.98390  1.0000 -0.5204448387
Cl  Cl9       1.0  0.63520  0.61910  0.93110  1.0000 -0.5204448387
Cl  Cl10      1.0  0.70410  0.56890  0.18800  1.0000 -0.5204448387
Cl  Cl11      1.0  0.56890  0.18800  0.70410  1.0000 -0.5204448387
Cl  Cl12      1.0  0.18800  0.70410  0.56890  1.0000 -0.5284561699
Cl  Cl13      1.0  0.11910  0.48390  0.68800  1.0000 -0.5204448387
Cl  Cl14      1.0  0.20410  0.01610  0.13520  1.0000 -0.5204448387
Cl  Cl15      1.0  0.38090  0.06890  0.36480  1.0000 -0.5204448387
Cl  Cl16      1.0  0.48390  0.68800  0.11910  1.0000 -0.5284561699
Cl  Cl17      1.0  0.01610  0.13520  0.20410  1.0000 -0.5204448387
Cl  Cl18      1.0  0.06890  0.36480  0.38090  1.0000 -0.5204448387
Cl  Cl19      1.0  0.68800  0.11910  0.48390  1.0000 -0.5284561699
Cl  Cl20      1.0  0.13520  0.20410  0.01610  1.0000 -0.5204448387
Cl  Cl21      1.0  0.36480  0.38090  0.06890  1.0000 -0.5204448387
Cl  Cl22      1.0  0.29590  0.43110  0.81200  1.0000 -0.5204448387
Cl  Cl23      1.0  0.43110  0.81200  0.29590  1.0000 -0.5204448387
Cl  Cl24      1.0  0.81200  0.29590  0.43110  1.0000 -0.5204448387
O   O1        1.0  0.88650  0.12080  0.29690  1.0000 -0.4541342959
O   O2        1.0  0.29690  0.88650  0.12080  1.0000 -0.4541342959
O   O3        1.0  0.12080  0.29690  0.88650  1.0000 -0.4541342959
O   O4        1.0  0.32390  0.58960  0.20310  1.0000 -0.4541342959
O   O5        1.0  0.17610  0.37920  0.26570  1.0000 -0.4541342959
O   O6        1.0  0.61350  0.91040  0.23430  1.0000 -0.4541342959
O   O7        1.0  0.20310  0.32390  0.58960  1.0000 -0.4541342959
O   O8        1.0  0.26570  0.17610  0.37920  1.0000 -0.4541342959
O   O9        1.0  0.23430  0.61350  0.91040  1.0000 -0.4541342959
O   O10       1.0  0.58960  0.20310  0.32390  1.0000 -0.4555641994
O   O11       1.0  0.37920  0.26570  0.17610  1.0000 -0.4541342959
O   O12       1.0  0.91040  0.23430  0.61350  1.0000 -0.4541342959
O   O13       1.0  0.11350  0.87920  0.70310  1.0000 -0.4541342959
O   O14       1.0  0.70310  0.11350  0.87920  1.0000 -0.4541342959
O   O15       1.0  0.87920  0.70310  0.11350  1.0000 -0.4555641994
O   O16       1.0  0.67610  0.41040  0.79690  1.0000 -0.4541342959
O   O17       1.0  0.82390  0.62080  0.73430  1.0000 -0.4555641994
O   O18       1.0  0.38650  0.08960  0.76570  1.0000 -0.4541342959
O   O19       1.0  0.79690  0.67610  0.41040  1.0000 -0.4555641994
O   O20       1.0  0.73430  0.82390  0.62080  1.0000 -0.4541342959
O   O21       1.0  0.76570  0.38650  0.08960  1.0000 -0.4541342959
O   O22       1.0  0.41040  0.79690  0.67610  1.0000 -0.4541342959
O   O23       1.0  0.62080  0.73430  0.82390  1.0000 -0.4541342959
O   O24       1.0  0.08960  0.76570  0.38650  1.0000 -0.4541342959
