# DDEC6 charges by PACMAN v1.1 (https://github.com/mtap-research/PACMAN-charge/)
data_2006[Cu][dia]3[ION]1
_chemical_formula_sum              "Cu4 H32 C40 N8 Cl2"
_cell_length_a       5.5864
_cell_length_b       12.769
_cell_length_c       15.621
_cell_angle_alpha    90
_cell_angle_beta     90
_cell_angle_gamma    90

_symmetry_space_group_name_H-M    "P 1"
_symmetry_Int_Tables_number       1

loop_
  _symmetry_equiv_pos_as_xyz
  'x, y, z'

loop_
  _atom_site_type_symbol
  _atom_site_label
  _atom_site_symmetry_multiplicity
  _atom_site_fract_x
  _atom_site_fract_y
  _atom_site_fract_z
  _atom_site_occupancy
  _atom_site_charge
Cu  Cu1       1.0  0.25000  0.75000  0.59770  1.0000 0.2478272442
Cu  Cu2       1.0  0.25000  0.75000  0.90230  1.0000 0.2478272442
Cu  Cu3       1.0  0.75000  0.25000  0.40230  1.0000 0.2478272442
Cu  Cu4       1.0  0.75000  0.25000  0.09770  1.0000 0.2478272442
H   H1        1.0  0.87610  0.62490  0.67900  1.0000 0.0987969592
H   H2        1.0  0.56820  0.51730  0.64080  1.0000 0.1264080826
H   H3        1.0  0.71260  0.57780  0.39640  1.0000 0.1224856202
H   H4        1.0  0.02520  0.68020  0.44100  1.0000 0.0919926327
H   H5        1.0  0.62390  0.87510  0.67900  1.0000 0.0987969592
H   H6        1.0  0.93180  0.98270  0.64080  1.0000 0.1264080826
H   H7        1.0  0.78740  0.92220  0.39640  1.0000 0.1224856202
H   H8        1.0  0.47480  0.81980  0.44100  1.0000 0.0919926327
H   H9        1.0  0.62390  0.62490  0.82100  1.0000 0.0987969592
H   H10       1.0  0.93180  0.51730  0.85920  1.0000 0.1264080826
H   H11       1.0  0.78740  0.57780  0.10360  1.0000 0.1224856202
H   H12       1.0  0.47480  0.68020  0.05900  1.0000 0.0919926327
H   H13       1.0  0.87610  0.87510  0.82100  1.0000 0.0987969592
H   H14       1.0  0.56820  0.98270  0.85920  1.0000 0.1264080826
H   H15       1.0  0.71260  0.92220  0.10360  1.0000 0.1224856202
H   H16       1.0  0.02520  0.81980  0.05900  1.0000 0.0919926327
H   H17       1.0  0.12390  0.37510  0.32100  1.0000 0.0987969592
H   H18       1.0  0.43180  0.48270  0.35920  1.0000 0.1264080826
H   H19       1.0  0.28740  0.42220  0.60360  1.0000 0.1224856202
H   H20       1.0  0.97480  0.31980  0.55900  1.0000 0.0919926327
H   H21       1.0  0.37610  0.12490  0.32100  1.0000 0.0987969592
H   H22       1.0  0.06820  0.01730  0.35920  1.0000 0.1264080826
H   H23       1.0  0.21260  0.07780  0.60360  1.0000 0.1224856202
H   H24       1.0  0.52520  0.18020  0.55900  1.0000 0.0919926327
H   H25       1.0  0.37610  0.37510  0.17900  1.0000 0.0987969592
H   H26       1.0  0.06820  0.48270  0.14080  1.0000 0.1264080826
H   H27       1.0  0.21260  0.42220  0.89640  1.0000 0.1224856202
H   H28       1.0  0.52520  0.31980  0.94100  1.0000 0.0919926327
H   H29       1.0  0.12390  0.12490  0.17900  1.0000 0.0987969592
H   H30       1.0  0.43180  0.01730  0.14080  1.0000 0.1264080826
H   H31       1.0  0.28740  0.07780  0.89640  1.0000 0.1224856202
H   H32       1.0  0.97480  0.18020  0.94100  1.0000 0.0919926327
C   C1        1.0  0.84530  0.61420  0.62110  1.0000 0.0532335855
C   C2        1.0  0.65790  0.55020  0.59850  1.0000 -0.2181854758
C   C3        1.0  0.60170  0.53420  0.51370  1.0000 0.0919926327
C   C4        1.0  0.74340  0.58510  0.45460  1.0000 -0.2107598212
C   C5        1.0  0.93140  0.64710  0.48210  1.0000 0.0532335855
C   C6        1.0  0.65470  0.88580  0.62110  1.0000 0.0532335855
C   C7        1.0  0.84210  0.94980  0.59850  1.0000 -0.2181854758
C   C8        1.0  0.89830  0.96580  0.51370  1.0000 0.0919926327
C   C9        1.0  0.75660  0.91490  0.45460  1.0000 -0.2107598212
C   C10       1.0  0.56860  0.85290  0.48210  1.0000 0.0532335855
C   C11       1.0  0.65470  0.61420  0.87890  1.0000 0.0532335855
C   C12       1.0  0.84210  0.55020  0.90150  1.0000 -0.2181854758
C   C13       1.0  0.89830  0.53420  0.98630  1.0000 0.0919926327
C   C14       1.0  0.75660  0.58510  0.04540  1.0000 -0.2107598212
C   C15       1.0  0.56860  0.64710  0.01790  1.0000 0.0532335855
C   C16       1.0  0.84530  0.88580  0.87890  1.0000 0.0532335855
C   C17       1.0  0.65790  0.94980  0.90150  1.0000 -0.2181854758
C   C18       1.0  0.60170  0.96580  0.98630  1.0000 0.0919926327
C   C19       1.0  0.74340  0.91490  0.04540  1.0000 -0.2107598212
C   C20       1.0  0.93140  0.85290  0.01790  1.0000 0.0532335855
C   C21       1.0  0.15470  0.38580  0.37890  1.0000 0.0532335855
C   C22       1.0  0.34210  0.44980  0.40150  1.0000 -0.2181854758
C   C23       1.0  0.39830  0.46580  0.48630  1.0000 0.0919926327
C   C24       1.0  0.25660  0.41490  0.54540  1.0000 -0.2107598212
C   C25       1.0  0.06860  0.35290  0.51790  1.0000 0.0532335855
C   C26       1.0  0.34530  0.11420  0.37890  1.0000 0.0532335855
C   C27       1.0  0.15790  0.05020  0.40150  1.0000 -0.2181854758
C   C28       1.0  0.10170  0.03420  0.48630  1.0000 0.0919926327
C   C29       1.0  0.24340  0.08510  0.54540  1.0000 -0.2107598212
C   C30       1.0  0.43140  0.14710  0.51790  1.0000 0.0532335855
C   C31       1.0  0.34530  0.38580  0.12110  1.0000 0.0532335855
C   C32       1.0  0.15790  0.44980  0.09850  1.0000 -0.2181854758
C   C33       1.0  0.10170  0.46580  0.01370  1.0000 0.0919926327
C   C34       1.0  0.24340  0.41490  0.95460  1.0000 -0.2107598212
C   C35       1.0  0.43140  0.35290  0.98210  1.0000 0.0532335855
C   C36       1.0  0.15470  0.11420  0.12110  1.0000 0.0532335855
C   C37       1.0  0.34210  0.05020  0.09850  1.0000 -0.2181854758
C   C38       1.0  0.39830  0.03420  0.01370  1.0000 0.0919926327
C   C39       1.0  0.25660  0.08510  0.95460  1.0000 -0.2107598212
C   C40       1.0  0.06860  0.14710  0.98210  1.0000 0.0532335855
N   N1        1.0  0.98500  0.66170  0.56370  1.0000 -0.1901616144
N   N2        1.0  0.51500  0.83830  0.56370  1.0000 -0.1901616144
N   N3        1.0  0.51500  0.66170  0.93630  1.0000 -0.1901616144
N   N4        1.0  0.98500  0.83830  0.93630  1.0000 -0.1901616144
N   N5        1.0  0.01500  0.33830  0.43630  1.0000 -0.1901616144
N   N6        1.0  0.48500  0.16170  0.43630  1.0000 -0.1901616144
N   N7        1.0  0.48500  0.33830  0.06370  1.0000 -0.1901616144
N   N8        1.0  0.01500  0.16170  0.06370  1.0000 -0.1901616144
Cl  Cl1       1.0  0.25000  0.75000  0.75000  1.0000 -0.5717992362
Cl  Cl2       1.0  0.75000  0.25000  0.25000  1.0000 -0.5717992362
