# DDEC6 charges by PACMAN v1.1 (https://github.com/mtap-research/PACMAN-charge/)
data_2006[Cu][srs]3[ION]1
_chemical_formula_sum              "Cu4 P4 H24 C48 N24 F24"
_cell_length_a       11.4992
_cell_length_b       11.4992
_cell_length_c       12.7341
_cell_angle_alpha    90
_cell_angle_beta     90
_cell_angle_gamma    90

_symmetry_space_group_name_H-M    "P 1"
_symmetry_Int_Tables_number       1

loop_
  _symmetry_equiv_pos_as_xyz
  'x, y, z'

loop_
  _atom_site_type_symbol
  _atom_site_label
  _atom_site_symmetry_multiplicity
  _atom_site_fract_x
  _atom_site_fract_y
  _atom_site_fract_z
  _atom_site_occupancy
  _atom_site_charge
Cu  Cu1       1.0  0.65088  0.34939  0.74691  1.0000 0.4908580396
Cu  Cu2       1.0  0.35047  0.65007  0.25060  1.0000 0.5384689781
Cu  Cu3       1.0  0.15102  0.15115  0.50308  1.0000 0.5148864004
Cu  Cu4       1.0  0.84743  0.84733  0.99966  1.0000 0.5176154587
P   P1        1.0  0.65483  0.05421  0.45936  1.0000 1.616040847
P   P2        1.0  0.52899  0.84708  0.74980  1.0000 1.6119473192
P   P3        1.0  0.14324  0.45609  0.77090  1.0000 1.6032660219
P   P4        1.0  0.85741  0.54384  0.27023  1.0000 1.6032660219
H   H1        1.0  0.83522  0.52025  0.71183  1.0000 0.1025034428
H   H2        1.0  0.91001  0.69519  0.78584  1.0000 0.1090879399
H   H3        1.0  0.36658  0.28155  0.92281  1.0000 0.1025034428
H   H4        1.0  0.16406  0.48034  0.21216  1.0000 0.1025034428
H   H5        1.0  0.08789  0.30596  0.28695  1.0000 0.1025034428
H   H6        1.0  0.63152  0.72063  0.42549  1.0000 0.1025034428
H   H7        1.0  0.97948  0.33574  0.46171  1.0000 0.1025034428
H   H8        1.0  0.80283  0.40762  0.53351  1.0000 0.1090879399
H   H9        1.0  0.22382  0.87076  0.67859  1.0000 0.1090879399
H   H10       1.0  0.02039  0.66352  0.96194  1.0000 0.1025034428
H   H11       1.0  0.19714  0.59115  0.03438  1.0000 0.1025034428
H   H12       1.0  0.77737  0.12966  0.17824  1.0000 0.1025034428
H   H13       1.0  0.66454  0.01867  0.03803  1.0000 0.1025034428
H   H14       1.0  0.59007  0.19707  0.96414  1.0000 0.1025034428
H   H15       1.0  0.13031  0.77717  0.82215  1.0000 0.1090879399
H   H16       1.0  0.33626  0.97944  0.53794  1.0000 0.1025034428
H   H17       1.0  0.41037  0.80498  0.46479  1.0000 0.1090879399
H   H18       1.0  0.86893  0.22063  0.32428  1.0000 0.1025034428
H   H19       1.0  0.52181  0.83474  0.28995  1.0000 0.1025034428
H   H20       1.0  0.69705  0.90783  0.21661  1.0000 0.1090879399
H   H21       1.0  0.27583  0.37195  0.07150  1.0000 0.1025034428
H   H22       1.0  0.48063  0.16351  0.78730  1.0000 0.1025034428
H   H23       1.0  0.30533  0.08896  0.71415  1.0000 0.1025034428
H   H24       1.0  0.71933  0.63304  0.57480  1.0000 0.1090879399
C   C1        1.0  0.79204  0.55411  0.78126  1.0000 0.0698461651
C   C2        1.0  0.83727  0.65429  0.82581  1.0000 0.0698461651
C   C3        1.0  0.69933  0.64741  0.95500  1.0000 0.1204952057
C   C4        1.0  0.54608  0.65099  0.09168  1.0000 0.1204952057
C   C5        1.0  0.49631  0.54909  0.04550  1.0000 0.1090879399
C   C6        1.0  0.35668  0.40937  0.04320  1.0000 0.0616143073
C   C7        1.0  0.20849  0.44500  0.28034  1.0000 0.0528143856
C   C8        1.0  0.16361  0.34421  0.32454  1.0000 0.0616143073
C   C9        1.0  0.30195  0.35038  0.45344  1.0000 0.1204952057
C   C10       1.0  0.45281  0.34971  0.59198  1.0000 0.1204952057
C   C11       1.0  0.50370  0.45046  0.54508  1.0000 0.1090879399
C   C12       1.0  0.64235  0.59104  0.54315  1.0000 0.0698461651
C   C13       1.0  0.94614  0.29281  0.53154  1.0000 0.0698461651
C   C14       1.0  0.84497  0.33675  0.57507  1.0000 0.0766962457
C   C15       1.0  0.85171  0.19882  0.70415  1.0000 0.1204952057
C   C16       1.0  0.84983  0.04664  0.84203  1.0000 0.1204952057
C   C17       1.0  0.95067  0.99584  0.79485  1.0000 0.1090879399
C   C18       1.0  0.09067  0.85648  0.79303  1.0000 0.0616143073
C   C19       1.0  0.05501  0.70796  0.03038  1.0000 0.0616143073
C   C20       1.0  0.15674  0.66453  0.07374  1.0000 0.0616143073
C   C21       1.0  0.14886  0.80179  0.20338  1.0000 0.1090879399
C   C22       1.0  0.14984  0.95297  0.34207  1.0000 0.1090879399
C   C23       1.0  0.04956  0.00416  0.29452  1.0000 0.1025034428
C   C24       1.0  0.91192  0.14512  0.29109  1.0000 0.0698461651
C   C25       1.0  0.70817  0.05479  0.96958  1.0000 0.0528143856
C   C26       1.0  0.66441  0.15646  0.92600  1.0000 0.0698461651
C   C27       1.0  0.80220  0.14920  0.79667  1.0000 0.1204952057
C   C28       1.0  0.95326  0.15028  0.65810  1.0000 0.1204952057
C   C29       1.0  0.00367  0.04895  0.70459  1.0000 0.1090879399
C   C30       1.0  0.14376  0.90955  0.70695  1.0000 0.0616143073
C   C31       1.0  0.29188  0.94552  0.46915  1.0000 0.0616143073
C   C32       1.0  0.33633  0.84437  0.42541  1.0000 0.0698461651
C   C33       1.0  0.19778  0.85083  0.29648  1.0000 0.1090879399
C   C34       1.0  0.04636  0.84941  0.15775  1.0000 0.1090879399
C   C35       1.0  0.99598  0.95070  0.20449  1.0000 0.1090879399
C   C36       1.0  0.85851  0.09208  0.20580  1.0000 0.0698461651
C   C37       1.0  0.55306  0.79408  0.21823  1.0000 0.0616143073
C   C38       1.0  0.65439  0.83791  0.17429  1.0000 0.0698461651
C   C39       1.0  0.64856  0.69835  0.04660  1.0000 0.1204952057
C   C40       1.0  0.65085  0.54605  0.90886  1.0000 0.1204952057
C   C41       1.0  0.54996  0.49535  0.95581  1.0000 0.1090879399
C   C42       1.0  0.40983  0.35640  0.95716  1.0000 0.0616143073
C   C43       1.0  0.44540  0.20804  0.71908  1.0000 0.0698461651
C   C44       1.0  0.34527  0.16271  0.67488  1.0000 0.0698461651
C   C45       1.0  0.35133  0.30101  0.54606  1.0000 0.1204952057
C   C46       1.0  0.34969  0.45295  0.40839  1.0000 0.1090879399
C   C47       1.0  0.45040  0.50371  0.45527  1.0000 0.1025034428
C   C48       1.0  0.59027  0.64292  0.45656  1.0000 0.0698461651
N   N1        1.0  0.70051  0.49659  0.82193  1.0000 -0.1991759085
N   N2        1.0  0.79476  0.70076  0.91458  1.0000 -0.2127308447
N   N3        1.0  0.39913  0.50458  0.08899  1.0000 -0.2465712887
N   N4        1.0  0.30038  0.50218  0.32102  1.0000 -0.1991759085
N   N5        1.0  0.20792  0.29568  0.41179  1.0000 -0.2193814006
N   N6        1.0  0.60176  0.49427  0.58763  1.0000 -0.2419351773
N   N7        1.0  0.00261  0.20021  0.57157  1.0000 -0.1991759085
N   N8        1.0  0.79801  0.29401  0.66348  1.0000 -0.2127308447
N   N9        1.0  0.99464  0.89801  0.83791  1.0000 -0.2465712887
N   N10       1.0  0.99818  0.80051  0.07009  1.0000 -0.1991759085
N   N11       1.0  0.20471  0.70852  0.16128  1.0000 -0.2254707602
N   N12       1.0  0.00828  0.10393  0.33529  1.0000 -0.2419351773
N   N13       1.0  0.80100  0.99814  0.92953  1.0000 -0.1991759085
N   N14       1.0  0.70885  0.20468  0.83871  1.0000 -0.2193814006
N   N15       1.0  0.10157  0.00506  0.66160  1.0000 -0.2419351773
N   N16       1.0  0.19951  0.00244  0.42916  1.0000 -0.1991759085
N   N17       1.0  0.29250  0.79629  0.33782  1.0000 -0.2193814006
N   N18       1.0  0.89938  0.99573  0.16074  1.0000 -0.2419351773
N   N19       1.0  0.49561  0.70216  0.17758  1.0000 -0.1991759085
N   N20       1.0  0.70086  0.79489  0.08585  1.0000 -0.2127308447
N   N21       1.0  0.50770  0.39624  0.91441  1.0000 -0.2419351773
N   N22       1.0  0.50159  0.30076  0.67915  1.0000 -0.1991759085
N   N23       1.0  0.29754  0.20592  0.58695  1.0000 -0.2127308447
N   N24       1.0  0.49389  0.60169  0.41213  1.0000 -0.2419351773
F   F1        1.0  0.51503  0.07920  0.45919  1.0000 -0.411668395
F   F2        1.0  0.67962  0.19285  0.44010  1.0000 -0.411668395
F   F3        1.0  0.64996  0.03681  0.33017  1.0000 -0.4201783071
F   F4        1.0  0.63084  0.91523  0.47278  1.0000 -0.4021141913
F   F5        1.0  0.65874  0.07417  0.58497  1.0000 -0.4201783071
F   F6        1.0  0.79421  0.02855  0.45979  1.0000 -0.411668395
F   F7        1.0  0.55731  0.98565  0.75062  1.0000 -0.411668395
F   F8        1.0  0.66286  0.81995  0.71532  1.0000 -0.411668395
F   F9        1.0  0.49002  0.85326  0.62683  1.0000 -0.411668395
F   F10       1.0  0.39387  0.87559  0.78360  1.0000 -0.411668395
F   F11       1.0  0.56536  0.84175  0.87423  1.0000 -0.4201783071
F   F12       1.0  0.50181  0.70822  0.75207  1.0000 -0.4021141913
F   F13       1.0  0.00610  0.42002  0.77760  1.0000 -0.4201783071
F   F14       1.0  0.17899  0.32077  0.79283  1.0000 -0.4280613577
F   F15       1.0  0.14304  0.48063  0.89821  1.0000 -0.4280613577
F   F16       1.0  0.10569  0.59224  0.75061  1.0000 -0.4280613577
F   F17       1.0  0.14188  0.43246  0.64459  1.0000 -0.4280613577
F   F18       1.0  0.27962  0.49176  0.76508  1.0000 -0.4201783071
F   F19       1.0  0.99471  0.58041  0.27684  1.0000 -0.4280613577
F   F20       1.0  0.82134  0.67904  0.29186  1.0000 -0.4201783071
F   F21       1.0  0.85771  0.51934  0.39724  1.0000 -0.411668395
F   F22       1.0  0.89541  0.40792  0.24978  1.0000 -0.4280613577
F   F23       1.0  0.85901  0.56760  0.14388  1.0000 -0.4280613577
F   F24       1.0  0.72100  0.50779  0.26400  1.0000 -0.4201783071
