# DDEC6 charges by PACMAN v1.1 (https://github.com/mtap-research/PACMAN-charge/)
data_2006[Cu][sra]3[ION]1
_chemical_formula_sum              "Cu4 H72 C76 N14 O14"
_cell_length_a       16.8846
_cell_length_b       16.8846
_cell_length_c       9.0518
_cell_angle_alpha    87.0822
_cell_angle_beta     92.9178
_cell_angle_gamma    85.3922

_symmetry_space_group_name_H-M    "P 1"
_symmetry_Int_Tables_number       1

loop_
  _symmetry_equiv_pos_as_xyz
  'x, y, z'

loop_
  _atom_site_type_symbol
  _atom_site_label
  _atom_site_symmetry_multiplicity
  _atom_site_fract_x
  _atom_site_fract_y
  _atom_site_fract_z
  _atom_site_occupancy
  _atom_site_charge
Cu  Cu1       1.0  0.68760  0.16734  0.12684  1.0000 0.5972682581
Cu  Cu2       1.0  0.16734  0.68760  0.37316  1.0000 0.5972682581
Cu  Cu3       1.0  0.31240  0.83266  0.87316  1.0000 0.5972682581
Cu  Cu4       1.0  0.83266  0.31240  0.62684  1.0000 0.5972682581
H   H1        1.0  0.58290  0.27870  0.08770  1.0000 0.2809694008
H   H2        1.0  0.27870  0.58290  0.41230  1.0000 0.2809694008
H   H3        1.0  0.41710  0.72130  0.91230  1.0000 0.2809694008
H   H4        1.0  0.72130  0.41710  0.58770  1.0000 0.2809694008
H   H5        1.0  0.55170  0.20790  0.02030  1.0000 0.2586968736
H   H6        1.0  0.20790  0.55170  0.47970  1.0000 0.2586968736
H   H7        1.0  0.44830  0.79210  0.97970  1.0000 0.2586968736
H   H8        1.0  0.79210  0.44830  0.52030  1.0000 0.2586968736
H   H9        1.0  0.59370  0.32330  0.86380  1.0000 0.1010663662
H   H10       1.0  0.32330  0.59370  0.63620  1.0000 0.1010663662
H   H11       1.0  0.40630  0.67670  0.13620  1.0000 0.1010663662
H   H12       1.0  0.67670  0.40630  0.36380  1.0000 0.1010663662
H   H13       1.0  0.59830  0.24090  0.66100  1.0000 0.1285276878
H   H14       1.0  0.24090  0.59830  0.83900  1.0000 0.1285276878
H   H15       1.0  0.40170  0.75910  0.33900  1.0000 0.1285276878
H   H16       1.0  0.75910  0.40170  0.16100  1.0000 0.1285276878
H   H17       1.0  0.52670  0.21830  0.75970  1.0000 0.1103566589
H   H18       1.0  0.21830  0.52670  0.74030  1.0000 0.1103566589
H   H19       1.0  0.47330  0.78170  0.24030  1.0000 0.1103566589
H   H20       1.0  0.78170  0.47330  0.25970  1.0000 0.1103566589
H   H21       1.0  0.53770  0.08890  0.90630  1.0000 0.1010663662
H   H22       1.0  0.08890  0.53770  0.59370  1.0000 0.1010663662
H   H23       1.0  0.46230  0.91110  0.09370  1.0000 0.1010663662
H   H24       1.0  0.91110  0.46230  0.40630  1.0000 0.1010663662
H   H25       1.0  0.58920  0.95560  0.91440  1.0000 0.1010663662
H   H26       1.0  0.95560  0.58920  0.58560  1.0000 0.1010663662
H   H27       1.0  0.41080  0.04440  0.08560  1.0000 0.1010663662
H   H28       1.0  0.04440  0.41080  0.41440  1.0000 0.1010663662
H   H29       1.0  0.69670  0.91870  0.78150  1.0000 0.1103566589
H   H30       1.0  0.91870  0.69670  0.71850  1.0000 0.1103566589
H   H31       1.0  0.30330  0.08130  0.21850  1.0000 0.1103566589
H   H32       1.0  0.08130  0.30330  0.28150  1.0000 0.1103566589
H   H33       1.0  0.75740  0.01200  0.64340  1.0000 0.1010663662
H   H34       1.0  0.01200  0.75740  0.85660  1.0000 0.1010663662
H   H35       1.0  0.24260  0.98800  0.35660  1.0000 0.1010663662
H   H36       1.0  0.98800  0.24260  0.14340  1.0000 0.1010663662
H   H37       1.0  0.71120  0.14460  0.63690  1.0000 0.1220800401
H   H38       1.0  0.14460  0.71120  0.86310  1.0000 0.1220800401
H   H39       1.0  0.28880  0.85540  0.36310  1.0000 0.1220800401
H   H40       1.0  0.85540  0.28880  0.13690  1.0000 0.1220800401
H   H41       1.0  0.66470  0.99650  0.22000  1.0000 0.1010663662
H   H42       1.0  0.99650  0.66470  0.28000  1.0000 0.1010663662
H   H43       1.0  0.33530  0.00350  0.78000  1.0000 0.1010663662
H   H44       1.0  0.00350  0.33530  0.72000  1.0000 0.1010663662
H   H45       1.0  0.58910  0.92610  0.37710  1.0000 0.1285276878
H   H46       1.0  0.92610  0.58910  0.12290  1.0000 0.1285276878
H   H47       1.0  0.41090  0.07390  0.62290  1.0000 0.1285276878
H   H48       1.0  0.07390  0.41090  0.87710  1.0000 0.1285276878
H   H49       1.0  0.55930  0.19930  0.32920  1.0000 0.1010663662
H   H50       1.0  0.19930  0.55930  0.17080  1.0000 0.1010663662
H   H51       1.0  0.44070  0.80070  0.67080  1.0000 0.1010663662
H   H52       1.0  0.80070  0.44070  0.82920  1.0000 0.1010663662
H   H53       1.0  0.48060  0.13380  0.48730  1.0000 0.1285276878
H   H54       1.0  0.13380  0.48060  0.01270  1.0000 0.1285276878
H   H55       1.0  0.51940  0.86620  0.51270  1.0000 0.1285276878
H   H56       1.0  0.86620  0.51940  0.98730  1.0000 0.1285276878
H   H57       1.0  0.79200  0.05940  0.97040  1.0000 0.1010663662
H   H58       1.0  0.05940  0.79200  0.52960  1.0000 0.1010663662
H   H59       1.0  0.20800  0.94060  0.02960  1.0000 0.1010663662
H   H60       1.0  0.94060  0.20800  0.47040  1.0000 0.1010663662
H   H61       1.0  0.89600  0.96540  0.01140  1.0000 0.1220800401
H   H62       1.0  0.96540  0.89600  0.48860  1.0000 0.1220800401
H   H63       1.0  0.10400  0.03460  0.98860  1.0000 0.1220800401
H   H64       1.0  0.03460  0.10400  0.51140  1.0000 0.1220800401
H   H65       1.0  0.79730  0.10790  0.39180  1.0000 0.1103566589
H   H66       1.0  0.10790  0.79730  0.10820  1.0000 0.1103566589
H   H67       1.0  0.20270  0.89210  0.60820  1.0000 0.1103566589
H   H68       1.0  0.89210  0.20270  0.89180  1.0000 0.1103566589
H   H69       1.0  0.90060  0.01000  0.44490  1.0000 0.1285276878
H   H70       1.0  0.01000  0.90060  0.05510  1.0000 0.1285276878
H   H71       1.0  0.09940  0.99000  0.55510  1.0000 0.1285276878
H   H72       1.0  0.99000  0.09940  0.94490  1.0000 0.1285276878
C   C1        1.0  0.70674  0.26474  0.87920  1.0000 0.5528252021
C   C2        1.0  0.26474  0.70674  0.62080  1.0000 0.5528252021
C   C3        1.0  0.29326  0.73526  0.12080  1.0000 0.5528252021
C   C4        1.0  0.73526  0.29326  0.37920  1.0000 0.5528252021
C   C5        1.0  0.61686  0.26706  0.88200  1.0000 0.0215235766
C   C6        1.0  0.26706  0.61686  0.61800  1.0000 0.0215235766
C   C7        1.0  0.38314  0.73294  0.11800  1.0000 0.0215235766
C   C8        1.0  0.73294  0.38314  0.38200  1.0000 0.0215235766
C   C9        1.0  0.58530  0.21650  0.75770  1.0000 -0.2956527352
C   C10       1.0  0.21650  0.58530  0.74230  1.0000 -0.2956527352
C   C11       1.0  0.41470  0.78350  0.24230  1.0000 -0.2956527352
C   C12       1.0  0.78350  0.41470  0.25770  1.0000 -0.2956527352
C   C13       1.0  0.61840  0.13080  0.76830  1.0000 0.1103566589
C   C14       1.0  0.13080  0.61840  0.73170  1.0000 0.1103566589
C   C15       1.0  0.38160  0.86920  0.23170  1.0000 0.1103566589
C   C16       1.0  0.86920  0.38160  0.26830  1.0000 0.1103566589
C   C17       1.0  0.58270  0.07390  0.85210  1.0000 -0.2167222454
C   C18       1.0  0.07390  0.58270  0.64790  1.0000 -0.2167222454
C   C19       1.0  0.41730  0.92610  0.14790  1.0000 -0.2167222454
C   C20       1.0  0.92610  0.41730  0.35210  1.0000 -0.2167222454
C   C21       1.0  0.61320  0.99460  0.85650  1.0000 -0.1113164621
C   C22       1.0  0.99460  0.61320  0.64350  1.0000 -0.1113164621
C   C23       1.0  0.38680  0.00540  0.14350  1.0000 -0.1113164621
C   C24       1.0  0.00540  0.38680  0.35650  1.0000 -0.1113164621
C   C25       1.0  0.67680  0.97300  0.77910  1.0000 -0.1113164621
C   C26       1.0  0.97300  0.67680  0.72090  1.0000 -0.1113164621
C   C27       1.0  0.32320  0.02700  0.22090  1.0000 -0.1113164621
C   C28       1.0  0.02700  0.32320  0.27910  1.0000 -0.1113164621
C   C29       1.0  0.71260  0.02820  0.69740  1.0000 -0.0987806945
C   C30       1.0  0.02820  0.71260  0.80260  1.0000 -0.0987806945
C   C31       1.0  0.28740  0.97180  0.30260  1.0000 -0.0987806945
C   C32       1.0  0.97180  0.28740  0.19740  1.0000 -0.0987806945
C   C33       1.0  0.68480  0.10640  0.69250  1.0000 -0.1661191053
C   C34       1.0  0.10640  0.68480  0.80750  1.0000 -0.1661191053
C   C35       1.0  0.31520  0.89360  0.30750  1.0000 -0.1661191053
C   C36       1.0  0.89360  0.31520  0.19250  1.0000 -0.1661191053
C   C37       1.0  0.62686  0.02506  0.27560  1.0000 0.0539383468
C   C38       1.0  0.02506  0.62686  0.22440  1.0000 0.0539383468
C   C39       1.0  0.37314  0.97494  0.72440  1.0000 0.0539383468
C   C40       1.0  0.97494  0.37314  0.77560  1.0000 0.0539383468
C   C41       1.0  0.58153  0.98253  0.36870  1.0000 -0.1910178299
C   C42       1.0  0.98253  0.58153  0.13130  1.0000 -0.1910178299
C   C43       1.0  0.41847  0.01747  0.63130  1.0000 -0.1910178299
C   C44       1.0  0.01747  0.41847  0.86870  1.0000 -0.1910178299
C   C45       1.0  0.56557  0.14277  0.33880  1.0000 0.0539383468
C   C46       1.0  0.14277  0.56557  0.16120  1.0000 0.0539383468
C   C47       1.0  0.43443  0.85723  0.66120  1.0000 0.0539383468
C   C48       1.0  0.85723  0.43443  0.83880  1.0000 0.0539383468
C   C49       1.0  0.51827  0.10407  0.43310  1.0000 -0.1910178299
C   C50       1.0  0.10407  0.51827  0.06690  1.0000 -0.1910178299
C   C51       1.0  0.48173  0.89593  0.56690  1.0000 -0.1910178299
C   C52       1.0  0.89593  0.48173  0.93310  1.0000 -0.1910178299
C   C53       1.0  0.52549  0.02165  0.44900  1.0000 0.1103566589
C   C54       1.0  0.02165  0.52549  0.05100  1.0000 0.1103566589
C   C55       1.0  0.47451  0.97835  0.55100  1.0000 0.1103566589
C   C56       1.0  0.97835  0.47451  0.94900  1.0000 0.1103566589
C   C57       1.0  0.81470  0.04930  0.06840  1.0000 0.0614441772
C   C58       1.0  0.04930  0.81470  0.43160  1.0000 0.0614441772
C   C59       1.0  0.18530  0.95070  0.93160  1.0000 0.0614441772
C   C60       1.0  0.95070  0.18530  0.56840  1.0000 0.0614441772
C   C61       1.0  0.87600  0.99280  0.09260  1.0000 -0.1797179981
C   C62       1.0  0.99280  0.87600  0.40740  1.0000 -0.1797179981
C   C63       1.0  0.12400  0.00720  0.90740  1.0000 -0.1797179981
C   C64       1.0  0.00720  0.12400  0.59260  1.0000 -0.1797179981
C   C65       1.0  0.81710  0.07750  0.31410  1.0000 0.0720158544
C   C66       1.0  0.07750  0.81710  0.18590  1.0000 0.0720158544
C   C67       1.0  0.18290  0.92250  0.68590  1.0000 0.0720158544
C   C68       1.0  0.92250  0.18290  0.81410  1.0000 0.0720158544
C   C69       1.0  0.87910  0.01910  0.34590  1.0000 -0.1797179981
C   C70       1.0  0.01910  0.87910  0.15410  1.0000 -0.1797179981
C   C71       1.0  0.12090  0.98090  0.65410  1.0000 -0.1797179981
C   C72       1.0  0.98090  0.12090  0.84590  1.0000 -0.1797179981
C   C73       1.0  0.91051  0.97377  0.23520  1.0000 0.1103566589
C   C74       1.0  0.97377  0.91051  0.26480  1.0000 0.1103566589
C   C75       1.0  0.08949  0.02623  0.76480  1.0000 0.1103566589
C   C76       1.0  0.02623  0.08949  0.73520  1.0000 0.1103566589
N   N1        1.0  0.59548  0.23676  0.02990  1.0000 -0.5506336048
N   N2        1.0  0.23676  0.59548  0.47010  1.0000 -0.5506336048
N   N3        1.0  0.40452  0.76324  0.97010  1.0000 -0.5506336048
N   N4        1.0  0.76324  0.40452  0.52990  1.0000 -0.5506336048
N   N5        1.0  0.61997  0.10473  0.25990  1.0000 -0.2486039988
N   N6        1.0  0.10473  0.61997  0.24010  1.0000 -0.2486039988
N   N7        1.0  0.38003  0.89527  0.74010  1.0000 -0.2486039988
N   N8        1.0  0.89527  0.38003  0.75990  1.0000 -0.2486039988
N   N9        1.0  0.78434  0.09176  0.17640  1.0000 -0.2326132013
N   N10       1.0  0.09176  0.78434  0.32360  1.0000 -0.2326132013
N   N11       1.0  0.21566  0.90824  0.82360  1.0000 -0.2326132013
N   N12       1.0  0.90824  0.21566  0.67640  1.0000 -0.2326132013
N   N13       1.0  0.12380  0.12380  0.25000  1.0000 0.6218059556
N   N14       1.0  0.87620  0.87620  0.75000  1.0000 0.6218059556
O   O1        1.0  0.74755  0.21991  0.97690  1.0000 -0.5136344239
O   O2        1.0  0.21991  0.74755  0.52310  1.0000 -0.5136344239
O   O3        1.0  0.25245  0.78009  0.02310  1.0000 -0.5136344239
O   O4        1.0  0.78009  0.25245  0.47690  1.0000 -0.5136344239
O   O5        1.0  0.73507  0.30445  0.78030  1.0000 -0.5506336048
O   O6        1.0  0.30445  0.73507  0.71970  1.0000 -0.5506336048
O   O7        1.0  0.26493  0.69555  0.21970  1.0000 -0.5506336048
O   O8        1.0  0.69555  0.26493  0.28030  1.0000 -0.5506336048
O   O9        1.0  0.07680  0.07680  0.25000  1.0000 -0.3607491806
O   O10       1.0  0.13870  0.15990  0.13630  1.0000 -0.3735255777
O   O11       1.0  0.15990  0.13870  0.36370  1.0000 -0.3735255777
O   O12       1.0  0.92320  0.92320  0.75000  1.0000 -0.3607491806
O   O13       1.0  0.86130  0.84010  0.86370  1.0000 -0.3735255777
O   O14       1.0  0.84010  0.86130  0.63630  1.0000 -0.3735255777
