# DDEC6 charges by PACMAN v1.1 (https://github.com/mtap-research/PACMAN-charge/)
data_2007[NiV][nan]3[ION]1
_chemical_formula_sum              "V32 Ni4 H64 C80 N16 O76 F2"
_cell_length_a       17.0616
_cell_length_b       17.0616
_cell_length_c       14.6533
_cell_angle_alpha    90
_cell_angle_beta     90
_cell_angle_gamma    90

_symmetry_space_group_name_H-M    "P 1"
_symmetry_Int_Tables_number       1

loop_
  _symmetry_equiv_pos_as_xyz
  'x, y, z'

loop_
  _atom_site_type_symbol
  _atom_site_label
  _atom_site_symmetry_multiplicity
  _atom_site_fract_x
  _atom_site_fract_y
  _atom_site_fract_z
  _atom_site_occupancy
  _atom_site_charge
V   V1        1.0  0.11302  0.12125  0.12834  1.0000 1.9418194558
V   V2        1.0  0.88698  0.87875  0.12834  1.0000 1.9418194558
V   V3        1.0  0.87875  0.11302  0.87166  1.0000 1.9418194558
V   V4        1.0  0.12125  0.88698  0.87166  1.0000 1.9418194558
V   V5        1.0  0.38698  0.62125  0.62834  1.0000 1.9418194558
V   V6        1.0  0.61302  0.37875  0.62834  1.0000 1.9418194558
V   V7        1.0  0.62125  0.61302  0.37166  1.0000 1.9418194558
V   V8        1.0  0.37875  0.38698  0.37166  1.0000 1.9418194558
V   V9        1.0  0.95255  0.18551  0.08877  1.0000 1.9108644988
V   V10       1.0  0.04745  0.81449  0.08877  1.0000 1.9108644988
V   V11       1.0  0.81449  0.95255  0.91123  1.0000 1.9108644988
V   V12       1.0  0.18551  0.04745  0.91123  1.0000 1.9108644988
V   V13       1.0  0.54745  0.68551  0.58877  1.0000 1.9108644988
V   V14       1.0  0.45255  0.31449  0.58877  1.0000 1.9108644988
V   V15       1.0  0.68551  0.45255  0.41123  1.0000 1.9108644988
V   V16       1.0  0.31449  0.54745  0.41123  1.0000 1.9108644988
V   V17       1.0  0.03380  0.18845  0.91271  1.0000 1.9301906492
V   V18       1.0  0.96620  0.81155  0.91271  1.0000 1.9301906492
V   V19       1.0  0.81155  0.03380  0.08729  1.0000 1.9301906492
V   V20       1.0  0.18845  0.96620  0.08729  1.0000 1.9301906492
V   V21       1.0  0.46620  0.68845  0.41271  1.0000 1.9301906492
V   V22       1.0  0.53380  0.31155  0.41271  1.0000 1.9301906492
V   V23       1.0  0.68845  0.53380  0.58729  1.0000 1.9301906492
V   V24       1.0  0.31155  0.46620  0.58729  1.0000 1.9301906492
V   V25       1.0  0.92945  0.06630  0.23037  1.0000 1.9812804128
V   V26       1.0  0.07055  0.93370  0.23037  1.0000 1.9812804128
V   V27       1.0  0.93370  0.92945  0.76963  1.0000 1.9812804128
V   V28       1.0  0.06630  0.07055  0.76963  1.0000 1.9812804128
V   V29       1.0  0.57055  0.56630  0.73037  1.0000 1.9812804128
V   V30       1.0  0.42945  0.43370  0.73037  1.0000 1.9812804128
V   V31       1.0  0.56630  0.42945  0.26963  1.0000 1.9812804128
V   V32       1.0  0.43370  0.57055  0.26963  1.0000 1.9812804128
Ni  Ni1       1.0  0.24637  0.25363  0.25000  1.0000 0.7109890398
Ni  Ni2       1.0  0.75363  0.74637  0.25000  1.0000 0.7109890398
Ni  Ni3       1.0  0.74637  0.24637  0.75000  1.0000 0.7109890398
Ni  Ni4       1.0  0.25363  0.75363  0.75000  1.0000 0.7109890398
H   H1        1.0  0.27840  0.18130  0.05700  1.0000 0.1103302753
H   H2        1.0  0.72160  0.81870  0.05700  1.0000 0.1103302753
H   H3        1.0  0.81870  0.27840  0.94300  1.0000 0.1103302753
H   H4        1.0  0.18130  0.72160  0.94300  1.0000 0.1103302753
H   H5        1.0  0.22160  0.68130  0.55700  1.0000 0.1103302753
H   H6        1.0  0.77840  0.31870  0.55700  1.0000 0.1103302753
H   H7        1.0  0.68130  0.77840  0.44300  1.0000 0.1103302753
H   H8        1.0  0.31870  0.22160  0.44300  1.0000 0.1103302753
H   H9        1.0  0.37760  0.17110  0.95220  1.0000 0.141117161
H   H10       1.0  0.62240  0.82890  0.95220  1.0000 0.141117161
H   H11       1.0  0.82890  0.37760  0.04780  1.0000 0.141117161
H   H12       1.0  0.17110  0.62240  0.04780  1.0000 0.141117161
H   H13       1.0  0.12240  0.67110  0.45220  1.0000 0.141117161
H   H14       1.0  0.87760  0.32890  0.45220  1.0000 0.141117161
H   H15       1.0  0.67110  0.87760  0.54780  1.0000 0.141117161
H   H16       1.0  0.32890  0.12240  0.54780  1.0000 0.141117161
H   H17       1.0  0.18000  0.28480  0.05580  1.0000 0.1193006297
H   H18       1.0  0.82000  0.71520  0.05580  1.0000 0.1193006297
H   H19       1.0  0.71520  0.18000  0.94420  1.0000 0.1193006297
H   H20       1.0  0.28480  0.82000  0.94420  1.0000 0.1193006297
H   H21       1.0  0.32000  0.78480  0.55580  1.0000 0.1193006297
H   H22       1.0  0.68000  0.21520  0.55580  1.0000 0.1193006297
H   H23       1.0  0.78480  0.68000  0.44420  1.0000 0.1193006297
H   H24       1.0  0.21520  0.32000  0.44420  1.0000 0.1193006297
H   H25       1.0  0.24090  0.43170  0.24590  1.0000 0.1193006297
H   H26       1.0  0.75910  0.56830  0.24590  1.0000 0.1193006297
H   H27       1.0  0.56830  0.24090  0.75410  1.0000 0.1193006297
H   H28       1.0  0.43170  0.75910  0.75410  1.0000 0.1193006297
H   H29       1.0  0.25910  0.93170  0.74590  1.0000 0.1193006297
H   H30       1.0  0.74090  0.06830  0.74590  1.0000 0.1193006297
H   H31       1.0  0.93170  0.74090  0.25410  1.0000 0.1193006297
H   H32       1.0  0.06830  0.25910  0.25410  1.0000 0.1193006297
H   H33       1.0  0.23220  0.53440  0.14590  1.0000 0.141117161
H   H34       1.0  0.76780  0.46560  0.14590  1.0000 0.141117161
H   H35       1.0  0.46560  0.23220  0.85410  1.0000 0.141117161
H   H36       1.0  0.53440  0.76780  0.85410  1.0000 0.141117161
H   H37       1.0  0.26780  0.03440  0.64590  1.0000 0.141117161
H   H38       1.0  0.73220  0.96560  0.64590  1.0000 0.141117161
H   H39       1.0  0.03440  0.73220  0.35410  1.0000 0.141117161
H   H40       1.0  0.96560  0.26780  0.35410  1.0000 0.141117161
H   H41       1.0  0.18120  0.38160  0.94810  1.0000 0.141117161
H   H42       1.0  0.81880  0.61840  0.94810  1.0000 0.141117161
H   H43       1.0  0.61840  0.18120  0.05190  1.0000 0.141117161
H   H44       1.0  0.38160  0.81880  0.05190  1.0000 0.141117161
H   H45       1.0  0.31880  0.88160  0.44810  1.0000 0.141117161
H   H46       1.0  0.68120  0.11840  0.44810  1.0000 0.141117161
H   H47       1.0  0.88160  0.68120  0.55190  1.0000 0.141117161
H   H48       1.0  0.11840  0.31880  0.55190  1.0000 0.141117161
H   H49       1.0  0.42340  0.25140  0.24320  1.0000 0.1193006297
H   H50       1.0  0.57660  0.74860  0.24320  1.0000 0.1193006297
H   H51       1.0  0.74860  0.42340  0.75680  1.0000 0.1193006297
H   H52       1.0  0.25140  0.57660  0.75680  1.0000 0.1193006297
H   H53       1.0  0.07660  0.75140  0.74320  1.0000 0.1193006297
H   H54       1.0  0.92340  0.24860  0.74320  1.0000 0.1193006297
H   H55       1.0  0.75140  0.92340  0.25680  1.0000 0.1193006297
H   H56       1.0  0.24860  0.07660  0.25680  1.0000 0.1193006297
H   H57       1.0  0.52630  0.24950  0.14410  1.0000 0.141117161
H   H58       1.0  0.47370  0.75050  0.14410  1.0000 0.141117161
H   H59       1.0  0.75050  0.52630  0.85590  1.0000 0.141117161
H   H60       1.0  0.24950  0.47370  0.85590  1.0000 0.141117161
H   H61       1.0  0.97370  0.74950  0.64410  1.0000 0.141117161
H   H62       1.0  0.02630  0.25050  0.64410  1.0000 0.141117161
H   H63       1.0  0.74950  0.02630  0.35590  1.0000 0.141117161
H   H64       1.0  0.25050  0.97370  0.35590  1.0000 0.141117161
C   C1        1.0  0.32880  0.19550  0.07440  1.0000 0.0927439298
C   C2        1.0  0.67120  0.80450  0.07440  1.0000 0.0927439298
C   C3        1.0  0.80450  0.32880  0.92560  1.0000 0.0927439298
C   C4        1.0  0.19550  0.67120  0.92560  1.0000 0.0927439298
C   C5        1.0  0.17120  0.69550  0.57440  1.0000 0.0927439298
C   C6        1.0  0.82880  0.30450  0.57440  1.0000 0.0927439298
C   C7        1.0  0.69550  0.82880  0.42560  1.0000 0.0927439298
C   C8        1.0  0.30450  0.17120  0.42560  1.0000 0.0927439298
C   C9        1.0  0.38800  0.18900  0.01090  1.0000 -0.179321177
C   C10       1.0  0.61200  0.81100  0.01090  1.0000 -0.179321177
C   C11       1.0  0.81100  0.38800  0.98910  1.0000 -0.179321177
C   C12       1.0  0.18900  0.61200  0.98910  1.0000 -0.179321177
C   C13       1.0  0.11200  0.68900  0.51090  1.0000 -0.179321177
C   C14       1.0  0.88800  0.31100  0.51090  1.0000 -0.179321177
C   C15       1.0  0.68900  0.88800  0.48910  1.0000 -0.179321177
C   C16       1.0  0.31100  0.11200  0.48910  1.0000 -0.179321177
C   C17       1.0  0.46460  0.21010  0.03690  1.0000 0.10233148
C   C18       1.0  0.53540  0.78990  0.03690  1.0000 0.10233148
C   C19       1.0  0.78990  0.46460  0.96310  1.0000 0.10233148
C   C20       1.0  0.21010  0.53540  0.96310  1.0000 0.10233148
C   C21       1.0  0.03540  0.71010  0.53690  1.0000 0.10233148
C   C22       1.0  0.96460  0.28990  0.53690  1.0000 0.10233148
C   C23       1.0  0.71010  0.96460  0.46310  1.0000 0.10233148
C   C24       1.0  0.28990  0.03540  0.46310  1.0000 0.10233148
C   C25       1.0  0.19470  0.33510  0.07320  1.0000 0.10233148
C   C26       1.0  0.80530  0.66490  0.07320  1.0000 0.10233148
C   C27       1.0  0.66490  0.19470  0.92680  1.0000 0.10233148
C   C28       1.0  0.33510  0.80530  0.92680  1.0000 0.10233148
C   C29       1.0  0.30530  0.83510  0.57320  1.0000 0.10233148
C   C30       1.0  0.69470  0.16490  0.57320  1.0000 0.10233148
C   C31       1.0  0.83510  0.69470  0.42680  1.0000 0.10233148
C   C32       1.0  0.16490  0.30530  0.42680  1.0000 0.10233148
C   C33       1.0  0.22880  0.42160  0.18520  1.0000 0.10233148
C   C34       1.0  0.77120  0.57840  0.18520  1.0000 0.10233148
C   C35       1.0  0.57840  0.22880  0.81480  1.0000 0.10233148
C   C36       1.0  0.42160  0.77120  0.81480  1.0000 0.10233148
C   C37       1.0  0.27120  0.92160  0.68520  1.0000 0.10233148
C   C38       1.0  0.72880  0.07840  0.68520  1.0000 0.10233148
C   C39       1.0  0.92160  0.72880  0.31480  1.0000 0.10233148
C   C40       1.0  0.07840  0.27120  0.31480  1.0000 0.10233148
C   C41       1.0  0.22460  0.48340  0.12520  1.0000 -0.179321177
C   C42       1.0  0.77540  0.51660  0.12520  1.0000 -0.179321177
C   C43       1.0  0.51660  0.22460  0.87480  1.0000 -0.179321177
C   C44       1.0  0.48340  0.77540  0.87480  1.0000 -0.179321177
C   C45       1.0  0.27540  0.98340  0.62520  1.0000 -0.179321177
C   C46       1.0  0.72460  0.01660  0.62520  1.0000 -0.179321177
C   C47       1.0  0.98340  0.72460  0.37480  1.0000 -0.179321177
C   C48       1.0  0.01660  0.27540  0.37480  1.0000 -0.179321177
C   C49       1.0  0.53040  0.20880  0.96750  1.0000 0.1103302753
C   C50       1.0  0.46960  0.79120  0.96750  1.0000 0.1103302753
C   C51       1.0  0.79120  0.53040  0.03250  1.0000 0.1103302753
C   C52       1.0  0.20880  0.46960  0.03250  1.0000 0.1103302753
C   C53       1.0  0.96960  0.70880  0.46750  1.0000 0.1103302753
C   C54       1.0  0.03040  0.29120  0.46750  1.0000 0.1103302753
C   C55       1.0  0.70880  0.03040  0.53250  1.0000 0.1103302753
C   C56       1.0  0.29120  0.96960  0.53250  1.0000 0.1103302753
C   C57       1.0  0.19310  0.39370  0.00840  1.0000 -0.179321177
C   C58       1.0  0.80690  0.60630  0.00840  1.0000 -0.179321177
C   C59       1.0  0.60630  0.19310  0.99160  1.0000 -0.179321177
C   C60       1.0  0.39370  0.80690  0.99160  1.0000 -0.179321177
C   C61       1.0  0.30690  0.89370  0.50840  1.0000 -0.179321177
C   C62       1.0  0.69310  0.10630  0.50840  1.0000 -0.179321177
C   C63       1.0  0.89370  0.69310  0.49160  1.0000 -0.179321177
C   C64       1.0  0.10630  0.30690  0.49160  1.0000 -0.179321177
C   C65       1.0  0.41370  0.23740  0.18290  1.0000 0.1103302753
C   C66       1.0  0.58630  0.76260  0.18290  1.0000 0.1103302753
C   C67       1.0  0.76260  0.41370  0.81710  1.0000 0.1103302753
C   C68       1.0  0.23740  0.58630  0.81710  1.0000 0.1103302753
C   C69       1.0  0.08630  0.73740  0.68290  1.0000 0.1103302753
C   C70       1.0  0.91370  0.26260  0.68290  1.0000 0.1103302753
C   C71       1.0  0.73740  0.91370  0.31710  1.0000 0.1103302753
C   C72       1.0  0.26260  0.08630  0.31710  1.0000 0.1103302753
C   C73       1.0  0.47660  0.23480  0.12440  1.0000 -0.1675276641
C   C74       1.0  0.52340  0.76520  0.12440  1.0000 -0.1675276641
C   C75       1.0  0.76520  0.47660  0.87560  1.0000 -0.1675276641
C   C76       1.0  0.23480  0.52340  0.87560  1.0000 -0.1675276641
C   C77       1.0  0.02340  0.73480  0.62440  1.0000 -0.1675276641
C   C78       1.0  0.97660  0.26520  0.62440  1.0000 -0.1675276641
C   C79       1.0  0.73480  0.97660  0.37560  1.0000 -0.1675276641
C   C80       1.0  0.26520  0.02340  0.37560  1.0000 -0.1675276641
N   N1        1.0  0.21600  0.34710  0.15910  1.0000 -0.2147081677
N   N2        1.0  0.78400  0.65290  0.15910  1.0000 -0.219196621
N   N3        1.0  0.65290  0.21600  0.84090  1.0000 -0.219196621
N   N4        1.0  0.34710  0.78400  0.84090  1.0000 -0.219196621
N   N5        1.0  0.28400  0.84710  0.65910  1.0000 -0.219196621
N   N6        1.0  0.71600  0.15290  0.65910  1.0000 -0.219196621
N   N7        1.0  0.84710  0.71600  0.34090  1.0000 -0.219196621
N   N8        1.0  0.15290  0.28400  0.34090  1.0000 -0.2147081677
N   N9        1.0  0.34000  0.22130  0.16000  1.0000 -0.219196621
N   N10       1.0  0.66000  0.77870  0.16000  1.0000 -0.219196621
N   N11       1.0  0.77870  0.34000  0.84000  1.0000 -0.225082833
N   N12       1.0  0.22130  0.66000  0.84000  1.0000 -0.225082833
N   N13       1.0  0.16000  0.72130  0.66000  1.0000 -0.219196621
N   N14       1.0  0.84000  0.27870  0.66000  1.0000 -0.225082833
N   N15       1.0  0.72130  0.84000  0.34000  1.0000 -0.225082833
N   N16       1.0  0.27870  0.16000  0.34000  1.0000 -0.219196621
O   O1        1.0  0.17100  0.18240  0.18160  1.0000 -0.7574865927
O   O2        1.0  0.82900  0.81760  0.18160  1.0000 -0.7574865927
O   O3        1.0  0.81760  0.17100  0.81840  1.0000 -0.7574865927
O   O4        1.0  0.18240  0.82900  0.81840  1.0000 -0.7574865927
O   O5        1.0  0.32900  0.68240  0.68160  1.0000 -0.7574865927
O   O6        1.0  0.67100  0.31760  0.68160  1.0000 -0.7574865927
O   O7        1.0  0.68240  0.67100  0.31840  1.0000 -0.7574865927
O   O8        1.0  0.31760  0.32900  0.31840  1.0000 -0.7574865927
O   O9        1.0  0.05910  0.18500  0.03770  1.0000 -1.0552652363
O   O10       1.0  0.94090  0.81500  0.03770  1.0000 -1.0524454916
O   O11       1.0  0.81500  0.05910  0.96230  1.0000 -1.0524454916
O   O12       1.0  0.18500  0.94090  0.96230  1.0000 -1.0524454916
O   O13       1.0  0.44090  0.68500  0.53770  1.0000 -1.0524454916
O   O14       1.0  0.55910  0.31500  0.53770  1.0000 -1.0524454916
O   O15       1.0  0.68500  0.55910  0.46230  1.0000 -1.0524454916
O   O16       1.0  0.31500  0.44090  0.46230  1.0000 -1.0524454916
O   O17       1.0  0.00910  0.12980  0.18280  1.0000 -1.0797470778
O   O18       1.0  0.99090  0.87020  0.18280  1.0000 -1.0797470778
O   O19       1.0  0.87020  0.00910  0.81720  1.0000 -1.0797470778
O   O20       1.0  0.12980  0.99090  0.81720  1.0000 -1.0797470778
O   O21       1.0  0.49090  0.62980  0.68280  1.0000 -1.0797470778
O   O22       1.0  0.50910  0.37020  0.68280  1.0000 -1.0797470778
O   O23       1.0  0.62980  0.50910  0.31720  1.0000 -1.0797470778
O   O24       1.0  0.37020  0.49090  0.31720  1.0000 -1.0797470778
O   O25       1.0  0.93250  0.27160  0.12420  1.0000 -0.6531154041
O   O26       1.0  0.06750  0.72840  0.12420  1.0000 -0.6531154041
O   O27       1.0  0.72840  0.93250  0.87580  1.0000 -0.6531154041
O   O28       1.0  0.27160  0.06750  0.87580  1.0000 -0.6531154041
O   O29       1.0  0.56750  0.77160  0.62420  1.0000 -0.6531154041
O   O30       1.0  0.43250  0.22840  0.62420  1.0000 -0.6531154041
O   O31       1.0  0.77160  0.43250  0.37580  1.0000 -0.6531154041
O   O32       1.0  0.22840  0.56750  0.37580  1.0000 -0.6531154041
O   O33       1.0  0.86840  0.12140  0.12240  1.0000 -1.0182847265
O   O34       1.0  0.13160  0.87860  0.12240  1.0000 -1.0182847265
O   O35       1.0  0.87860  0.86840  0.87760  1.0000 -1.0182847265
O   O36       1.0  0.12140  0.13160  0.87760  1.0000 -1.0182847265
O   O37       1.0  0.63160  0.62140  0.62240  1.0000 -1.0182847265
O   O38       1.0  0.36840  0.37860  0.62240  1.0000 -1.0182847265
O   O39       1.0  0.62140  0.36840  0.37760  1.0000 -1.0182847265
O   O40       1.0  0.37860  0.63160  0.37760  1.0000 -1.0182847265
O   O41       1.0  0.17790  0.07180  0.03720  1.0000 -1.0524454916
O   O42       1.0  0.82210  0.92820  0.03720  1.0000 -1.0524454916
O   O43       1.0  0.92820  0.17790  0.96280  1.0000 -1.0524454916
O   O44       1.0  0.07180  0.82210  0.96280  1.0000 -1.0524454916
O   O45       1.0  0.32210  0.57180  0.53720  1.0000 -1.0524454916
O   O46       1.0  0.67790  0.42820  0.53720  1.0000 -1.0524454916
O   O47       1.0  0.57180  0.67790  0.46280  1.0000 -1.0524454916
O   O48       1.0  0.42820  0.32210  0.46280  1.0000 -1.0524454916
O   O49       1.0  0.04350  0.27660  0.87680  1.0000 -0.6566243312
O   O50       1.0  0.95650  0.72340  0.87680  1.0000 -0.6566243312
O   O51       1.0  0.72340  0.04350  0.12320  1.0000 -0.6566243312
O   O52       1.0  0.27660  0.95650  0.12320  1.0000 -0.6566243312
O   O53       1.0  0.45650  0.77660  0.37680  1.0000 -0.6531154041
O   O54       1.0  0.54350  0.22340  0.37680  1.0000 -0.6566243312
O   O55       1.0  0.77660  0.54350  0.62320  1.0000 -0.6566243312
O   O56       1.0  0.22340  0.45650  0.62320  1.0000 -0.6566243312
O   O57       1.0  0.12980  0.01890  0.18210  1.0000 -1.0797470778
O   O58       1.0  0.87020  0.98110  0.18210  1.0000 -1.0797470778
O   O59       1.0  0.98110  0.12980  0.81790  1.0000 -1.0797470778
O   O60       1.0  0.01890  0.87020  0.81790  1.0000 -1.0797470778
O   O61       1.0  0.37020  0.51890  0.68210  1.0000 -1.0797470778
O   O62       1.0  0.62980  0.48110  0.68210  1.0000 -1.0797470778
O   O63       1.0  0.51890  0.62980  0.31790  1.0000 -1.0851458792
O   O64       1.0  0.48110  0.37020  0.31790  1.0000 -1.0851458792
O   O65       1.0  0.00000  0.00000  0.28350  1.0000 -0.8879371618
O   O66       1.0  0.00000  0.00000  0.71650  1.0000 -0.8879371618
O   O67       1.0  0.50000  0.50000  0.78350  1.0000 -0.8879371618
O   O68       1.0  0.50000  0.50000  0.21650  1.0000 -0.8879371618
O   O69       1.0  0.88640  0.10590  0.31710  1.0000 -0.6696993519
O   O70       1.0  0.11360  0.89410  0.31710  1.0000 -0.6696993519
O   O71       1.0  0.89410  0.88640  0.68290  1.0000 -0.6696993519
O   O72       1.0  0.10590  0.11360  0.68290  1.0000 -0.6696993519
O   O73       1.0  0.61360  0.60590  0.81710  1.0000 -0.6696993519
O   O74       1.0  0.38640  0.39410  0.81710  1.0000 -0.6696993519
O   O75       1.0  0.60590  0.38640  0.18290  1.0000 -0.6696993519
O   O76       1.0  0.39410  0.61360  0.18290  1.0000 -0.6696993519
F   F1        1.0  0.50000  0.50000  0.50000  1.0000 -0.6531154041
F   F2        1.0  0.00000  0.00000  0.00000  1.0000 -0.6446138505
