# DDEC6 charges by PACMAN v1.1 (https://github.com/mtap-research/PACMAN-charge/)
data_2007[Cu][reo]3[ION]1
_chemical_formula_sum              "Cu9 H72 C84 N48 Cl14 O8"
_cell_length_a       16.8106
_cell_length_b       16.8106
_cell_length_c       16.8106
_cell_angle_alpha    94.9438
_cell_angle_beta     94.9438
_cell_angle_gamma    94.9438

_symmetry_space_group_name_H-M    "P 1"
_symmetry_Int_Tables_number       1

loop_
  _symmetry_equiv_pos_as_xyz
  'x, y, z'

loop_
  _atom_site_type_symbol
  _atom_site_label
  _atom_site_symmetry_multiplicity
  _atom_site_fract_x
  _atom_site_fract_y
  _atom_site_fract_z
  _atom_site_occupancy
  _atom_site_charge
Cu  Cu1       1.0  0.54152  0.16033  0.38101  1.0000 0.553695948
Cu  Cu2       1.0  0.16033  0.38101  0.54152  1.0000 0.553695948
Cu  Cu3       1.0  0.38101  0.54152  0.16033  1.0000 0.553695948
Cu  Cu4       1.0  0.45848  0.83967  0.61899  1.0000 0.553695948
Cu  Cu5       1.0  0.83967  0.61899  0.45848  1.0000 0.553695948
Cu  Cu6       1.0  0.61899  0.45848  0.83967  1.0000 0.553695948
Cu  Cu7       1.0  0.50000  0.00000  0.50000  1.0000 0.6248191804
Cu  Cu8       1.0  0.00000  0.50000  0.50000  1.0000 0.6256349296
Cu  Cu9       1.0  0.50000  0.50000  0.00000  1.0000 0.6256349296
H   H1        1.0  0.58590  0.08990  0.65960  1.0000 0.1198403063
H   H2        1.0  0.08990  0.65960  0.58590  1.0000 0.1198403063
H   H3        1.0  0.65960  0.58590  0.08990  1.0000 0.1198403063
H   H4        1.0  0.41410  0.91010  0.34040  1.0000 0.1198403063
H   H5        1.0  0.91010  0.34040  0.41410  1.0000 0.1198403063
H   H6        1.0  0.34040  0.41410  0.91010  1.0000 0.1198403063
H   H7        1.0  0.63300  0.27800  0.54080  1.0000 0.1292528861
H   H8        1.0  0.27800  0.54080  0.63300  1.0000 0.1292528861
H   H9        1.0  0.54080  0.63300  0.27800  1.0000 0.1292528861
H   H10       1.0  0.36700  0.72200  0.45920  1.0000 0.1292528861
H   H11       1.0  0.72200  0.45920  0.36700  1.0000 0.1292528861
H   H12       1.0  0.45920  0.36700  0.72200  1.0000 0.1292528861
H   H13       1.0  0.73660  0.16480  0.72710  1.0000 0.1292528861
H   H14       1.0  0.16480  0.72710  0.73660  1.0000 0.1292528861
H   H15       1.0  0.72710  0.73660  0.16480  1.0000 0.1292528861
H   H16       1.0  0.26340  0.83520  0.27290  1.0000 0.1292528861
H   H17       1.0  0.83520  0.27290  0.26340  1.0000 0.1292528861
H   H18       1.0  0.27290  0.26340  0.83520  1.0000 0.1292528861
H   H19       1.0  0.77890  0.22850  0.85690  1.0000 0.1292528861
H   H20       1.0  0.22850  0.85690  0.77890  1.0000 0.1292528861
H   H21       1.0  0.85690  0.77890  0.22850  1.0000 0.1292528861
H   H22       1.0  0.22110  0.77150  0.14310  1.0000 0.1292528861
H   H23       1.0  0.77150  0.14310  0.22110  1.0000 0.1292528861
H   H24       1.0  0.14310  0.22110  0.77150  1.0000 0.1292528861
H   H25       1.0  0.59150  0.33520  0.69400  1.0000 0.1198403063
H   H26       1.0  0.33520  0.69400  0.59150  1.0000 0.1198403063
H   H27       1.0  0.69400  0.59150  0.33520  1.0000 0.1198403063
H   H28       1.0  0.40850  0.66480  0.30600  1.0000 0.1198403063
H   H29       1.0  0.66480  0.30600  0.40850  1.0000 0.1198403063
H   H30       1.0  0.30600  0.40850  0.66480  1.0000 0.1198403063
H   H31       1.0  0.72790  0.34680  0.89610  1.0000 0.1102621789
H   H32       1.0  0.34680  0.89610  0.72790  1.0000 0.1102621789
H   H33       1.0  0.89610  0.72790  0.34680  1.0000 0.1102621789
H   H34       1.0  0.27210  0.65320  0.10390  1.0000 0.1102621789
H   H35       1.0  0.65320  0.10390  0.27210  1.0000 0.1102621789
H   H36       1.0  0.10390  0.27210  0.65320  1.0000 0.1102621789
H   H37       1.0  0.36220  0.21430  0.38270  1.0000 0.1292528861
H   H38       1.0  0.21430  0.38270  0.36220  1.0000 0.1292528861
H   H39       1.0  0.38270  0.36220  0.21430  1.0000 0.1292528861
H   H40       1.0  0.63780  0.78570  0.61730  1.0000 0.1292528861
H   H41       1.0  0.78570  0.61730  0.63780  1.0000 0.1292528861
H   H42       1.0  0.61730  0.63780  0.78570  1.0000 0.1292528861
H   H43       1.0  0.31190  0.02670  0.49970  1.0000 0.1292528861
H   H44       1.0  0.02670  0.49970  0.31190  1.0000 0.1292528861
H   H45       1.0  0.49970  0.31190  0.02670  1.0000 0.1292528861
H   H46       1.0  0.68810  0.97330  0.50030  1.0000 0.1292528861
H   H47       1.0  0.97330  0.50030  0.68810  1.0000 0.1292528861
H   H48       1.0  0.50030  0.68810  0.97330  1.0000 0.1292528861
H   H49       1.0  0.27460  0.26480  0.49660  1.0000 0.1198403063
H   H50       1.0  0.26480  0.49660  0.27460  1.0000 0.1198403063
H   H51       1.0  0.49660  0.27460  0.26480  1.0000 0.1198403063
H   H52       1.0  0.72540  0.73520  0.50340  1.0000 0.1198403063
H   H53       1.0  0.73520  0.50340  0.72540  1.0000 0.1198403063
H   H54       1.0  0.50340  0.72540  0.73520  1.0000 0.1198403063
H   H55       1.0  0.04120  0.23740  0.47690  1.0000 0.1102621789
H   H56       1.0  0.23740  0.47690  0.04120  1.0000 0.1102621789
H   H57       1.0  0.47690  0.04120  0.23740  1.0000 0.1102621789
H   H58       1.0  0.95880  0.76260  0.52310  1.0000 0.1102621789
H   H59       1.0  0.76260  0.52310  0.95880  1.0000 0.1102621789
H   H60       1.0  0.52310  0.95880  0.76260  1.0000 0.1102621789
H   H61       1.0  0.04210  0.10540  0.43310  1.0000 0.13782437
H   H62       1.0  0.10540  0.43310  0.04210  1.0000 0.13782437
H   H63       1.0  0.43310  0.04210  0.10540  1.0000 0.13782437
H   H64       1.0  0.95790  0.89460  0.56690  1.0000 0.13782437
H   H65       1.0  0.89460  0.56690  0.95790  1.0000 0.13782437
H   H66       1.0  0.56690  0.95790  0.89460  1.0000 0.13782437
H   H67       1.0  0.16130  0.05040  0.41600  1.0000 0.1292528861
H   H68       1.0  0.05040  0.41600  0.16130  1.0000 0.1292528861
H   H69       1.0  0.41600  0.16130  0.05040  1.0000 0.1292528861
H   H70       1.0  0.83870  0.94960  0.58400  1.0000 0.1292528861
H   H71       1.0  0.94960  0.58400  0.83870  1.0000 0.1292528861
H   H72       1.0  0.58400  0.83870  0.94960  1.0000 0.1292528861
C   C1        1.0  0.59000  0.12320  0.61860  1.0000 0.0970082194
C   C2        1.0  0.12320  0.61860  0.59000  1.0000 0.0970082194
C   C3        1.0  0.61860  0.59000  0.12320  1.0000 0.0970082194
C   C4        1.0  0.41000  0.87680  0.38140  1.0000 0.0970082194
C   C5        1.0  0.87680  0.38140  0.41000  1.0000 0.0970082194
C   C6        1.0  0.38140  0.41000  0.87680  1.0000 0.0970082194
C   C7        1.0  0.61640  0.22660  0.55300  1.0000 0.1102621789
C   C8        1.0  0.22660  0.55300  0.61640  1.0000 0.1102621789
C   C9        1.0  0.55300  0.61640  0.22660  1.0000 0.1102621789
C   C10       1.0  0.38360  0.77340  0.44700  1.0000 0.1102621789
C   C11       1.0  0.77340  0.44700  0.38360  1.0000 0.1102621789
C   C12       1.0  0.44700  0.38360  0.77340  1.0000 0.1102621789
C   C13       1.0  0.65560  0.24280  0.70250  1.0000 0.0970082194
C   C14       1.0  0.24280  0.70250  0.65560  1.0000 0.0970082194
C   C15       1.0  0.70250  0.65560  0.24280  1.0000 0.0970082194
C   C16       1.0  0.34440  0.75720  0.29750  1.0000 0.0970082194
C   C17       1.0  0.75720  0.29750  0.34440  1.0000 0.0970082194
C   C18       1.0  0.29750  0.34440  0.75720  1.0000 0.0970082194
C   C19       1.0  0.71470  0.21060  0.74670  1.0000 -0.139117518
C   C20       1.0  0.21060  0.74670  0.71470  1.0000 -0.139117518
C   C21       1.0  0.74670  0.71470  0.21060  1.0000 -0.139117518
C   C22       1.0  0.28530  0.78940  0.25330  1.0000 -0.139117518
C   C23       1.0  0.78940  0.25330  0.28530  1.0000 -0.139117518
C   C24       1.0  0.25330  0.28530  0.78940  1.0000 -0.139117518
C   C25       1.0  0.74140  0.24970  0.82310  1.0000 -0.1233056165
C   C26       1.0  0.24970  0.82310  0.74140  1.0000 -0.1233056165
C   C27       1.0  0.82310  0.74140  0.24970  1.0000 -0.1233056165
C   C28       1.0  0.25860  0.75030  0.17690  1.0000 -0.1233056165
C   C29       1.0  0.75030  0.17690  0.25860  1.0000 -0.1233056165
C   C30       1.0  0.17690  0.25860  0.75030  1.0000 -0.1233056165
C   C31       1.0  0.62900  0.31320  0.72740  1.0000 -0.0012808203
C   C32       1.0  0.31320  0.72740  0.62900  1.0000 -0.0012808203
C   C33       1.0  0.72740  0.62900  0.31320  1.0000 -0.0012808203
C   C34       1.0  0.37100  0.68680  0.27260  1.0000 -0.0012808203
C   C35       1.0  0.68680  0.27260  0.37100  1.0000 -0.0012808203
C   C36       1.0  0.27260  0.37100  0.68680  1.0000 -0.0012808203
C   C37       1.0  0.71020  0.32030  0.84610  1.0000 0.0561629324
C   C38       1.0  0.32030  0.84610  0.71020  1.0000 0.0561629324
C   C39       1.0  0.84610  0.71020  0.32030  1.0000 0.0561629324
C   C40       1.0  0.28980  0.67970  0.15390  1.0000 0.0561629324
C   C41       1.0  0.67970  0.15390  0.28980  1.0000 0.0561629324
C   C42       1.0  0.15390  0.28980  0.67970  1.0000 0.0561629324
C   C43       1.0  0.36700  0.16770  0.40800  1.0000 0.1292528861
C   C44       1.0  0.16770  0.40800  0.36700  1.0000 0.1292528861
C   C45       1.0  0.40800  0.36700  0.16770  1.0000 0.1292528861
C   C46       1.0  0.63300  0.83230  0.59200  1.0000 0.1292528861
C   C47       1.0  0.83230  0.59200  0.63300  1.0000 0.1292528861
C   C48       1.0  0.59200  0.63300  0.83230  1.0000 0.1292528861
C   C49       1.0  0.33890  0.06480  0.47210  1.0000 0.1198403063
C   C50       1.0  0.06480  0.47210  0.33890  1.0000 0.1198403063
C   C51       1.0  0.47210  0.33890  0.06480  1.0000 0.1198403063
C   C52       1.0  0.66110  0.93520  0.52790  1.0000 0.1198403063
C   C53       1.0  0.93520  0.52790  0.66110  1.0000 0.1198403063
C   C54       1.0  0.52790  0.66110  0.93520  1.0000 0.1198403063
C   C55       1.0  0.23010  0.15480  0.45160  1.0000 0.1198403063
C   C56       1.0  0.15480  0.45160  0.23010  1.0000 0.1198403063
C   C57       1.0  0.45160  0.23010  0.15480  1.0000 0.1198403063
C   C58       1.0  0.76990  0.84520  0.54840  1.0000 0.1198403063
C   C59       1.0  0.84520  0.54840  0.76990  1.0000 0.1198403063
C   C60       1.0  0.54840  0.76990  0.84520  1.0000 0.1198403063
C   C61       1.0  0.22670  0.23280  0.48200  1.0000 -0.0085529954
C   C62       1.0  0.23280  0.48200  0.22670  1.0000 -0.0085529954
C   C63       1.0  0.48200  0.22670  0.23280  1.0000 -0.0085529954
C   C64       1.0  0.77330  0.76720  0.51800  1.0000 -0.0085529954
C   C65       1.0  0.76720  0.51800  0.77330  1.0000 -0.0085529954
C   C66       1.0  0.51800  0.77330  0.76720  1.0000 -0.0085529954
C   C67       1.0  0.09020  0.21650  0.47190  1.0000 0.0561629324
C   C68       1.0  0.21650  0.47190  0.09020  1.0000 0.0561629324
C   C69       1.0  0.47190  0.09020  0.21650  1.0000 0.0561629324
C   C70       1.0  0.90980  0.78350  0.52810  1.0000 0.0561629324
C   C71       1.0  0.78350  0.52810  0.90980  1.0000 0.0561629324
C   C72       1.0  0.52810  0.90980  0.78350  1.0000 0.0561629324
C   C73       1.0  0.09040  0.13710  0.44460  1.0000 -0.1258023321
C   C74       1.0  0.13710  0.44460  0.09040  1.0000 -0.1258023321
C   C75       1.0  0.44460  0.09040  0.13710  1.0000 -0.1258023321
C   C76       1.0  0.90960  0.86290  0.55540  1.0000 -0.1258023321
C   C77       1.0  0.86290  0.55540  0.90960  1.0000 -0.1258023321
C   C78       1.0  0.55540  0.90960  0.86290  1.0000 -0.1258023321
C   C79       1.0  0.16050  0.10420  0.43410  1.0000 -0.1233056165
C   C80       1.0  0.10420  0.43410  0.16050  1.0000 -0.1233056165
C   C81       1.0  0.43410  0.16050  0.10420  1.0000 -0.1233056165
C   C82       1.0  0.83950  0.89580  0.56590  1.0000 -0.1233056165
C   C83       1.0  0.89580  0.56590  0.83950  1.0000 -0.1233056165
C   C84       1.0  0.56590  0.83950  0.89580  1.0000 -0.1233056165
N   N1        1.0  0.56438  0.10338  0.54398  1.0000 -0.1683310036
N   N2        1.0  0.10338  0.54398  0.56438  1.0000 -0.1683310036
N   N3        1.0  0.54398  0.56438  0.10338  1.0000 -0.1683310036
N   N4        1.0  0.43562  0.89662  0.45602  1.0000 -0.1683310036
N   N5        1.0  0.89662  0.45602  0.43562  1.0000 -0.1683310036
N   N6        1.0  0.45602  0.43562  0.89662  1.0000 -0.1683310036
N   N7        1.0  0.58190  0.16810  0.50080  1.0000 -0.1683310036
N   N8        1.0  0.16810  0.50080  0.58190  1.0000 -0.1683310036
N   N9        1.0  0.50080  0.58190  0.16810  1.0000 -0.1683310036
N   N10       1.0  0.41810  0.83190  0.49920  1.0000 -0.1683310036
N   N11       1.0  0.83190  0.49920  0.41810  1.0000 -0.1683310036
N   N12       1.0  0.49920  0.41810  0.83190  1.0000 -0.1683310036
N   N13       1.0  0.62380  0.20020  0.62780  1.0000 -0.0085529954
N   N14       1.0  0.20020  0.62780  0.62380  1.0000 -0.0085529954
N   N15       1.0  0.62780  0.62380  0.20020  1.0000 -0.0085529954
N   N16       1.0  0.37620  0.79980  0.37220  1.0000 -0.0085529954
N   N17       1.0  0.79980  0.37220  0.37620  1.0000 -0.0085529954
N   N18       1.0  0.37220  0.37620  0.79980  1.0000 -0.0085529954
N   N19       1.0  0.65510  0.35210  0.79860  1.0000 -0.1881831129
N   N20       1.0  0.35210  0.79860  0.65510  1.0000 -0.1881831129
N   N21       1.0  0.79860  0.65510  0.35210  1.0000 -0.1881831129
N   N22       1.0  0.34490  0.64790  0.20140  1.0000 -0.1881831129
N   N23       1.0  0.64790  0.20140  0.34490  1.0000 -0.1881831129
N   N24       1.0  0.20140  0.34490  0.64790  1.0000 -0.1881831129
N   N25       1.0  0.43149  0.13119  0.41539  1.0000 -0.1683310036
N   N26       1.0  0.13119  0.41539  0.43149  1.0000 -0.1683310036
N   N27       1.0  0.41539  0.43149  0.13119  1.0000 -0.1683310036
N   N28       1.0  0.56851  0.86881  0.58461  1.0000 -0.1683310036
N   N29       1.0  0.86881  0.58461  0.56851  1.0000 -0.1683310036
N   N30       1.0  0.58461  0.56851  0.86881  1.0000 -0.1683310036
N   N31       1.0  0.41292  0.06482  0.45632  1.0000 -0.1648119777
N   N32       1.0  0.06482  0.45632  0.41292  1.0000 -0.1648119777
N   N33       1.0  0.45632  0.41292  0.06482  1.0000 -0.1648119777
N   N34       1.0  0.58708  0.93518  0.54368  1.0000 -0.1648119777
N   N35       1.0  0.93518  0.54368  0.58708  1.0000 -0.1648119777
N   N36       1.0  0.54368  0.58708  0.93518  1.0000 -0.1648119777
N   N37       1.0  0.30690  0.12800  0.44270  1.0000 -0.0085529954
N   N38       1.0  0.12800  0.44270  0.30690  1.0000 -0.0085529954
N   N39       1.0  0.44270  0.30690  0.12800  1.0000 -0.0085529954
N   N40       1.0  0.69310  0.87200  0.55730  1.0000 -0.0085529954
N   N41       1.0  0.87200  0.55730  0.69310  1.0000 -0.0085529954
N   N42       1.0  0.55730  0.69310  0.87200  1.0000 -0.0085529954
N   N43       1.0  0.15750  0.26500  0.49170  1.0000 -0.1881831129
N   N44       1.0  0.26500  0.49170  0.15750  1.0000 -0.1881831129
N   N45       1.0  0.49170  0.15750  0.26500  1.0000 -0.1881831129
N   N46       1.0  0.84250  0.73500  0.50830  1.0000 -0.1881831129
N   N47       1.0  0.73500  0.50830  0.84250  1.0000 -0.1881831129
N   N48       1.0  0.50830  0.84250  0.73500  1.0000 -0.1881831129
Cl  Cl1       1.0  0.56899  0.01093  0.36779  1.0000 -0.6755527148
Cl  Cl2       1.0  0.01093  0.36779  0.56899  1.0000 -0.6755527148
Cl  Cl3       1.0  0.36779  0.56899  0.01093  1.0000 -0.6755527148
Cl  Cl4       1.0  0.43101  0.98907  0.63221  1.0000 -0.6755527148
Cl  Cl5       1.0  0.98907  0.63221  0.43101  1.0000 -0.6755527148
Cl  Cl6       1.0  0.63221  0.43101  0.98907  1.0000 -0.6755527148
Cl  Cl7       1.0  0.76138  0.76138  0.76138  1.0000 1.2223231406
Cl  Cl8       1.0  0.23862  0.23862  0.23862  1.0000 1.2223231406
Cl  Cl9       1.0  0.69026  0.42286  0.56210  1.0000 -0.6374617208
Cl  Cl10      1.0  0.56210  0.69026  0.42286  1.0000 -0.6374617208
Cl  Cl11      1.0  0.42286  0.56210  0.69026  1.0000 -0.6374617208
Cl  Cl12      1.0  0.30974  0.57714  0.43790  1.0000 -0.6374617208
Cl  Cl13      1.0  0.43790  0.30974  0.57714  1.0000 -0.6374617208
Cl  Cl14      1.0  0.57714  0.43790  0.30974  1.0000 -0.6374617208
O   O1        1.0  0.70717  0.70717  0.70717  1.0000 -0.5498862653
O   O2        1.0  0.83720  0.75730  0.73940  1.0000 -0.4717914849
O   O3        1.0  0.75730  0.73940  0.83720  1.0000 -0.4717914849
O   O4        1.0  0.73940  0.83720  0.75730  1.0000 -0.4717914849
O   O5        1.0  0.29283  0.29283  0.29283  1.0000 -0.5498862653
O   O6        1.0  0.16280  0.24270  0.26060  1.0000 -0.4717914849
O   O7        1.0  0.24270  0.26060  0.16280  1.0000 -0.4717914849
O   O8        1.0  0.26060  0.16280  0.24270  1.0000 -0.4717914849
