# DDEC6 charges by PACMAN v1.1 (https://github.com/mtap-research/PACMAN-charge/)
data_2007[AgIn][ths]3[ION]1
_chemical_formula_sum              "In4 Ag4 P4 H120 C168 N36 F24"
_cell_length_a       17.1679
_cell_length_b       17.1679
_cell_length_c       33.715
_cell_angle_alpha    113.382
_cell_angle_beta     113.382
_cell_angle_gamma    44.0047

_symmetry_space_group_name_H-M    "P 1"
_symmetry_Int_Tables_number       1

loop_
  _symmetry_equiv_pos_as_xyz
  'x, y, z'

loop_
  _atom_site_type_symbol
  _atom_site_label
  _atom_site_symmetry_multiplicity
  _atom_site_fract_x
  _atom_site_fract_y
  _atom_site_fract_z
  _atom_site_occupancy
  _atom_site_charge
In  In1       1.0  0.97326  0.91142  0.59017  1.0000 1.1030523956
In  In2       1.0  0.08858  0.02674  0.90983  1.0000 1.1030523956
In  In3       1.0  0.02674  0.08858  0.40983  1.0000 1.1030523956
In  In4       1.0  0.91142  0.97326  0.09017  1.0000 1.1030523956
Ag  Ag1       1.0  0.53248  0.01728  0.76951  1.0000 0.297795783
Ag  Ag2       1.0  0.98272  0.46752  0.73049  1.0000 0.297795783
Ag  Ag3       1.0  0.46752  0.98272  0.23049  1.0000 0.297795783
Ag  Ag4       1.0  0.01728  0.53248  0.26951  1.0000 0.297795783
P   P1        1.0  0.68211  0.66585  0.72486  1.0000 1.0247439623
P   P2        1.0  0.33415  0.31789  0.77514  1.0000 1.0314708234
P   P3        1.0  0.31789  0.33415  0.27514  1.0000 1.0357008457
P   P4        1.0  0.66585  0.68211  0.22486  1.0000 1.0314708234
H   H1        1.0  0.79090  0.18090  0.63580  1.0000 0.0904670353
H   H2        1.0  0.83180  0.30040  0.69470  1.0000 0.1102397598
H   H3        1.0  0.04260  0.18040  0.70840  1.0000 0.1102397598
H   H4        1.0  0.39000  0.76820  0.63600  1.0000 0.1174782308
H   H5        1.0  0.40650  0.61450  0.57830  1.0000 0.1174782308
H   H6        1.0  0.21600  0.67420  0.55460  1.0000 0.0991193858
H   H7        1.0  0.33650  0.85490  0.72030  1.0000 0.1302880921
H   H8        1.0  0.45560  0.88840  0.76540  1.0000 0.0904670353
H   H9        1.0  0.30760  0.13060  0.70480  1.0000 0.0904670353
H   H10       1.0  0.17980  0.11160  0.65990  1.0000 0.1174782308
H   H11       1.0  0.70970  0.08510  0.53800  1.0000 0.0991193858
H   H12       1.0  0.52920  0.15740  0.55000  1.0000 0.1174782308
H   H13       1.0  0.58640  0.07280  0.61280  1.0000 0.1174782308
H   H14       1.0  0.97250  0.81970  0.72400  1.0000 0.1174782308
H   H15       1.0  0.17290  0.71970  0.72900  1.0000 0.1174782308
H   H16       1.0  0.18050  0.76330  0.66830  1.0000 0.0991193858
H   H17       1.0  0.65550  0.12290  0.69880  1.0000 0.1387641505
H   H18       1.0  0.56260  0.13700  0.73910  1.0000 0.0815973675
H   H19       1.0  0.73050  0.81050  0.70420  1.0000 0.0991193858
H   H20       1.0  0.83230  0.78690  0.66430  1.0000 0.1302880921
H   H21       1.0  0.12750  0.86670  0.05180  1.0000 0.0904670353
H   H22       1.0  0.14830  0.81810  0.97370  1.0000 0.1174782308
H   H23       1.0  0.96370  0.87570  0.92720  1.0000 0.1174782308
H   H24       1.0  0.58080  0.04080  0.95690  1.0000 0.1174782308
H   H25       1.0  0.51400  0.09080  0.02340  1.0000 0.1174782308
H   H26       1.0  0.66650  0.05550  0.08770  1.0000 0.0991193858
H   H27       1.0  0.71030  0.10690  0.92390  1.0000 0.1387641505
H   H28       1.0  0.62010  0.11450  0.85010  1.0000 0.0904670353
H   H29       1.0  0.69540  0.83140  0.83810  1.0000 0.0991193858
H   H30       1.0  0.78360  0.81780  0.91090  1.0000 0.1302880921
H   H31       1.0  0.81910  0.20910  0.86420  1.0000 0.0904670353
H   H32       1.0  0.69960  0.16820  0.80530  1.0000 0.1102397598
H   H33       1.0  0.81960  0.95740  0.79160  1.0000 0.1102397598
H   H34       1.0  0.23180  0.61000  0.86400  1.0000 0.1174782308
H   H35       1.0  0.38550  0.59350  0.92170  1.0000 0.1174782308
H   H36       1.0  0.32580  0.78400  0.94540  1.0000 0.0991193858
H   H37       1.0  0.14510  0.66350  0.77970  1.0000 0.1302880921
H   H38       1.0  0.11160  0.54440  0.73460  1.0000 0.0904670353
H   H39       1.0  0.86940  0.69240  0.79520  1.0000 0.0904670353
H   H40       1.0  0.88840  0.82020  0.84010  1.0000 0.1174782308
H   H41       1.0  0.91490  0.29030  0.96200  1.0000 0.0991193858
H   H42       1.0  0.84260  0.47080  0.95000  1.0000 0.1174782308
H   H43       1.0  0.92720  0.41360  0.88720  1.0000 0.1174782308
H   H44       1.0  0.18030  0.02750  0.77600  1.0000 0.1174782308
H   H45       1.0  0.28030  0.82710  0.77100  1.0000 0.1174782308
H   H46       1.0  0.23670  0.81950  0.83170  1.0000 0.0991193858
H   H47       1.0  0.87710  0.34450  0.80120  1.0000 0.1387641505
H   H48       1.0  0.86300  0.43740  0.76090  1.0000 0.0815973675
H   H49       1.0  0.18950  0.26950  0.79580  1.0000 0.0991193858
H   H50       1.0  0.21310  0.16770  0.83570  1.0000 0.1302880921
H   H51       1.0  0.13330  0.87250  0.44820  1.0000 0.0904670353
H   H52       1.0  0.18190  0.85170  0.52630  1.0000 0.1174782308
H   H53       1.0  0.12430  0.03630  0.57280  1.0000 0.1174782308
H   H54       1.0  0.95920  0.41920  0.54310  1.0000 0.1174782308
H   H55       1.0  0.90920  0.48600  0.47660  1.0000 0.1174782308
H   H56       1.0  0.94450  0.33350  0.41230  1.0000 0.0991193858
H   H57       1.0  0.89310  0.28970  0.57610  1.0000 0.1387641505
H   H58       1.0  0.88550  0.37990  0.64990  1.0000 0.0904670353
H   H59       1.0  0.16860  0.30460  0.66190  1.0000 0.0991193858
H   H60       1.0  0.18220  0.21640  0.58910  1.0000 0.1302880921
H   H61       1.0  0.20910  0.81910  0.36420  1.0000 0.0904670353
H   H62       1.0  0.16820  0.69960  0.30530  1.0000 0.1102397598
H   H63       1.0  0.95740  0.81960  0.29160  1.0000 0.1102397598
H   H64       1.0  0.61000  0.23180  0.36400  1.0000 0.1174782308
H   H65       1.0  0.59350  0.38550  0.42170  1.0000 0.1174782308
H   H66       1.0  0.78400  0.32580  0.44540  1.0000 0.0991193858
H   H67       1.0  0.66350  0.14510  0.27970  1.0000 0.1302880921
H   H68       1.0  0.54440  0.11160  0.23460  1.0000 0.0904670353
H   H69       1.0  0.69240  0.86940  0.29520  1.0000 0.0904670353
H   H70       1.0  0.82020  0.88840  0.34010  1.0000 0.1174782308
H   H71       1.0  0.29030  0.91490  0.46200  1.0000 0.0991193858
H   H72       1.0  0.47080  0.84260  0.45000  1.0000 0.1174782308
H   H73       1.0  0.41360  0.92720  0.38720  1.0000 0.1174782308
H   H74       1.0  0.02750  0.18030  0.27600  1.0000 0.1174782308
H   H75       1.0  0.82710  0.28030  0.27100  1.0000 0.1174782308
H   H76       1.0  0.81950  0.23670  0.33170  1.0000 0.0991193858
H   H77       1.0  0.34450  0.87710  0.30120  1.0000 0.1387641505
H   H78       1.0  0.43740  0.86300  0.26090  1.0000 0.0815973675
H   H79       1.0  0.26950  0.18950  0.29580  1.0000 0.0991193858
H   H80       1.0  0.16770  0.21310  0.33570  1.0000 0.1302880921
H   H81       1.0  0.87250  0.13330  0.94820  1.0000 0.0904670353
H   H82       1.0  0.85170  0.18190  0.02630  1.0000 0.1174782308
H   H83       1.0  0.03630  0.12430  0.07280  1.0000 0.1174782308
H   H84       1.0  0.41920  0.95920  0.04310  1.0000 0.1174782308
H   H85       1.0  0.48600  0.90920  0.97660  1.0000 0.1174782308
H   H86       1.0  0.33350  0.94450  0.91230  1.0000 0.0991193858
H   H87       1.0  0.28970  0.89310  0.07610  1.0000 0.1387641505
H   H88       1.0  0.37990  0.88550  0.14990  1.0000 0.0904670353
H   H89       1.0  0.30460  0.16860  0.16190  1.0000 0.0991193858
H   H90       1.0  0.21640  0.18220  0.08910  1.0000 0.1302880921
H   H91       1.0  0.18090  0.79090  0.13580  1.0000 0.0904670353
H   H92       1.0  0.30040  0.83180  0.19470  1.0000 0.1102397598
H   H93       1.0  0.18040  0.04260  0.20840  1.0000 0.1102397598
H   H94       1.0  0.76820  0.39000  0.13600  1.0000 0.1174782308
H   H95       1.0  0.61450  0.40650  0.07830  1.0000 0.1174782308
H   H96       1.0  0.67420  0.21600  0.05460  1.0000 0.0991193858
H   H97       1.0  0.85490  0.33650  0.22030  1.0000 0.1302880921
H   H98       1.0  0.88840  0.45560  0.26540  1.0000 0.0904670353
H   H99       1.0  0.13060  0.30760  0.20480  1.0000 0.0904670353
H   H100      1.0  0.11160  0.17980  0.15990  1.0000 0.1174782308
H   H101      1.0  0.08510  0.70970  0.03800  1.0000 0.0991193858
H   H102      1.0  0.15740  0.52920  0.05000  1.0000 0.1102397598
H   H103      1.0  0.07280  0.58640  0.11280  1.0000 0.1174782308
H   H104      1.0  0.81970  0.97250  0.22400  1.0000 0.1174782308
H   H105      1.0  0.71970  0.17290  0.22900  1.0000 0.1174782308
H   H106      1.0  0.76330  0.18050  0.16830  1.0000 0.0991193858
H   H107      1.0  0.12290  0.65550  0.19880  1.0000 0.1387641505
H   H108      1.0  0.13700  0.56260  0.23910  1.0000 0.0815973675
H   H109      1.0  0.81050  0.73050  0.20420  1.0000 0.0991193858
H   H110      1.0  0.78690  0.83230  0.16430  1.0000 0.1302880921
H   H111      1.0  0.86670  0.12750  0.55180  1.0000 0.0904670353
H   H112      1.0  0.81810  0.14830  0.47370  1.0000 0.1174782308
H   H113      1.0  0.87570  0.96370  0.42720  1.0000 0.1174782308
H   H114      1.0  0.04080  0.58080  0.45690  1.0000 0.1174782308
H   H115      1.0  0.09080  0.51400  0.52340  1.0000 0.1174782308
H   H116      1.0  0.05550  0.66650  0.58770  1.0000 0.0991193858
H   H117      1.0  0.10690  0.71030  0.42390  1.0000 0.1387641505
H   H118      1.0  0.11450  0.62010  0.35010  1.0000 0.0904670353
H   H119      1.0  0.83140  0.69540  0.33810  1.0000 0.0991193858
H   H120      1.0  0.81780  0.78360  0.41090  1.0000 0.1302880921
C   C1        1.0  0.86433  0.15713  0.64704  1.0000 0.0266761885
C   C2        1.0  0.88590  0.22510  0.68033  1.0000 -0.159020062
C   C3        1.0  0.00152  0.15892  0.68743  1.0000 -0.2196160898
C   C4        1.0  0.04922  0.05422  0.65854  1.0000 0.1450072706
C   C5        1.0  0.16473  0.96193  0.65494  1.0000 -0.0602671548
C   C6        1.0  0.21326  0.85706  0.62665  1.0000 0.1387641505
C   C7        1.0  0.33034  0.76794  0.62068  1.0000 -0.1904982267
C   C8        1.0  0.33940  0.68420  0.58942  1.0000 -0.159020062
C   C9        1.0  0.23229  0.71869  0.57641  1.0000 0.0266761885
C   C10       1.0  0.24325  0.97905  0.68424  1.0000 0.1174782308
C   C11       1.0  0.32785  0.91285  0.71651  1.0000 -0.1904982267
C   C12       1.0  0.39949  0.93309  0.74305  1.0000 0.0815973675
C   C13       1.0  0.31270  0.07450  0.70803  1.0000 0.055891636
C   C14       1.0  0.23701  0.06301  0.68103  1.0000 -0.1845837801
C   C15       1.0  0.70520  0.06860  0.56040  1.0000 0.0266761885
C   C16       1.0  0.60350  0.10930  0.56640  1.0000 -0.159020062
C   C17       1.0  0.63560  0.06360  0.60140  1.0000 -0.2098633294
C   C18       1.0  0.75167  0.00187  0.61739  1.0000 0.1387641505
C   C19       1.0  0.81809  0.94129  0.65174  1.0000 -0.0462354149
C   C20       1.0  0.93524  0.87304  0.66667  1.0000 0.1387641505
C   C21       1.0  0.00120  0.81820  0.70451  1.0000 -0.199692792
C   C22       1.0  0.11030  0.76470  0.70764  1.0000 -0.1491575509
C   C23       1.0  0.11400  0.78800  0.67294  1.0000 0.0398160994
C   C24       1.0  0.75568  0.95108  0.67680  1.0000 0.1102397598
C   C25       1.0  0.67317  0.05677  0.69964  1.0000 -0.1904982267
C   C26       1.0  0.61760  0.06460  0.72340  1.0000 0.0904670353
C   C27       1.0  0.71570  0.87490  0.70330  1.0000 0.0815973675
C   C28       1.0  0.77640  0.86040  0.67913  1.0000 -0.1904982267
C   C29       1.0  0.07067  0.87767  0.02697  1.0000 0.0467908413
C   C30       1.0  0.08353  0.85073  0.98342  1.0000 -0.1396269805
C   C31       1.0  0.98286  0.88146  0.95816  1.0000 -0.2098633294
C   C32       1.0  0.91178  0.92358  0.98634  1.0000 0.1302880921
C   C33       1.0  0.80310  0.96090  0.97354  1.0000 -0.0264475436
C   C34       1.0  0.73044  0.99824  0.99995  1.0000 0.1302880921
C   C35       1.0  0.62170  0.03550  0.98610  1.0000 -0.2098633294
C   C36       1.0  0.58530  0.06290  0.02260  1.0000 -0.1724678248
C   C37       1.0  0.67060  0.04320  0.05830  1.0000 0.0213870008
C   C38       1.0  0.75205  0.96385  0.92587  1.0000 0.0991193858
C   C39       1.0  0.70630  0.05010  0.90713  1.0000 -0.1904982267
C   C40       1.0  0.65316  0.05356  0.86265  1.0000 0.0904670353
C   C41       1.0  0.69655  0.88955  0.85585  1.0000 0.0815973675
C   C42       1.0  0.74954  0.88074  0.89950  1.0000 -0.1904982267
C   C43       1.0  0.84287  0.13567  0.85296  1.0000 0.0266761885
C   C44       1.0  0.77490  0.11410  0.81967  1.0000 -0.159020062
C   C45       1.0  0.84108  0.99848  0.81257  1.0000 -0.2196160898
C   C46       1.0  0.94578  0.95078  0.84146  1.0000 0.1450072706
C   C47       1.0  0.03807  0.83527  0.84506  1.0000 -0.0602671548
C   C48       1.0  0.14294  0.78674  0.87335  1.0000 0.1387641505
C   C49       1.0  0.23206  0.66966  0.87932  1.0000 -0.1904982267
C   C50       1.0  0.31580  0.66060  0.91058  1.0000 -0.159020062
C   C51       1.0  0.28131  0.76771  0.92359  1.0000 0.0266761885
C   C52       1.0  0.02095  0.75675  0.81576  1.0000 0.1174782308
C   C53       1.0  0.08715  0.67215  0.78349  1.0000 -0.1904982267
C   C54       1.0  0.06691  0.60051  0.75695  1.0000 0.0815973675
C   C55       1.0  0.92550  0.68730  0.79197  1.0000 0.055891636
C   C56       1.0  0.93699  0.76299  0.81897  1.0000 -0.1845837801
C   C57       1.0  0.93140  0.29480  0.93960  1.0000 0.0266761885
C   C58       1.0  0.89070  0.39650  0.93360  1.0000 -0.159020062
C   C59       1.0  0.93640  0.36440  0.89860  1.0000 -0.2098633294
C   C60       1.0  0.99813  0.24833  0.88261  1.0000 0.1387641505
C   C61       1.0  0.05871  0.18191  0.84826  1.0000 -0.0462354149
C   C62       1.0  0.12696  0.06476  0.83340  1.0000 0.1387641505
C   C63       1.0  0.18180  0.99880  0.79549  1.0000 -0.199692792
C   C64       1.0  0.23530  0.88970  0.79236  1.0000 -0.1491575509
C   C65       1.0  0.21200  0.88600  0.82706  1.0000 0.0398160994
C   C66       1.0  0.04892  0.24432  0.82320  1.0000 0.1102397598
C   C67       1.0  0.94323  0.32683  0.80036  1.0000 -0.1904982267
C   C68       1.0  0.93540  0.38240  0.77660  1.0000 0.0904670353
C   C69       1.0  0.12510  0.28430  0.79670  1.0000 0.0815973675
C   C70       1.0  0.13960  0.22360  0.82087  1.0000 -0.1904982267
C   C71       1.0  0.12233  0.92933  0.47303  1.0000 0.0467908413
C   C72       1.0  0.14927  0.91647  0.51658  1.0000 -0.1396269805
C   C73       1.0  0.11854  0.01714  0.54184  1.0000 -0.2098633294
C   C74       1.0  0.07642  0.08822  0.51366  1.0000 0.1302880921
C   C75       1.0  0.03910  0.19690  0.52646  1.0000 -0.0264475436
C   C76       1.0  0.00176  0.26956  0.50005  1.0000 0.1302880921
C   C77       1.0  0.96450  0.37830  0.51390  1.0000 -0.2098633294
C   C78       1.0  0.93710  0.41470  0.47740  1.0000 -0.1724678248
C   C79       1.0  0.95680  0.32940  0.44170  1.0000 0.0213870008
C   C80       1.0  0.03615  0.24795  0.57413  1.0000 0.0991193858
C   C81       1.0  0.94990  0.29370  0.59287  1.0000 -0.1904982267
C   C82       1.0  0.94644  0.34684  0.63735  1.0000 0.0904670353
C   C83       1.0  0.11045  0.30345  0.64415  1.0000 0.0815973675
C   C84       1.0  0.11926  0.25046  0.60050  1.0000 -0.1904982267
C   C85       1.0  0.13567  0.84287  0.35296  1.0000 0.0266761885
C   C86       1.0  0.11410  0.77490  0.31967  1.0000 -0.159020062
C   C87       1.0  0.99848  0.84108  0.31257  1.0000 -0.2196160898
C   C88       1.0  0.95078  0.94578  0.34146  1.0000 0.1450072706
C   C89       1.0  0.83527  0.03807  0.34506  1.0000 -0.0602671548
C   C90       1.0  0.78674  0.14294  0.37335  1.0000 0.1387641505
C   C91       1.0  0.66966  0.23206  0.37932  1.0000 -0.1904982267
C   C92       1.0  0.66060  0.31580  0.41058  1.0000 -0.159020062
C   C93       1.0  0.76771  0.28131  0.42359  1.0000 0.0266761885
C   C94       1.0  0.75675  0.02095  0.31576  1.0000 0.1174782308
C   C95       1.0  0.67215  0.08715  0.28349  1.0000 -0.1904982267
C   C96       1.0  0.60051  0.06691  0.25695  1.0000 0.0815973675
C   C97       1.0  0.68730  0.92550  0.29197  1.0000 0.055891636
C   C98       1.0  0.76299  0.93699  0.31897  1.0000 -0.1845837801
C   C99       1.0  0.29480  0.93140  0.43960  1.0000 0.0266761885
C   C100      1.0  0.39650  0.89070  0.43360  1.0000 -0.159020062
C   C101      1.0  0.36440  0.93640  0.39860  1.0000 -0.2098633294
C   C102      1.0  0.24833  0.99813  0.38261  1.0000 0.1387641505
C   C103      1.0  0.18191  0.05871  0.34826  1.0000 -0.0462354149
C   C104      1.0  0.06476  0.12696  0.33340  1.0000 0.1387641505
C   C105      1.0  0.99880  0.18180  0.29549  1.0000 -0.199692792
C   C106      1.0  0.88970  0.23530  0.29236  1.0000 -0.1491575509
C   C107      1.0  0.88600  0.21200  0.32706  1.0000 0.0398160994
C   C108      1.0  0.24432  0.04892  0.32320  1.0000 0.1102397598
C   C109      1.0  0.32683  0.94323  0.30036  1.0000 -0.1904982267
C   C110      1.0  0.38240  0.93540  0.27660  1.0000 0.0904670353
C   C111      1.0  0.28430  0.12510  0.29670  1.0000 0.0815973675
C   C112      1.0  0.22360  0.13960  0.32087  1.0000 -0.1904982267
C   C113      1.0  0.92933  0.12233  0.97303  1.0000 0.0467908413
C   C114      1.0  0.91647  0.14927  0.01658  1.0000 -0.1396269805
C   C115      1.0  0.01714  0.11854  0.04184  1.0000 -0.2098633294
C   C116      1.0  0.08822  0.07642  0.01366  1.0000 0.1302880921
C   C117      1.0  0.19690  0.03910  0.02646  1.0000 -0.0264475436
C   C118      1.0  0.26956  0.00176  0.00005  1.0000 0.1302880921
C   C119      1.0  0.37830  0.96450  0.01390  1.0000 -0.2098633294
C   C120      1.0  0.41470  0.93710  0.97740  1.0000 -0.1724678248
C   C121      1.0  0.32940  0.95680  0.94170  1.0000 0.0213870008
C   C122      1.0  0.24795  0.03615  0.07413  1.0000 0.0991193858
C   C123      1.0  0.29370  0.94990  0.09287  1.0000 -0.1904982267
C   C124      1.0  0.34684  0.94644  0.13735  1.0000 0.0904670353
C   C125      1.0  0.30345  0.11045  0.14415  1.0000 0.0815973675
C   C126      1.0  0.25046  0.11926  0.10050  1.0000 -0.1904982267
C   C127      1.0  0.15713  0.86433  0.14704  1.0000 0.0266761885
C   C128      1.0  0.22510  0.88590  0.18033  1.0000 -0.159020062
C   C129      1.0  0.15892  0.00152  0.18743  1.0000 -0.2196160898
C   C130      1.0  0.05422  0.04922  0.15854  1.0000 0.1450072706
C   C131      1.0  0.96193  0.16473  0.15494  1.0000 -0.0602671548
C   C132      1.0  0.85706  0.21326  0.12665  1.0000 0.1387641505
C   C133      1.0  0.76794  0.33034  0.12068  1.0000 -0.1904982267
C   C134      1.0  0.68420  0.33940  0.08942  1.0000 -0.159020062
C   C135      1.0  0.71869  0.23229  0.07641  1.0000 0.0266761885
C   C136      1.0  0.97905  0.24325  0.18424  1.0000 0.1174782308
C   C137      1.0  0.91285  0.32785  0.21651  1.0000 -0.1904982267
C   C138      1.0  0.93309  0.39949  0.24305  1.0000 0.0815973675
C   C139      1.0  0.07450  0.31270  0.20803  1.0000 0.055891636
C   C140      1.0  0.06301  0.23701  0.18103  1.0000 -0.1845837801
C   C141      1.0  0.06860  0.70520  0.06040  1.0000 0.0266761885
C   C142      1.0  0.10930  0.60350  0.06640  1.0000 -0.159020062
C   C143      1.0  0.06360  0.63560  0.10140  1.0000 -0.2098633294
C   C144      1.0  0.00187  0.75167  0.11739  1.0000 0.1387641505
C   C145      1.0  0.94129  0.81809  0.15174  1.0000 -0.0462354149
C   C146      1.0  0.87304  0.93524  0.16660  1.0000 0.1387641505
C   C147      1.0  0.81820  0.00120  0.20451  1.0000 -0.199692792
C   C148      1.0  0.76470  0.11030  0.20764  1.0000 -0.1491575509
C   C149      1.0  0.78800  0.11400  0.17294  1.0000 0.0398160994
C   C150      1.0  0.95108  0.75568  0.17680  1.0000 0.1102397598
C   C151      1.0  0.05677  0.67317  0.19964  1.0000 -0.1904982267
C   C152      1.0  0.06460  0.61760  0.22340  1.0000 0.0904670353
C   C153      1.0  0.87490  0.71570  0.20330  1.0000 0.0815973675
C   C154      1.0  0.86040  0.77640  0.17913  1.0000 -0.1904982267
C   C155      1.0  0.87767  0.07067  0.52697  1.0000 0.0467908413
C   C156      1.0  0.85073  0.08353  0.48342  1.0000 -0.1396269805
C   C157      1.0  0.88146  0.98286  0.45816  1.0000 -0.2098633294
C   C158      1.0  0.92358  0.91178  0.48634  1.0000 0.1302880921
C   C159      1.0  0.96090  0.80310  0.47354  1.0000 -0.0264475436
C   C160      1.0  0.99824  0.73044  0.49995  1.0000 0.1302880921
C   C161      1.0  0.03550  0.62170  0.48610  1.0000 -0.2098633294
C   C162      1.0  0.06290  0.58530  0.52260  1.0000 -0.1724678248
C   C163      1.0  0.04320  0.67060  0.55830  1.0000 0.0213870008
C   C164      1.0  0.96385  0.75205  0.42587  1.0000 0.0991193858
C   C165      1.0  0.05010  0.70630  0.40713  1.0000 -0.1904982267
C   C166      1.0  0.05356  0.65316  0.36265  1.0000 0.0904670353
C   C167      1.0  0.88955  0.69655  0.35585  1.0000 0.0815973675
C   C168      1.0  0.88074  0.74954  0.39950  1.0000 -0.1904982267
N   N1        1.0  0.96043  0.05483  0.63327  1.0000 -0.386127603
N   N2        1.0  0.15480  0.82080  0.59781  1.0000 -0.3782542765
N   N3        1.0  0.39509  0.00989  0.73943  1.0000 -0.2098633294
N   N4        1.0  0.79499  0.00379  0.59016  1.0000 -0.3690104802
N   N5        1.0  0.01151  0.84951  0.64754  1.0000 -0.3690104802
N   N6        1.0  0.63721  0.97681  0.72540  1.0000 -0.2098633294
N   N7        1.0  0.97153  0.91973  0.02950  1.0000 -0.3690104802
N   N8        1.0  0.75978  0.00438  0.04551  1.0000 -0.3606804169
N   N9        1.0  0.64760  0.97460  0.83767  1.0000 -0.2196160898
N   N10       1.0  0.94517  0.03957  0.86673  1.0000 -0.386127603
N   N11       1.0  0.17920  0.84520  0.90219  1.0000 -0.3782542765
N   N12       1.0  0.99011  0.60491  0.76057  1.0000 -0.2098633294
N   N13       1.0  0.99621  0.20501  0.90984  1.0000 -0.3690104802
N   N14       1.0  0.15049  0.98849  0.85246  1.0000 -0.3690104802
N   N15       1.0  0.02319  0.36279  0.77460  1.0000 -0.2098633294
N   N16       1.0  0.08027  0.02847  0.47050  1.0000 -0.3690104802
N   N17       1.0  0.99562  0.24022  0.45449  1.0000 -0.3606804169
N   N18       1.0  0.02540  0.35240  0.66233  1.0000 -0.2196160898
N   N19       1.0  0.03957  0.94517  0.36673  1.0000 -0.386127603
N   N20       1.0  0.84520  0.17920  0.40219  1.0000 -0.3782542765
N   N21       1.0  0.60491  0.99011  0.26057  1.0000 -0.2098633294
N   N22       1.0  0.20501  0.99621  0.40984  1.0000 -0.3690104802
N   N23       1.0  0.98849  0.15049  0.35246  1.0000 -0.3690104802
N   N24       1.0  0.36279  0.02319  0.27460  1.0000 -0.2098633294
N   N25       1.0  0.02847  0.08027  0.97050  1.0000 -0.3690104802
N   N26       1.0  0.24022  0.99562  0.95449  1.0000 -0.3606804169
N   N27       1.0  0.35240  0.02540  0.16233  1.0000 -0.2196160898
N   N28       1.0  0.05483  0.96043  0.13327  1.0000 -0.386127603
N   N29       1.0  0.82080  0.15480  0.09781  1.0000 -0.3782542765
N   N30       1.0  0.00989  0.39509  0.23943  1.0000 -0.2098633294
N   N31       1.0  0.00379  0.79499  0.09016  1.0000 -0.3690104802
N   N32       1.0  0.84951  0.01151  0.14754  1.0000 -0.3690104802
N   N33       1.0  0.97681  0.63721  0.22540  1.0000 -0.2098633294
N   N34       1.0  0.91973  0.97153  0.52950  1.0000 -0.3690104802
N   N35       1.0  0.00438  0.75978  0.54551  1.0000 -0.3606804169
N   N36       1.0  0.97460  0.64760  0.33767  1.0000 -0.2196160898
F   F1        1.0  0.78162  0.56652  0.70661  1.0000 -0.3606804169
F   F2        1.0  0.65881  0.59961  0.72665  1.0000 -0.1396269805
F   F3        1.0  0.66850  0.70790  0.77474  1.0000 -0.2196160898
F   F4        1.0  0.65872  0.76872  0.74994  1.0000 -0.199692792
F   F5        1.0  0.57613  0.67793  0.70237  1.0000 -0.1093695077
F   F6        1.0  0.60945  0.74825  0.69198  1.0000 -0.2098633294
F   F7        1.0  0.43348  0.21838  0.79339  1.0000 -0.3606804169
F   F8        1.0  0.40039  0.34119  0.77335  1.0000 -0.1396269805
F   F9        1.0  0.29210  0.33150  0.72526  1.0000 -0.2196160898
F   F10       1.0  0.23128  0.34128  0.75006  1.0000 -0.199692792
F   F11       1.0  0.32207  0.42387  0.79763  1.0000 -0.1093695077
F   F12       1.0  0.25175  0.39055  0.80802  1.0000 -0.2098633294
F   F13       1.0  0.21838  0.43348  0.29339  1.0000 -0.3606804169
F   F14       1.0  0.34119  0.40039  0.27335  1.0000 -0.1396269805
F   F15       1.0  0.33150  0.29210  0.22526  1.0000 -0.2196160898
F   F16       1.0  0.34128  0.23128  0.25006  1.0000 -0.199692792
F   F17       1.0  0.42387  0.32207  0.29763  1.0000 -0.1093695077
F   F18       1.0  0.39055  0.25175  0.30802  1.0000 -0.2098633294
F   F19       1.0  0.56652  0.78162  0.20661  1.0000 -0.3606804169
F   F20       1.0  0.59961  0.65881  0.22665  1.0000 -0.1396269805
F   F21       1.0  0.70790  0.66850  0.27474  1.0000 -0.2196160898
F   F22       1.0  0.76872  0.65872  0.24994  1.0000 -0.199692792
F   F23       1.0  0.67793  0.57613  0.20237  1.0000 -0.1093695077
F   F24       1.0  0.74825  0.60945  0.19198  1.0000 -0.2098633294
