# DDEC6 charges by PACMAN v1.1 (https://github.com/mtap-research/PACMAN-charge/)
data_2007[NiV][nan]3[ION]3
_chemical_formula_sum              "V32 Ni4 H64 C80 Br2 N16 O76"
_cell_length_a       17.091
_cell_length_b       17.091
_cell_length_c       14.611
_cell_angle_alpha    90
_cell_angle_beta     90
_cell_angle_gamma    90

_symmetry_space_group_name_H-M    "P 1"
_symmetry_Int_Tables_number       1

loop_
  _symmetry_equiv_pos_as_xyz
  'x, y, z'

loop_
  _atom_site_type_symbol
  _atom_site_label
  _atom_site_symmetry_multiplicity
  _atom_site_fract_x
  _atom_site_fract_y
  _atom_site_fract_z
  _atom_site_occupancy
  _atom_site_charge
V   V1        1.0  0.38682  0.37871  0.62810  1.0000 1.9358454396
V   V2        1.0  0.61318  0.62129  0.62810  1.0000 1.9358454396
V   V3        1.0  0.62129  0.38682  0.37190  1.0000 1.9358454396
V   V4        1.0  0.37871  0.61318  0.37190  1.0000 1.9345965713
V   V5        1.0  0.11318  0.87871  0.12810  1.0000 1.9345965713
V   V6        1.0  0.88682  0.12129  0.12810  1.0000 1.9358454396
V   V7        1.0  0.87871  0.88682  0.87190  1.0000 1.9358454396
V   V8        1.0  0.12129  0.11318  0.87190  1.0000 1.9345965713
V   V9        1.0  0.45266  0.68544  0.58869  1.0000 1.909295239
V   V10       1.0  0.54734  0.31456  0.58869  1.0000 1.909295239
V   V11       1.0  0.31456  0.45266  0.41131  1.0000 1.909295239
V   V12       1.0  0.68544  0.54734  0.41131  1.0000 1.909295239
V   V13       1.0  0.04734  0.18544  0.08869  1.0000 1.909295239
V   V14       1.0  0.95266  0.81456  0.08869  1.0000 1.909295239
V   V15       1.0  0.18544  0.95266  0.91131  1.0000 1.909295239
V   V16       1.0  0.81456  0.04734  0.91131  1.0000 1.909295239
V   V17       1.0  0.31133  0.53321  0.58704  1.0000 1.909295239
V   V18       1.0  0.68867  0.46679  0.58704  1.0000 1.909295239
V   V19       1.0  0.46679  0.31133  0.41296  1.0000 1.909295239
V   V20       1.0  0.53321  0.68867  0.41296  1.0000 1.909295239
V   V21       1.0  0.18867  0.03321  0.08704  1.0000 1.909295239
V   V22       1.0  0.81133  0.96679  0.08704  1.0000 1.909295239
V   V23       1.0  0.03321  0.81133  0.91296  1.0000 1.909295239
V   V24       1.0  0.96679  0.18867  0.91296  1.0000 1.909295239
V   V25       1.0  0.42894  0.56627  0.73017  1.0000 1.9757553269
V   V26       1.0  0.57106  0.43373  0.73017  1.0000 1.9757553269
V   V27       1.0  0.43373  0.42894  0.26983  1.0000 1.9757553269
V   V28       1.0  0.56627  0.57106  0.26983  1.0000 1.9757553269
V   V29       1.0  0.07106  0.06627  0.23017  1.0000 1.9757553269
V   V30       1.0  0.92894  0.93373  0.23017  1.0000 1.9757553269
V   V31       1.0  0.06627  0.92894  0.76983  1.0000 1.9757553269
V   V32       1.0  0.93373  0.07106  0.76983  1.0000 1.9757553269
Ni  Ni1       1.0  0.25361  0.24639  0.75000  1.0000 0.6986248424
Ni  Ni2       1.0  0.74639  0.75361  0.75000  1.0000 0.6986248424
Ni  Ni3       1.0  0.75361  0.25361  0.25000  1.0000 0.6986248424
Ni  Ni4       1.0  0.24639  0.74639  0.25000  1.0000 0.6986248424
H   H1        1.0  0.26150  0.06890  0.74540  1.0000 0.1194359823
H   H2        1.0  0.73850  0.93110  0.74540  1.0000 0.1194359823
H   H3        1.0  0.93110  0.26150  0.25460  1.0000 0.1194359823
H   H4        1.0  0.06890  0.73850  0.25460  1.0000 0.1194359823
H   H5        1.0  0.23850  0.56890  0.24540  1.0000 0.1194359823
H   H6        1.0  0.76150  0.43110  0.24540  1.0000 0.1194359823
H   H7        1.0  0.56890  0.76150  0.75460  1.0000 0.1194359823
H   H8        1.0  0.43110  0.23850  0.75460  1.0000 0.1194359823
H   H9        1.0  0.26740  0.96540  0.64770  1.0000 0.1457280149
H   H10       1.0  0.73260  0.03460  0.64770  1.0000 0.1457280149
H   H11       1.0  0.03460  0.26740  0.35230  1.0000 0.1457280149
H   H12       1.0  0.96540  0.73260  0.35230  1.0000 0.1457280149
H   H13       1.0  0.23260  0.46540  0.14770  1.0000 0.1457280149
H   H14       1.0  0.76740  0.53460  0.14770  1.0000 0.1457280149
H   H15       1.0  0.46540  0.76740  0.85230  1.0000 0.1457280149
H   H16       1.0  0.53460  0.23260  0.85230  1.0000 0.1457280149
H   H17       1.0  0.31850  0.21480  0.55550  1.0000 0.1194359823
H   H18       1.0  0.68150  0.78520  0.55550  1.0000 0.1194359823
H   H19       1.0  0.78520  0.31850  0.44450  1.0000 0.1194359823
H   H20       1.0  0.21480  0.68150  0.44450  1.0000 0.1194359823
H   H21       1.0  0.18150  0.71480  0.05550  1.0000 0.1194359823
H   H22       1.0  0.81850  0.28520  0.05550  1.0000 0.1194359823
H   H23       1.0  0.71480  0.81850  0.94450  1.0000 0.1194359823
H   H24       1.0  0.28520  0.18150  0.94450  1.0000 0.1194359823
H   H25       1.0  0.31840  0.77760  0.44450  1.0000 0.1194359823
H   H26       1.0  0.68160  0.22240  0.44450  1.0000 0.1194359823
H   H27       1.0  0.22240  0.31840  0.55550  1.0000 0.1194359823
H   H28       1.0  0.77760  0.68160  0.55550  1.0000 0.1194359823
H   H29       1.0  0.18160  0.27760  0.94450  1.0000 0.1194359823
H   H30       1.0  0.81840  0.72240  0.94450  1.0000 0.1194359823
H   H31       1.0  0.27760  0.81840  0.05550  1.0000 0.1194359823
H   H32       1.0  0.72240  0.18160  0.05550  1.0000 0.1194359823
H   H33       1.0  0.33050  0.87790  0.54710  1.0000 0.1401411747
H   H34       1.0  0.66950  0.12210  0.54710  1.0000 0.1401411747
H   H35       1.0  0.12210  0.33050  0.45290  1.0000 0.1401411747
H   H36       1.0  0.87790  0.66950  0.45290  1.0000 0.1401411747
H   H37       1.0  0.16950  0.37790  0.04710  1.0000 0.1401411747
H   H38       1.0  0.83050  0.62210  0.04710  1.0000 0.1401411747
H   H39       1.0  0.37790  0.83050  0.95290  1.0000 0.1401411747
H   H40       1.0  0.62210  0.16950  0.95290  1.0000 0.1401411747
H   H41       1.0  0.24930  0.92390  0.25530  1.0000 0.1194359823
H   H42       1.0  0.75070  0.07610  0.25530  1.0000 0.1194359823
H   H43       1.0  0.07610  0.24930  0.74470  1.0000 0.1194359823
H   H44       1.0  0.92390  0.75070  0.74470  1.0000 0.1194359823
H   H45       1.0  0.25070  0.42390  0.75530  1.0000 0.1194359823
H   H46       1.0  0.74930  0.57610  0.75530  1.0000 0.1194359823
H   H47       1.0  0.42390  0.74930  0.24470  1.0000 0.1194359823
H   H48       1.0  0.57610  0.25070  0.24470  1.0000 0.1194359823
H   H49       1.0  0.25480  0.02690  0.35500  1.0000 0.1401411747
H   H50       1.0  0.74520  0.97310  0.35500  1.0000 0.1401411747
H   H51       1.0  0.97310  0.25480  0.64500  1.0000 0.1401411747
H   H52       1.0  0.02690  0.74520  0.64500  1.0000 0.1401411747
H   H53       1.0  0.24520  0.52690  0.85500  1.0000 0.1401411747
H   H54       1.0  0.75480  0.47310  0.85500  1.0000 0.1401411747
H   H55       1.0  0.52690  0.75480  0.14500  1.0000 0.1401411747
H   H56       1.0  0.47310  0.24520  0.14500  1.0000 0.1401411747
H   H57       1.0  0.31810  0.11800  0.44730  1.0000 0.1457280149
H   H58       1.0  0.68190  0.88200  0.44730  1.0000 0.1457280149
H   H59       1.0  0.88200  0.31810  0.55270  1.0000 0.1457280149
H   H60       1.0  0.11800  0.68190  0.55270  1.0000 0.1457280149
H   H61       1.0  0.18190  0.61800  0.94730  1.0000 0.1457280149
H   H62       1.0  0.81810  0.38200  0.94730  1.0000 0.1457280149
H   H63       1.0  0.61800  0.81810  0.05270  1.0000 0.1457280149
H   H64       1.0  0.38200  0.18190  0.05270  1.0000 0.1457280149
C   C1        1.0  0.27260  0.07860  0.68410  1.0000 0.1018740158
C   C2        1.0  0.72740  0.92140  0.68410  1.0000 0.1018740158
C   C3        1.0  0.92140  0.27260  0.31590  1.0000 0.1018740158
C   C4        1.0  0.07860  0.72740  0.31590  1.0000 0.1018740158
C   C5        1.0  0.22740  0.57860  0.18410  1.0000 0.1018740158
C   C6        1.0  0.77260  0.42140  0.18410  1.0000 0.1018740158
C   C7        1.0  0.57860  0.77260  0.81590  1.0000 0.1018740158
C   C8        1.0  0.42140  0.22740  0.81590  1.0000 0.1018740158
C   C9        1.0  0.27580  0.01580  0.62590  1.0000 -0.1790748234
C   C10       1.0  0.72420  0.98420  0.62590  1.0000 -0.1790748234
C   C11       1.0  0.98420  0.27580  0.37410  1.0000 -0.1790748234
C   C12       1.0  0.01580  0.72420  0.37410  1.0000 -0.1790748234
C   C13       1.0  0.22420  0.51580  0.12590  1.0000 -0.1790748234
C   C14       1.0  0.77580  0.48420  0.12590  1.0000 -0.1790748234
C   C15       1.0  0.51580  0.77580  0.87410  1.0000 -0.1790748234
C   C16       1.0  0.48420  0.22420  0.87410  1.0000 -0.1790748234
C   C17       1.0  0.29210  0.02860  0.53270  1.0000 0.1134522301
C   C18       1.0  0.70790  0.97140  0.53270  1.0000 0.1134522301
C   C19       1.0  0.97140  0.29210  0.46730  1.0000 0.1134522301
C   C20       1.0  0.02860  0.70790  0.46730  1.0000 0.1134522301
C   C21       1.0  0.20790  0.52860  0.03270  1.0000 0.1134522301
C   C22       1.0  0.79210  0.47140  0.03270  1.0000 0.1134522301
C   C23       1.0  0.52860  0.79210  0.96730  1.0000 0.1134522301
C   C24       1.0  0.47140  0.20790  0.96730  1.0000 0.1134522301
C   C25       1.0  0.30480  0.16440  0.57310  1.0000 0.1018740158
C   C26       1.0  0.69520  0.83560  0.57310  1.0000 0.1018740158
C   C27       1.0  0.83560  0.30480  0.42690  1.0000 0.1018740158
C   C28       1.0  0.16440  0.69520  0.42690  1.0000 0.1018740158
C   C29       1.0  0.19520  0.66440  0.07310  1.0000 0.1018740158
C   C30       1.0  0.80480  0.33560  0.07310  1.0000 0.1018740158
C   C31       1.0  0.66440  0.80480  0.92690  1.0000 0.1018740158
C   C32       1.0  0.33560  0.19520  0.92690  1.0000 0.1018740158
C   C33       1.0  0.30460  0.82800  0.42660  1.0000 0.1018740158
C   C34       1.0  0.69540  0.17200  0.42660  1.0000 0.1018740158
C   C35       1.0  0.17200  0.30460  0.57340  1.0000 0.1018740158
C   C36       1.0  0.82800  0.69540  0.57340  1.0000 0.1018740158
C   C37       1.0  0.19540  0.32800  0.92660  1.0000 0.1018740158
C   C38       1.0  0.80460  0.67200  0.92660  1.0000 0.1018740158
C   C39       1.0  0.32800  0.80460  0.07340  1.0000 0.1018740158
C   C40       1.0  0.67200  0.19540  0.07340  1.0000 0.1018740158
C   C41       1.0  0.31170  0.88810  0.48860  1.0000 -0.1790748234
C   C42       1.0  0.68830  0.11190  0.48860  1.0000 -0.1790748234
C   C43       1.0  0.11190  0.31170  0.51140  1.0000 -0.1790748234
C   C44       1.0  0.88810  0.68830  0.51140  1.0000 -0.1790748234
C   C45       1.0  0.18830  0.38810  0.98860  1.0000 -0.1790748234
C   C46       1.0  0.81170  0.61190  0.98860  1.0000 -0.1790748234
C   C47       1.0  0.38810  0.81170  0.01140  1.0000 -0.1790748234
C   C48       1.0  0.61190  0.18830  0.01140  1.0000 -0.1790748234
C   C49       1.0  0.29100  0.96350  0.46500  1.0000 0.1018740158
C   C50       1.0  0.70900  0.03650  0.46500  1.0000 0.1018740158
C   C51       1.0  0.03650  0.29100  0.53500  1.0000 0.1018740158
C   C52       1.0  0.96350  0.70900  0.53500  1.0000 0.1018740158
C   C53       1.0  0.20900  0.46350  0.96500  1.0000 0.1018740158
C   C54       1.0  0.79100  0.53650  0.96500  1.0000 0.1018740158
C   C55       1.0  0.46350  0.79100  0.03500  1.0000 0.1018740158
C   C56       1.0  0.53650  0.20900  0.03500  1.0000 0.1018740158
C   C57       1.0  0.26330  0.91420  0.31570  1.0000 0.1134522301
C   C58       1.0  0.73670  0.08580  0.31570  1.0000 0.1134522301
C   C59       1.0  0.08580  0.26330  0.68430  1.0000 0.1134522301
C   C60       1.0  0.91420  0.73670  0.68430  1.0000 0.1134522301
C   C61       1.0  0.23670  0.41420  0.81570  1.0000 0.1134522301
C   C62       1.0  0.76330  0.58580  0.81570  1.0000 0.1134522301
C   C63       1.0  0.41420  0.76330  0.18430  1.0000 0.1134522301
C   C64       1.0  0.58580  0.23670  0.18430  1.0000 0.1134522301
C   C65       1.0  0.26740  0.97670  0.37470  1.0000 -0.1721439059
C   C66       1.0  0.73260  0.02330  0.37470  1.0000 -0.1721439059
C   C67       1.0  0.02330  0.26740  0.62530  1.0000 -0.1721439059
C   C68       1.0  0.97670  0.73260  0.62530  1.0000 -0.1721439059
C   C69       1.0  0.23260  0.47670  0.87470  1.0000 -0.1721439059
C   C70       1.0  0.76740  0.52330  0.87470  1.0000 -0.1721439059
C   C71       1.0  0.47670  0.76740  0.12530  1.0000 -0.1721439059
C   C72       1.0  0.52330  0.23260  0.12530  1.0000 -0.1721439059
C   C73       1.0  0.30680  0.10570  0.50790  1.0000 -0.1790748234
C   C74       1.0  0.69320  0.89430  0.50790  1.0000 -0.1790748234
C   C75       1.0  0.89430  0.30680  0.49210  1.0000 -0.1790748234
C   C76       1.0  0.10570  0.69320  0.49210  1.0000 -0.1790748234
C   C77       1.0  0.19320  0.60570  0.00790  1.0000 -0.1790748234
C   C78       1.0  0.80680  0.39430  0.00790  1.0000 -0.1790748234
C   C79       1.0  0.60570  0.80680  0.99210  1.0000 -0.1790748234
C   C80       1.0  0.39430  0.19320  0.99210  1.0000 -0.1790748234
Br  Br1       1.0  0.50000  0.50000  0.50000  1.0000 -0.7502655576
Br  Br2       1.0  0.00000  0.00000  0.00000  1.0000 -0.7502655576
N   N1        1.0  0.28430  0.15240  0.65910  1.0000 -0.2175083975
N   N2        1.0  0.71570  0.84760  0.65910  1.0000 -0.2175083975
N   N3        1.0  0.84760  0.28430  0.34090  1.0000 -0.2175083975
N   N4        1.0  0.15240  0.71570  0.34090  1.0000 -0.2175083975
N   N5        1.0  0.21570  0.65240  0.15910  1.0000 -0.2175083975
N   N6        1.0  0.78430  0.34760  0.15910  1.0000 -0.2175083975
N   N7        1.0  0.65240  0.78430  0.84090  1.0000 -0.2175083975
N   N8        1.0  0.34760  0.21570  0.84090  1.0000 -0.2175083975
N   N9        1.0  0.16020  0.27830  0.65980  1.0000 -0.2271945546
N   N10       1.0  0.83980  0.72170  0.65980  1.0000 -0.2271945546
N   N11       1.0  0.72170  0.16020  0.34020  1.0000 -0.2271945546
N   N12       1.0  0.27830  0.83980  0.34020  1.0000 -0.2271945546
N   N13       1.0  0.33980  0.77830  0.15980  1.0000 -0.2271945546
N   N14       1.0  0.66020  0.22170  0.15980  1.0000 -0.2271945546
N   N15       1.0  0.77830  0.66020  0.84020  1.0000 -0.2271945546
N   N16       1.0  0.22170  0.33980  0.84020  1.0000 -0.2271945546
O   O1        1.0  0.50000  0.50000  0.78240  1.0000 -0.8870001207
O   O2        1.0  0.50000  0.50000  0.21760  1.0000 -0.8870001207
O   O3        1.0  0.00000  0.00000  0.28240  1.0000 -0.8870001207
O   O4        1.0  0.00000  0.00000  0.71760  1.0000 -0.8870001207
O   O5        1.0  0.37070  0.48090  0.68200  1.0000 -1.0727135162
O   O6        1.0  0.62930  0.51910  0.68200  1.0000 -1.0727135162
O   O7        1.0  0.51910  0.37070  0.31800  1.0000 -1.0727135162
O   O8        1.0  0.48090  0.62930  0.31800  1.0000 -1.0727135162
O   O9        1.0  0.12930  0.98090  0.18200  1.0000 -1.0727135162
O   O10       1.0  0.87070  0.01910  0.18200  1.0000 -1.0727135162
O   O11       1.0  0.98090  0.87070  0.81800  1.0000 -1.0727135162
O   O12       1.0  0.01910  0.12930  0.81800  1.0000 -1.0727135162
O   O13       1.0  0.38680  0.60440  0.81770  1.0000 -0.6626641522
O   O14       1.0  0.61320  0.39560  0.81770  1.0000 -0.6626641522
O   O15       1.0  0.39560  0.38680  0.18230  1.0000 -0.6626641522
O   O16       1.0  0.60440  0.61320  0.18230  1.0000 -0.6626641522
O   O17       1.0  0.11320  0.10440  0.31770  1.0000 -0.6626641522
O   O18       1.0  0.88680  0.89560  0.31770  1.0000 -0.6626641522
O   O19       1.0  0.10440  0.88680  0.68230  1.0000 -0.6626641522
O   O20       1.0  0.89560  0.11320  0.68230  1.0000 -0.6626641522
O   O21       1.0  0.36920  0.62040  0.62340  1.0000 -1.018811963
O   O22       1.0  0.63080  0.37960  0.62340  1.0000 -1.018811963
O   O23       1.0  0.37960  0.36920  0.37660  1.0000 -1.018811963
O   O24       1.0  0.62040  0.63080  0.37660  1.0000 -1.018811963
O   O25       1.0  0.13080  0.12040  0.12340  1.0000 -1.018811963
O   O26       1.0  0.86920  0.87960  0.12340  1.0000 -1.018811963
O   O27       1.0  0.12040  0.86920  0.87660  1.0000 -1.018811963
O   O28       1.0  0.87960  0.13080  0.87660  1.0000 -1.018811963
O   O29       1.0  0.49080  0.36890  0.68220  1.0000 -1.0727135162
O   O30       1.0  0.50920  0.63110  0.68220  1.0000 -1.0727135162
O   O31       1.0  0.63110  0.49080  0.31780  1.0000 -1.0727135162
O   O32       1.0  0.36890  0.50920  0.31780  1.0000 -1.0727135162
O   O33       1.0  0.00920  0.86890  0.18220  1.0000 -1.0727135162
O   O34       1.0  0.99080  0.13110  0.18220  1.0000 -1.0727135162
O   O35       1.0  0.86890  0.99080  0.81780  1.0000 -1.0727135162
O   O36       1.0  0.13110  0.00920  0.81780  1.0000 -1.0727135162
O   O37       1.0  0.43350  0.77150  0.62520  1.0000 -0.6502021807
O   O38       1.0  0.56650  0.22850  0.62520  1.0000 -0.6502021807
O   O39       1.0  0.22850  0.43350  0.37480  1.0000 -0.6502021807
O   O40       1.0  0.77150  0.56650  0.37480  1.0000 -0.6502021807
O   O41       1.0  0.06650  0.27150  0.12520  1.0000 -0.6502021807
O   O42       1.0  0.93350  0.72850  0.12520  1.0000 -0.6502021807
O   O43       1.0  0.27150  0.93350  0.87480  1.0000 -0.6502021807
O   O44       1.0  0.72850  0.06650  0.87480  1.0000 -0.6502021807
O   O45       1.0  0.44050  0.31350  0.53890  1.0000 -1.0501036639
O   O46       1.0  0.55950  0.68650  0.53890  1.0000 -1.0501036639
O   O47       1.0  0.68650  0.44050  0.46110  1.0000 -1.0501036639
O   O48       1.0  0.31350  0.55950  0.46110  1.0000 -1.0501036639
O   O49       1.0  0.05950  0.81350  0.03890  1.0000 -1.0501036639
O   O50       1.0  0.94050  0.18650  0.03890  1.0000 -1.0501036639
O   O51       1.0  0.81350  0.94050  0.96110  1.0000 -1.0501036639
O   O52       1.0  0.18650  0.05950  0.96110  1.0000 -1.0501036639
O   O53       1.0  0.32030  0.42710  0.53700  1.0000 -1.0501036639
O   O54       1.0  0.67970  0.57290  0.53700  1.0000 -1.0501036639
O   O55       1.0  0.57290  0.32030  0.46300  1.0000 -1.0501036639
O   O56       1.0  0.42710  0.67970  0.46300  1.0000 -1.0501036639
O   O57       1.0  0.17970  0.92710  0.03700  1.0000 -1.0501036639
O   O58       1.0  0.82030  0.07290  0.03700  1.0000 -1.0501036639
O   O59       1.0  0.92710  0.82030  0.96300  1.0000 -1.0501036639
O   O60       1.0  0.07290  0.17970  0.96300  1.0000 -1.0501036639
O   O61       1.0  0.22380  0.54450  0.62270  1.0000 -0.6502021807
O   O62       1.0  0.77620  0.45550  0.62270  1.0000 -0.6502021807
O   O63       1.0  0.45550  0.22380  0.37730  1.0000 -0.6502021807
O   O64       1.0  0.54450  0.77620  0.37730  1.0000 -0.6502021807
O   O65       1.0  0.27620  0.04450  0.12270  1.0000 -0.6502021807
O   O66       1.0  0.72380  0.95550  0.12270  1.0000 -0.6502021807
O   O67       1.0  0.04450  0.72380  0.87730  1.0000 -0.6502021807
O   O68       1.0  0.95550  0.27620  0.87730  1.0000 -0.6502021807
O   O69       1.0  0.32830  0.31880  0.68180  1.0000 -0.7502655576
O   O70       1.0  0.67170  0.68120  0.68180  1.0000 -0.7502655576
O   O71       1.0  0.68120  0.32830  0.31820  1.0000 -0.7502655576
O   O72       1.0  0.31880  0.67170  0.31820  1.0000 -0.7502655576
O   O73       1.0  0.17170  0.81880  0.18180  1.0000 -0.7502655576
O   O74       1.0  0.82830  0.18120  0.18180  1.0000 -0.7502655576
O   O75       1.0  0.81880  0.82830  0.81820  1.0000 -0.7502655576
O   O76       1.0  0.18120  0.17170  0.81820  1.0000 -0.7502655576
