# DDEC6 charges by PACMAN v1.1 (https://github.com/mtap-research/PACMAN-charge/)
data_2007[CoK][nan]3[ION]1
_chemical_formula_sum              "K6 Co28 H120 C192 O120"
_cell_length_a       29.9155
_cell_length_b       29.9155
_cell_length_c       29.9155
_cell_angle_alpha    33.4032
_cell_angle_beta     33.4032
_cell_angle_gamma    33.4032

_symmetry_space_group_name_H-M    "P 1"
_symmetry_Int_Tables_number       1

loop_
  _symmetry_equiv_pos_as_xyz
  'x, y, z'

loop_
  _atom_site_type_symbol
  _atom_site_label
  _atom_site_symmetry_multiplicity
  _atom_site_fract_x
  _atom_site_fract_y
  _atom_site_fract_z
  _atom_site_occupancy
  _atom_site_charge
K   K1        1.0  0.36185  0.13815  0.75000  1.0000 0.8722799971
K   K2        1.0  0.75000  0.36185  0.13815  1.0000 0.8722799971
K   K3        1.0  0.13815  0.75000  0.36185  1.0000 0.8722799971
K   K4        1.0  0.63815  0.86185  0.25000  1.0000 0.8722799971
K   K5        1.0  0.25000  0.63815  0.86185  1.0000 0.8722799971
K   K6        1.0  0.86185  0.25000  0.63815  1.0000 0.8722799971
Co  Co1       1.0  0.35469  0.27919  0.54249  1.0000 1.0583525255
Co  Co2       1.0  0.25943  0.24219  0.56150  1.0000 1.0583525255
Co  Co3       1.0  0.54249  0.35469  0.27919  1.0000 1.0583525255
Co  Co4       1.0  0.56150  0.25943  0.24219  1.0000 1.0583525255
Co  Co5       1.0  0.27919  0.54249  0.35469  1.0000 1.0583525255
Co  Co6       1.0  0.24219  0.56150  0.25943  1.0000 1.0583525255
Co  Co7       1.0  0.22081  0.14531  0.95751  1.0000 1.0583525255
Co  Co8       1.0  0.25781  0.24057  0.93850  1.0000 1.0583525255
Co  Co9       1.0  0.14531  0.95751  0.22081  1.0000 1.0583525255
Co  Co10      1.0  0.24057  0.93850  0.25781  1.0000 1.0583525255
Co  Co11      1.0  0.95751  0.22081  0.14531  1.0000 1.0583525255
Co  Co12      1.0  0.93850  0.25781  0.24057  1.0000 1.0583525255
Co  Co13      1.0  0.64531  0.72081  0.45751  1.0000 1.0583525255
Co  Co14      1.0  0.74057  0.75781  0.43850  1.0000 1.0583525255
Co  Co15      1.0  0.45751  0.64531  0.72081  1.0000 1.0583525255
Co  Co16      1.0  0.43850  0.74057  0.75781  1.0000 1.0583525255
Co  Co17      1.0  0.72081  0.45751  0.64531  1.0000 1.0583525255
Co  Co18      1.0  0.75781  0.43850  0.74057  1.0000 1.0583525255
Co  Co19      1.0  0.77919  0.85469  0.04249  1.0000 1.0583525255
Co  Co20      1.0  0.74219  0.75943  0.06150  1.0000 1.0583525255
Co  Co21      1.0  0.85469  0.04249  0.77919  1.0000 1.0583525255
Co  Co22      1.0  0.75943  0.06150  0.74219  1.0000 1.0583525255
Co  Co23      1.0  0.04249  0.77919  0.85469  1.0000 1.0583525255
Co  Co24      1.0  0.06150  0.74219  0.75943  1.0000 1.0583525255
Co  Co25      1.0  0.35890  0.35890  0.35890  1.0000 1.0583525255
Co  Co26      1.0  0.14110  0.14110  0.14110  1.0000 1.0583525255
Co  Co27      1.0  0.64110  0.64110  0.64110  1.0000 1.0583525255
Co  Co28      1.0  0.85890  0.85890  0.85890  1.0000 1.0583525255
H   H1        1.0  0.14120  0.25390  0.83350  1.0000 0.1286550417
H   H2        1.0  0.06940  0.20020  0.81740  1.0000 0.1086036901
H   H3        1.0  0.95590  0.17490  0.96610  1.0000 0.1049601465
H   H4        1.0  0.93080  0.19550  0.04560  1.0000 0.1086036901
H   H5        1.0  0.02430  0.39550  0.54810  1.0000 0.1086036901
H   H6        1.0  0.96570  0.49860  0.38690  1.0000 0.1196008428
H   H7        1.0  0.09910  0.51400  0.26270  1.0000 0.1049601465
H   H8        1.0  0.19510  0.47010  0.28080  1.0000 0.1196008428
H   H9        1.0  0.22120  0.10620  0.67920  1.0000 0.4078438287
H   H10       1.0  0.13590  0.19290  0.66490  1.0000 0.3987858847
H   H11       1.0  0.83350  0.14120  0.25390  1.0000 0.1286550417
H   H12       1.0  0.81740  0.06940  0.20020  1.0000 0.1086036901
H   H13       1.0  0.96610  0.95590  0.17490  1.0000 0.1086036901
H   H14       1.0  0.04560  0.93080  0.19550  1.0000 0.1086036901
H   H15       1.0  0.54810  0.02430  0.39550  1.0000 0.1086036901
H   H16       1.0  0.38690  0.96570  0.49860  1.0000 0.1196008428
H   H17       1.0  0.26270  0.09910  0.51400  1.0000 0.1086036901
H   H18       1.0  0.28080  0.19510  0.47010  1.0000 0.1196008428
H   H19       1.0  0.67920  0.22120  0.10620  1.0000 0.4078438287
H   H20       1.0  0.66490  0.13590  0.19290  1.0000 0.3987858847
H   H21       1.0  0.25390  0.83350  0.14120  1.0000 0.1286550417
H   H22       1.0  0.20020  0.81740  0.06940  1.0000 0.1086036901
H   H23       1.0  0.17490  0.96610  0.95590  1.0000 0.1086036901
H   H24       1.0  0.19550  0.04560  0.93080  1.0000 0.1086036901
H   H25       1.0  0.39550  0.54810  0.02430  1.0000 0.1086036901
H   H26       1.0  0.49860  0.38690  0.96570  1.0000 0.1196008428
H   H27       1.0  0.51400  0.26270  0.09910  1.0000 0.1086036901
H   H28       1.0  0.47010  0.28080  0.19510  1.0000 0.1196008428
H   H29       1.0  0.10620  0.67920  0.22120  1.0000 0.4078438287
H   H30       1.0  0.19290  0.66490  0.13590  1.0000 0.3987858847
H   H31       1.0  0.24610  0.35880  0.66650  1.0000 0.1286550417
H   H32       1.0  0.29980  0.43060  0.68260  1.0000 0.1086036901
H   H33       1.0  0.32510  0.54410  0.53390  1.0000 0.1086036901
H   H34       1.0  0.30450  0.56920  0.45440  1.0000 0.1086036901
H   H35       1.0  0.10450  0.47570  0.95190  1.0000 0.1086036901
H   H36       1.0  0.00140  0.53430  0.11310  1.0000 0.1196008428
H   H37       1.0  0.98600  0.40090  0.23730  1.0000 0.1049601465
H   H38       1.0  0.02990  0.30490  0.21920  1.0000 0.1196008428
H   H39       1.0  0.39380  0.27880  0.82080  1.0000 0.4078438287
H   H40       1.0  0.30710  0.36410  0.83510  1.0000 0.3987858847
H   H41       1.0  0.35880  0.66650  0.24610  1.0000 0.1286550417
H   H42       1.0  0.43060  0.68260  0.29980  1.0000 0.1086036901
H   H43       1.0  0.54410  0.53390  0.32510  1.0000 0.1086036901
H   H44       1.0  0.56920  0.45440  0.30450  1.0000 0.1086036901
H   H45       1.0  0.47570  0.95190  0.10450  1.0000 0.1086036901
H   H46       1.0  0.53430  0.11310  0.00140  1.0000 0.1196008428
H   H47       1.0  0.40090  0.23730  0.98600  1.0000 0.1086036901
H   H48       1.0  0.30490  0.21920  0.02990  1.0000 0.1196008428
H   H49       1.0  0.27880  0.82080  0.39380  1.0000 0.4078438287
H   H50       1.0  0.36410  0.83510  0.30710  1.0000 0.3987858847
H   H51       1.0  0.66650  0.24610  0.35880  1.0000 0.1286550417
H   H52       1.0  0.68260  0.29980  0.43060  1.0000 0.1086036901
H   H53       1.0  0.53390  0.32510  0.54410  1.0000 0.1049601465
H   H54       1.0  0.45440  0.30450  0.56920  1.0000 0.1086036901
H   H55       1.0  0.95190  0.10450  0.47570  1.0000 0.1086036901
H   H56       1.0  0.11310  0.00140  0.53430  1.0000 0.1196008428
H   H57       1.0  0.23730  0.98600  0.40090  1.0000 0.1086036901
H   H58       1.0  0.21920  0.02990  0.30490  1.0000 0.1196008428
H   H59       1.0  0.82080  0.39380  0.27880  1.0000 0.4078438287
H   H60       1.0  0.83510  0.30710  0.36410  1.0000 0.3987858847
H   H61       1.0  0.85880  0.74610  0.16650  1.0000 0.1286550417
H   H62       1.0  0.93060  0.79980  0.18260  1.0000 0.1086036901
H   H63       1.0  0.04410  0.82510  0.03390  1.0000 0.1086036901
H   H64       1.0  0.06920  0.80450  0.95440  1.0000 0.1086036901
H   H65       1.0  0.97570  0.60450  0.45190  1.0000 0.1086036901
H   H66       1.0  0.03430  0.50140  0.61310  1.0000 0.1196008428
H   H67       1.0  0.90090  0.48600  0.73730  1.0000 0.1086036901
H   H68       1.0  0.80490  0.52990  0.71920  1.0000 0.1196008428
H   H69       1.0  0.77880  0.89380  0.32080  1.0000 0.4078438287
H   H70       1.0  0.86410  0.80710  0.33510  1.0000 0.3987858847
H   H71       1.0  0.16650  0.85880  0.74610  1.0000 0.1286550417
H   H72       1.0  0.18260  0.93060  0.79980  1.0000 0.1086036901
H   H73       1.0  0.03390  0.04410  0.82510  1.0000 0.1049601465
H   H74       1.0  0.95440  0.06920  0.80450  1.0000 0.1086036901
H   H75       1.0  0.45190  0.97570  0.60450  1.0000 0.1086036901
H   H76       1.0  0.61310  0.03430  0.50140  1.0000 0.1196008428
H   H77       1.0  0.73730  0.90090  0.48600  1.0000 0.1049601465
H   H78       1.0  0.71920  0.80490  0.52990  1.0000 0.1196008428
H   H79       1.0  0.32080  0.77880  0.89380  1.0000 0.4078438287
H   H80       1.0  0.33510  0.86410  0.80710  1.0000 0.3987858847
H   H81       1.0  0.74610  0.16650  0.85880  1.0000 0.1286550417
H   H82       1.0  0.79980  0.18260  0.93060  1.0000 0.1086036901
H   H83       1.0  0.82510  0.03390  0.04410  1.0000 0.1086036901
H   H84       1.0  0.80450  0.95440  0.06920  1.0000 0.1086036901
H   H85       1.0  0.60450  0.45190  0.97570  1.0000 0.1086036901
H   H86       1.0  0.50140  0.61310  0.03430  1.0000 0.1196008428
H   H87       1.0  0.48600  0.73730  0.90090  1.0000 0.1086036901
H   H88       1.0  0.52990  0.71920  0.80490  1.0000 0.1196008428
H   H89       1.0  0.89380  0.32080  0.77880  1.0000 0.4078438287
H   H90       1.0  0.80710  0.33510  0.86410  1.0000 0.3987858847
H   H91       1.0  0.75390  0.64120  0.33350  1.0000 0.1286550417
H   H92       1.0  0.70020  0.56940  0.31740  1.0000 0.1086036901
H   H93       1.0  0.67490  0.45590  0.46610  1.0000 0.1086036901
H   H94       1.0  0.69550  0.43080  0.54560  1.0000 0.1086036901
H   H95       1.0  0.89550  0.52430  0.04810  1.0000 0.1086036901
H   H96       1.0  0.99860  0.46570  0.88690  1.0000 0.1196008428
H   H97       1.0  0.01400  0.59910  0.76270  1.0000 0.1049601465
H   H98       1.0  0.97010  0.69510  0.78080  1.0000 0.1196008428
H   H99       1.0  0.60620  0.72120  0.17920  1.0000 0.4078438287
H   H100      1.0  0.69290  0.63590  0.16490  1.0000 0.3987858847
H   H101      1.0  0.64120  0.33350  0.75390  1.0000 0.1286550417
H   H102      1.0  0.56940  0.31740  0.70020  1.0000 0.1086036901
H   H103      1.0  0.45590  0.46610  0.67490  1.0000 0.1049601465
H   H104      1.0  0.43080  0.54560  0.69550  1.0000 0.1086036901
H   H105      1.0  0.52430  0.04810  0.89550  1.0000 0.1086036901
H   H106      1.0  0.46570  0.88690  0.99860  1.0000 0.1196008428
H   H107      1.0  0.59910  0.76270  0.01400  1.0000 0.1049601465
H   H108      1.0  0.69510  0.78080  0.97010  1.0000 0.1196008428
H   H109      1.0  0.72120  0.17920  0.60620  1.0000 0.4078438287
H   H110      1.0  0.63590  0.16490  0.69290  1.0000 0.3987858847
H   H111      1.0  0.33350  0.75390  0.64120  1.0000 0.1286550417
H   H112      1.0  0.31740  0.70020  0.56940  1.0000 0.1086036901
H   H113      1.0  0.46610  0.67490  0.45590  1.0000 0.1086036901
H   H114      1.0  0.54560  0.69550  0.43080  1.0000 0.1086036901
H   H115      1.0  0.04810  0.89550  0.52430  1.0000 0.1086036901
H   H116      1.0  0.88690  0.99860  0.46570  1.0000 0.1196008428
H   H117      1.0  0.76270  0.01400  0.59910  1.0000 0.1049601465
H   H118      1.0  0.78080  0.97010  0.69510  1.0000 0.1196008428
H   H119      1.0  0.17920  0.60620  0.72120  1.0000 0.4078438287
H   H120      1.0  0.16490  0.69290  0.63590  1.0000 0.3987858847
C   C1        1.0  0.18652  0.24902  0.71152  1.0000 0.5999802952
C   C2        1.0  0.11457  0.23297  0.80897  1.0000 -0.020696833
C   C3        1.0  0.03245  0.22775  0.94755  1.0000 -0.0111742742
C   C4        1.0  0.10246  0.24046  0.85916  1.0000 -0.1455638503
C   C5        1.0  0.01588  0.23188  0.00748  1.0000 0.5903397059
C   C6        1.0  0.06003  0.20733  0.85003  1.0000 -0.1270958019
C   C7        1.0  0.99193  0.19243  0.93873  1.0000 -0.1093108698
C   C8        1.0  0.97775  0.20395  0.98645  1.0000 -0.1093108698
C   C9        1.0  0.89536  0.43456  0.56286  1.0000 0.5844697411
C   C10       1.0  0.98206  0.44446  0.48066  1.0000 -0.0111742742
C   C11       1.0  0.11852  0.42962  0.41652  1.0000 -0.0363347948
C   C12       1.0  0.03936  0.41956  0.49056  1.0000 -0.1270958019
C   C13       1.0  0.17754  0.40174  0.43134  1.0000 0.5999802952
C   C14       1.0  0.00402  0.48082  0.39462  1.0000 -0.0941730137
C   C15       1.0  0.08395  0.49015  0.32015  1.0000 -0.1093108698
C   C16       1.0  0.14156  0.46426  0.33076  1.0000 -0.1093108698
C   C17       1.0  0.71152  0.18652  0.24902  1.0000 0.5999802952
C   C18       1.0  0.80897  0.11457  0.23297  1.0000 -0.020696833
C   C19       1.0  0.94755  0.03245  0.22775  1.0000 -0.0111742742
C   C20       1.0  0.85916  0.10246  0.24046  1.0000 -0.1455638503
C   C21       1.0  0.00748  0.01588  0.23188  1.0000 0.5903397059
C   C22       1.0  0.85003  0.06003  0.20733  1.0000 -0.1270958019
C   C23       1.0  0.93873  0.99193  0.19243  1.0000 -0.1093108698
C   C24       1.0  0.98645  0.97775  0.20395  1.0000 -0.1093108698
C   C25       1.0  0.56286  0.89536  0.43456  1.0000 0.5844697411
C   C26       1.0  0.48066  0.98206  0.44446  1.0000 -0.020696833
C   C27       1.0  0.41652  0.11852  0.42962  1.0000 -0.0363347948
C   C28       1.0  0.49056  0.03936  0.41956  1.0000 -0.1270958019
C   C29       1.0  0.43134  0.17754  0.40174  1.0000 0.5999802952
C   C30       1.0  0.39462  0.00402  0.48082  1.0000 -0.0941730137
C   C31       1.0  0.32015  0.08395  0.49015  1.0000 -0.1093108698
C   C32       1.0  0.33076  0.14156  0.46426  1.0000 -0.1093108698
C   C33       1.0  0.24902  0.71152  0.18652  1.0000 0.5999802952
C   C34       1.0  0.23297  0.80897  0.11457  1.0000 -0.020696833
C   C35       1.0  0.22775  0.94755  0.03245  1.0000 -0.0111742742
C   C36       1.0  0.24046  0.85916  0.10246  1.0000 -0.1455638503
C   C37       1.0  0.23188  0.00748  0.01588  1.0000 0.5903397059
C   C38       1.0  0.20733  0.85003  0.06003  1.0000 -0.1270958019
C   C39       1.0  0.19243  0.93873  0.99193  1.0000 -0.1093108698
C   C40       1.0  0.20395  0.98645  0.97775  1.0000 -0.1093108698
C   C41       1.0  0.43456  0.56286  0.89536  1.0000 0.5844697411
C   C42       1.0  0.44446  0.48066  0.98206  1.0000 -0.020696833
C   C43       1.0  0.42962  0.41652  0.11852  1.0000 -0.0363347948
C   C44       1.0  0.41956  0.49056  0.03936  1.0000 -0.1270958019
C   C45       1.0  0.40174  0.43134  0.17754  1.0000 0.5999802952
C   C46       1.0  0.48082  0.39462  0.00402  1.0000 -0.0941730137
C   C47       1.0  0.49015  0.32015  0.08395  1.0000 -0.1093108698
C   C48       1.0  0.46426  0.33076  0.14156  1.0000 -0.1093108698
C   C49       1.0  0.25098  0.31348  0.78848  1.0000 0.5999802952
C   C50       1.0  0.26703  0.38543  0.69103  1.0000 -0.020696833
C   C51       1.0  0.27225  0.46755  0.55245  1.0000 -0.0111742742
C   C52       1.0  0.25954  0.39754  0.64084  1.0000 -0.1455638503
C   C53       1.0  0.26812  0.48412  0.49252  1.0000 0.5903397059
C   C54       1.0  0.29267  0.43997  0.64997  1.0000 -0.1270958019
C   C55       1.0  0.30757  0.50807  0.56127  1.0000 -0.1093108698
C   C56       1.0  0.29605  0.52225  0.51355  1.0000 -0.1093108698
C   C57       1.0  0.06544  0.60464  0.93714  1.0000 0.5844697411
C   C58       1.0  0.05554  0.51794  0.01934  1.0000 -0.020696833
C   C59       1.0  0.07038  0.38148  0.08348  1.0000 -0.0363347948
C   C60       1.0  0.08044  0.46064  0.00944  1.0000 -0.1270958019
C   C61       1.0  0.09826  0.32246  0.06866  1.0000 0.5999802952
C   C62       1.0  0.01918  0.49598  0.10538  1.0000 -0.0941730137
C   C63       1.0  0.00985  0.41605  0.17985  1.0000 -0.1093108698
C   C64       1.0  0.03574  0.35844  0.16924  1.0000 -0.1093108698
C   C65       1.0  0.31348  0.78848  0.25098  1.0000 0.5999802952
C   C66       1.0  0.38543  0.69103  0.26703  1.0000 -0.020696833
C   C67       1.0  0.46755  0.55245  0.27225  1.0000 -0.0111742742
C   C68       1.0  0.39754  0.64084  0.25954  1.0000 -0.1455638503
C   C69       1.0  0.48412  0.49252  0.26812  1.0000 0.5903397059
C   C70       1.0  0.43997  0.64997  0.29267  1.0000 -0.1270958019
C   C71       1.0  0.50807  0.56127  0.30757  1.0000 -0.1093108698
C   C72       1.0  0.52225  0.51355  0.29605  1.0000 -0.1093108698
C   C73       1.0  0.60464  0.93714  0.06544  1.0000 0.5844697411
C   C74       1.0  0.51794  0.01934  0.05554  1.0000 -0.020696833
C   C75       1.0  0.38148  0.08348  0.07038  1.0000 -0.0363347948
C   C76       1.0  0.46064  0.00944  0.08044  1.0000 -0.1270958019
C   C77       1.0  0.32246  0.06866  0.09826  1.0000 0.5999802952
C   C78       1.0  0.49598  0.10538  0.01918  1.0000 -0.0941730137
C   C79       1.0  0.41605  0.17985  0.00985  1.0000 -0.1093108698
C   C80       1.0  0.35844  0.16924  0.03574  1.0000 -0.1093108698
C   C81       1.0  0.78848  0.25098  0.31348  1.0000 0.5999802952
C   C82       1.0  0.69103  0.26703  0.38543  1.0000 -0.020696833
C   C83       1.0  0.55245  0.27225  0.46755  1.0000 -0.0111742742
C   C84       1.0  0.64084  0.25954  0.39754  1.0000 -0.1455638503
C   C85       1.0  0.49252  0.26812  0.48412  1.0000 0.5903397059
C   C86       1.0  0.64997  0.29267  0.43997  1.0000 -0.1270958019
C   C87       1.0  0.56127  0.30757  0.50807  1.0000 -0.1093108698
C   C88       1.0  0.51355  0.29605  0.52225  1.0000 -0.1093108698
C   C89       1.0  0.93714  0.06544  0.60464  1.0000 0.5844697411
C   C90       1.0  0.01934  0.05554  0.51794  1.0000 -0.0111742742
C   C91       1.0  0.08348  0.07038  0.38148  1.0000 -0.0363347948
C   C92       1.0  0.00944  0.08044  0.46064  1.0000 -0.1270958019
C   C93       1.0  0.06866  0.09826  0.32246  1.0000 0.5999802952
C   C94       1.0  0.10538  0.01918  0.49598  1.0000 -0.0941730137
C   C95       1.0  0.17985  0.00985  0.41605  1.0000 -0.1093108698
C   C96       1.0  0.16924  0.03574  0.35844  1.0000 -0.1093108698
C   C97       1.0  0.81348  0.75098  0.28848  1.0000 0.5999802952
C   C98       1.0  0.88543  0.76703  0.19103  1.0000 -0.020696833
C   C99       1.0  0.96755  0.77225  0.05245  1.0000 -0.0111742742
C   C100      1.0  0.89754  0.75954  0.14084  1.0000 -0.1455638503
C   C101      1.0  0.98412  0.76812  0.99252  1.0000 0.5903397059
C   C102      1.0  0.93997  0.79267  0.14997  1.0000 -0.1270958019
C   C103      1.0  0.00807  0.80757  0.06127  1.0000 -0.1093108698
C   C104      1.0  0.02225  0.79605  0.01355  1.0000 -0.1093108698
C   C105      1.0  0.10464  0.56544  0.43714  1.0000 0.5844697411
C   C106      1.0  0.01794  0.55554  0.51934  1.0000 -0.020696833
C   C107      1.0  0.88148  0.57038  0.58348  1.0000 -0.0363347948
C   C108      1.0  0.96064  0.58044  0.50944  1.0000 -0.1270958019
C   C109      1.0  0.82246  0.59826  0.56866  1.0000 0.5999802952
C   C110      1.0  0.99598  0.51918  0.60538  1.0000 -0.0941730137
C   C111      1.0  0.91605  0.50985  0.67985  1.0000 -0.1093108698
C   C112      1.0  0.85844  0.53574  0.66924  1.0000 -0.1093108698
C   C113      1.0  0.28848  0.81348  0.75098  1.0000 0.5999802952
C   C114      1.0  0.19103  0.88543  0.76703  1.0000 -0.020696833
C   C115      1.0  0.05245  0.96755  0.77225  1.0000 -0.0111742742
C   C116      1.0  0.14084  0.89754  0.75954  1.0000 -0.1455638503
C   C117      1.0  0.99252  0.98412  0.76812  1.0000 0.5903397059
C   C118      1.0  0.14997  0.93997  0.79267  1.0000 -0.1270958019
C   C119      1.0  0.06127  0.00807  0.80757  1.0000 -0.1093108698
C   C120      1.0  0.01355  0.02225  0.79605  1.0000 -0.1093108698
C   C121      1.0  0.43714  0.10464  0.56544  1.0000 0.5844697411
C   C122      1.0  0.51934  0.01794  0.55554  1.0000 -0.0111742742
C   C123      1.0  0.58348  0.88148  0.57038  1.0000 -0.0363347948
C   C124      1.0  0.50944  0.96064  0.58044  1.0000 -0.1270958019
C   C125      1.0  0.56866  0.82246  0.59826  1.0000 0.5999802952
C   C126      1.0  0.60538  0.99598  0.51918  1.0000 -0.0941730137
C   C127      1.0  0.67985  0.91605  0.50985  1.0000 -0.1093108698
C   C128      1.0  0.66924  0.85844  0.53574  1.0000 -0.1093108698
C   C129      1.0  0.75098  0.28848  0.81348  1.0000 0.5999802952
C   C130      1.0  0.76703  0.19103  0.88543  1.0000 -0.020696833
C   C131      1.0  0.77225  0.05245  0.96755  1.0000 -0.0111742742
C   C132      1.0  0.75954  0.14084  0.89754  1.0000 -0.1455638503
C   C133      1.0  0.76812  0.99252  0.98412  1.0000 0.5903397059
C   C134      1.0  0.79267  0.14997  0.93997  1.0000 -0.1270958019
C   C135      1.0  0.80757  0.06127  0.00807  1.0000 -0.1093108698
C   C136      1.0  0.79605  0.01355  0.02225  1.0000 -0.1093108698
C   C137      1.0  0.56544  0.43714  0.10464  1.0000 0.5844697411
C   C138      1.0  0.55554  0.51934  0.01794  1.0000 -0.020696833
C   C139      1.0  0.57038  0.58348  0.88148  1.0000 -0.0363347948
C   C140      1.0  0.58044  0.50944  0.96064  1.0000 -0.1270958019
C   C141      1.0  0.59826  0.56866  0.82246  1.0000 0.5999802952
C   C142      1.0  0.51918  0.60538  0.99598  1.0000 -0.0941730137
C   C143      1.0  0.50985  0.67985  0.91605  1.0000 -0.1093108698
C   C144      1.0  0.53574  0.66924  0.85844  1.0000 -0.1093108698
C   C145      1.0  0.74902  0.68652  0.21152  1.0000 0.5999802952
C   C146      1.0  0.73297  0.61457  0.30897  1.0000 -0.020696833
C   C147      1.0  0.72775  0.53245  0.44755  1.0000 -0.0111742742
C   C148      1.0  0.74046  0.60246  0.35916  1.0000 -0.1455638503
C   C149      1.0  0.73188  0.51588  0.50748  1.0000 0.5903397059
C   C150      1.0  0.70733  0.56003  0.35003  1.0000 -0.1270958019
C   C151      1.0  0.69243  0.49193  0.43873  1.0000 -0.1093108698
C   C152      1.0  0.70395  0.47775  0.48645  1.0000 -0.1093108698
C   C153      1.0  0.93456  0.39536  0.06286  1.0000 0.5844697411
C   C154      1.0  0.94446  0.48206  0.98066  1.0000 -0.020696833
C   C155      1.0  0.92962  0.61852  0.91652  1.0000 -0.0363347948
C   C156      1.0  0.91956  0.53936  0.99056  1.0000 -0.1270958019
C   C157      1.0  0.90174  0.67754  0.93134  1.0000 0.5999802952
C   C158      1.0  0.98082  0.50402  0.89462  1.0000 -0.0941730137
C   C159      1.0  0.99015  0.58395  0.82015  1.0000 -0.1093108698
C   C160      1.0  0.96426  0.64156  0.83076  1.0000 -0.1093108698
C   C161      1.0  0.68652  0.21152  0.74902  1.0000 0.5999802952
C   C162      1.0  0.61457  0.30897  0.73297  1.0000 -0.020696833
C   C163      1.0  0.53245  0.44755  0.72775  1.0000 -0.0111742742
C   C164      1.0  0.60246  0.35916  0.74046  1.0000 -0.1455638503
C   C165      1.0  0.51588  0.50748  0.73188  1.0000 0.5903397059
C   C166      1.0  0.56003  0.35003  0.70733  1.0000 -0.1270958019
C   C167      1.0  0.49193  0.43873  0.69243  1.0000 -0.1093108698
C   C168      1.0  0.47775  0.48645  0.70395  1.0000 -0.1093108698
C   C169      1.0  0.39536  0.06286  0.93456  1.0000 0.5844697411
C   C170      1.0  0.48206  0.98066  0.94446  1.0000 -0.0111742742
C   C171      1.0  0.61852  0.91652  0.92962  1.0000 -0.0363347948
C   C172      1.0  0.53936  0.99056  0.91956  1.0000 -0.1270958019
C   C173      1.0  0.67754  0.93134  0.90174  1.0000 0.5999802952
C   C174      1.0  0.50402  0.89462  0.98082  1.0000 -0.0941730137
C   C175      1.0  0.58395  0.82015  0.99015  1.0000 -0.1093108698
C   C176      1.0  0.64156  0.83076  0.96426  1.0000 -0.1093108698
C   C177      1.0  0.21152  0.74902  0.68652  1.0000 0.5999802952
C   C178      1.0  0.30897  0.73297  0.61457  1.0000 -0.020696833
C   C179      1.0  0.44755  0.72775  0.53245  1.0000 -0.0111742742
C   C180      1.0  0.35916  0.74046  0.60246  1.0000 -0.1455638503
C   C181      1.0  0.50748  0.73188  0.51588  1.0000 0.5903397059
C   C182      1.0  0.35003  0.70733  0.56003  1.0000 -0.1270958019
C   C183      1.0  0.43873  0.69243  0.49193  1.0000 -0.1093108698
C   C184      1.0  0.48645  0.70395  0.47775  1.0000 -0.1093108698
C   C185      1.0  0.06286  0.93456  0.39536  1.0000 0.5844697411
C   C186      1.0  0.98066  0.94446  0.48206  1.0000 -0.0111742742
C   C187      1.0  0.91652  0.92962  0.61852  1.0000 -0.0363347948
C   C188      1.0  0.99056  0.91956  0.53936  1.0000 -0.1270958019
C   C189      1.0  0.93134  0.90174  0.67754  1.0000 0.5999802952
C   C190      1.0  0.89462  0.98082  0.50402  1.0000 -0.0941730137
C   C191      1.0  0.82015  0.99015  0.58395  1.0000 -0.1093108698
C   C192      1.0  0.83076  0.96426  0.64156  1.0000 -0.1093108698
O   O1        1.0  0.29815  0.33115  0.48665  1.0000 -0.7672768611
O   O2        1.0  0.17445  0.25945  0.67125  1.0000 -0.5373395726
O   O3        1.0  0.25318  0.24798  0.67848  1.0000 -0.6135764316
O   O4        1.0  0.93478  0.25318  0.07058  1.0000 -0.6254639074
O   O5        1.0  0.07938  0.21068  0.99968  1.0000 -0.5042324757
O   O6        1.0  0.84120  0.46470  0.55040  1.0000 -0.5135503357
O   O7        1.0  0.88232  0.39752  0.63922  1.0000 -0.5813535033
O   O8        1.0  0.23750  0.42970  0.36280  1.0000 -0.5746531531
O   O9        1.0  0.16574  0.34974  0.51134  1.0000 -0.5256516283
O   O10       1.0  0.20536  0.16476  0.63786  1.0000 -0.7332387661
O   O11       1.0  0.48665  0.29815  0.33115  1.0000 -0.7672768611
O   O12       1.0  0.67125  0.17445  0.25945  1.0000 -0.5373395726
O   O13       1.0  0.67848  0.25318  0.24798  1.0000 -0.6135764316
O   O14       1.0  0.07058  0.93478  0.25318  1.0000 -0.6254639074
O   O15       1.0  0.99968  0.07938  0.21068  1.0000 -0.5042324757
O   O16       1.0  0.55040  0.84120  0.46470  1.0000 -0.5135503357
O   O17       1.0  0.63922  0.88232  0.39752  1.0000 -0.5813535033
O   O18       1.0  0.36280  0.23750  0.42970  1.0000 -0.5813535033
O   O19       1.0  0.51134  0.16574  0.34974  1.0000 -0.5256516283
O   O20       1.0  0.63786  0.20536  0.16476  1.0000 -0.7332387661
O   O21       1.0  0.33115  0.48665  0.29815  1.0000 -0.7642900393
O   O22       1.0  0.25945  0.67125  0.17445  1.0000 -0.5373395726
O   O23       1.0  0.24798  0.67848  0.25318  1.0000 -0.6135764316
O   O24       1.0  0.25318  0.07058  0.93478  1.0000 -0.6247471616
O   O25       1.0  0.21068  0.99968  0.07938  1.0000 -0.5042324757
O   O26       1.0  0.46470  0.55040  0.84120  1.0000 -0.5135503357
O   O27       1.0  0.39752  0.63922  0.88232  1.0000 -0.5813535033
O   O28       1.0  0.42970  0.36280  0.23750  1.0000 -0.5813535033
O   O29       1.0  0.34974  0.51134  0.16574  1.0000 -0.5256516283
O   O30       1.0  0.16476  0.63786  0.20536  1.0000 -0.7332387661
O   O31       1.0  0.16885  0.20185  0.01335  1.0000 -0.7672768611
O   O32       1.0  0.24055  0.32555  0.82875  1.0000 -0.5373395726
O   O33       1.0  0.25202  0.24682  0.82152  1.0000 -0.6135764316
O   O34       1.0  0.24682  0.56522  0.42942  1.0000 -0.6254639074
O   O35       1.0  0.28932  0.42062  0.50032  1.0000 -0.5042324757
O   O36       1.0  0.03530  0.65880  0.94960  1.0000 -0.5135503357
O   O37       1.0  0.10248  0.61768  0.86078  1.0000 -0.5813535033
O   O38       1.0  0.07030  0.26250  0.13720  1.0000 -0.5813535033
O   O39       1.0  0.15026  0.33426  0.98866  1.0000 -0.5256516283
O   O40       1.0  0.33524  0.29464  0.86214  1.0000 -0.7332387661
O   O41       1.0  0.20185  0.01335  0.16885  1.0000 -0.7672768611
O   O42       1.0  0.32555  0.82875  0.24055  1.0000 -0.5373395726
O   O43       1.0  0.24682  0.82152  0.25202  1.0000 -0.6135764316
O   O44       1.0  0.56522  0.42942  0.24682  1.0000 -0.6254639074
O   O45       1.0  0.42062  0.50032  0.28932  1.0000 -0.5042324757
O   O46       1.0  0.65880  0.94960  0.03530  1.0000 -0.5135503357
O   O47       1.0  0.61768  0.86078  0.10248  1.0000 -0.5813535033
O   O48       1.0  0.26250  0.13720  0.07030  1.0000 -0.5813535033
O   O49       1.0  0.33426  0.98866  0.15026  1.0000 -0.5256516283
O   O50       1.0  0.29464  0.86214  0.33524  1.0000 -0.7332387661
O   O51       1.0  0.01335  0.16885  0.20185  1.0000 -0.7642900393
O   O52       1.0  0.82875  0.24055  0.32555  1.0000 -0.5373395726
O   O53       1.0  0.82152  0.25202  0.24682  1.0000 -0.6135764316
O   O54       1.0  0.42942  0.24682  0.56522  1.0000 -0.6254639074
O   O55       1.0  0.50032  0.28932  0.42062  1.0000 -0.5042324757
O   O56       1.0  0.94960  0.03530  0.65880  1.0000 -0.5135503357
O   O57       1.0  0.86078  0.10248  0.61768  1.0000 -0.5813535033
O   O58       1.0  0.13720  0.07030  0.26250  1.0000 -0.5746531531
O   O59       1.0  0.98866  0.15026  0.33426  1.0000 -0.5256516283
O   O60       1.0  0.86214  0.33524  0.29464  1.0000 -0.7332387661
O   O61       1.0  0.70185  0.66885  0.51335  1.0000 -0.7672768611
O   O62       1.0  0.82555  0.74055  0.32875  1.0000 -0.5373395726
O   O63       1.0  0.74682  0.75202  0.32152  1.0000 -0.6135764316
O   O64       1.0  0.06522  0.74682  0.92942  1.0000 -0.6254639074
O   O65       1.0  0.92062  0.78932  0.00032  1.0000 -0.5042324757
O   O66       1.0  0.15880  0.53530  0.44960  1.0000 -0.5135503357
O   O67       1.0  0.11768  0.60248  0.36078  1.0000 -0.5813535033
O   O68       1.0  0.76250  0.57030  0.63720  1.0000 -0.5746531531
O   O69       1.0  0.83426  0.65026  0.48866  1.0000 -0.5256516283
O   O70       1.0  0.79464  0.83524  0.36214  1.0000 -0.7332387661
O   O71       1.0  0.51335  0.70185  0.66885  1.0000 -0.7672768611
O   O72       1.0  0.32875  0.82555  0.74055  1.0000 -0.5373395726
O   O73       1.0  0.32152  0.74682  0.75202  1.0000 -0.6135764316
O   O74       1.0  0.92942  0.06522  0.74682  1.0000 -0.6247471616
O   O75       1.0  0.00032  0.92062  0.78932  1.0000 -0.5042324757
O   O76       1.0  0.44960  0.15880  0.53530  1.0000 -0.5135503357
O   O77       1.0  0.36078  0.11768  0.60248  1.0000 -0.5813535033
O   O78       1.0  0.63720  0.76250  0.57030  1.0000 -0.5813535033
O   O79       1.0  0.48866  0.83426  0.65026  1.0000 -0.5256516283
O   O80       1.0  0.36214  0.79464  0.83524  1.0000 -0.7332387661
O   O81       1.0  0.66885  0.51335  0.70185  1.0000 -0.7672768611
O   O82       1.0  0.74055  0.32875  0.82555  1.0000 -0.5373395726
O   O83       1.0  0.75202  0.32152  0.74682  1.0000 -0.6135764316
O   O84       1.0  0.74682  0.92942  0.06522  1.0000 -0.6254639074
O   O85       1.0  0.78932  0.00032  0.92062  1.0000 -0.5042324757
O   O86       1.0  0.53530  0.44960  0.15880  1.0000 -0.5135503357
O   O87       1.0  0.60248  0.36078  0.11768  1.0000 -0.5813535033
O   O88       1.0  0.57030  0.63720  0.76250  1.0000 -0.5813535033
O   O89       1.0  0.65026  0.48866  0.83426  1.0000 -0.5256516283
O   O90       1.0  0.83524  0.36214  0.79464  1.0000 -0.7332387661
O   O91       1.0  0.83115  0.79815  0.98665  1.0000 -0.7642900393
O   O92       1.0  0.75945  0.67445  0.17125  1.0000 -0.5373395726
O   O93       1.0  0.74798  0.75318  0.17848  1.0000 -0.6135764316
O   O94       1.0  0.75318  0.43478  0.57058  1.0000 -0.6254639074
O   O95       1.0  0.71068  0.57938  0.49968  1.0000 -0.5042324757
O   O96       1.0  0.96470  0.34120  0.05040  1.0000 -0.5135503357
O   O97       1.0  0.89752  0.38232  0.13922  1.0000 -0.5813535033
O   O98       1.0  0.92970  0.73750  0.86280  1.0000 -0.5746531531
O   O99       1.0  0.84974  0.66574  0.01134  1.0000 -0.5256516283
O   O100      1.0  0.66476  0.70536  0.13786  1.0000 -0.7332387661
O   O101      1.0  0.79815  0.98665  0.83115  1.0000 -0.7672768611
O   O102      1.0  0.67445  0.17125  0.75945  1.0000 -0.5373395726
O   O103      1.0  0.75318  0.17848  0.74798  1.0000 -0.6135764316
O   O104      1.0  0.43478  0.57058  0.75318  1.0000 -0.6254639074
O   O105      1.0  0.57938  0.49968  0.71068  1.0000 -0.5042324757
O   O106      1.0  0.34120  0.05040  0.96470  1.0000 -0.5135503357
O   O107      1.0  0.38232  0.13922  0.89752  1.0000 -0.5813535033
O   O108      1.0  0.73750  0.86280  0.92970  1.0000 -0.5746531531
O   O109      1.0  0.66574  0.01134  0.84974  1.0000 -0.5256516283
O   O110      1.0  0.70536  0.13786  0.66476  1.0000 -0.7332387661
O   O111      1.0  0.98665  0.83115  0.79815  1.0000 -0.7672768611
O   O112      1.0  0.17125  0.75945  0.67445  1.0000 -0.5373395726
O   O113      1.0  0.17848  0.74798  0.75318  1.0000 -0.6135764316
O   O114      1.0  0.57058  0.75318  0.43478  1.0000 -0.6247471616
O   O115      1.0  0.49968  0.71068  0.57938  1.0000 -0.5042324757
O   O116      1.0  0.05040  0.96470  0.34120  1.0000 -0.5135503357
O   O117      1.0  0.13922  0.89752  0.38232  1.0000 -0.5813535033
O   O118      1.0  0.86280  0.92970  0.73750  1.0000 -0.5746531531
O   O119      1.0  0.01134  0.84974  0.66574  1.0000 -0.5256516283
O   O120      1.0  0.13786  0.66476  0.70536  1.0000 -0.7332387661
