# DDEC6 charges by PACMAN v1.1 (https://github.com/mtap-research/PACMAN-charge/)
data_2007[AgGa][ths]3[ION]2
_chemical_formula_sum              "Ga12 Ag12 H360 C516 S12 N108 O36 F36"
_cell_length_a       37.2856
_cell_length_b       37.2856
_cell_length_c       14.9678
_cell_angle_alpha    98.8296
_cell_angle_beta     98.8296
_cell_angle_gamma    126.827

_symmetry_space_group_name_H-M    "P 1"
_symmetry_Int_Tables_number       1

loop_
  _symmetry_equiv_pos_as_xyz
  'x, y, z'

loop_
  _atom_site_type_symbol
  _atom_site_label
  _atom_site_symmetry_multiplicity
  _atom_site_fract_x
  _atom_site_fract_y
  _atom_site_fract_z
  _atom_site_occupancy
  _atom_site_charge
Ga  Ga1       1.0  0.16990  0.11935  0.10869  1.0000 1.0091129991
Ga  Ga2       1.0  0.94357  0.38815  0.59632  1.0000 1.0091129991
Ga  Ga3       1.0  0.88065  0.83010  0.39131  1.0000 1.0091129991
Ga  Ga4       1.0  0.61185  0.05643  0.90368  1.0000 1.0091129991
Ga  Ga5       1.0  0.83010  0.88065  0.89131  1.0000 1.0091129991
Ga  Ga6       1.0  0.05643  0.61185  0.40368  1.0000 1.0091129991
Ga  Ga7       1.0  0.11935  0.16990  0.60869  1.0000 1.0091129991
Ga  Ga8       1.0  0.38815  0.94357  0.09632  1.0000 1.0091129991
Ga  Ga9       1.0  0.28939  0.71061  0.25000  1.0000 1.0091129991
Ga  Ga10      1.0  0.71061  0.28939  0.75000  1.0000 1.0091129991
Ga  Ga11      1.0  0.53219  0.46781  0.75000  1.0000 1.0091129991
Ga  Ga12      1.0  0.46781  0.53219  0.25000  1.0000 1.0091129991
Ag  Ag1       1.0  0.02909  0.27762  0.08851  1.0000 0.3397376267
Ag  Ag2       1.0  0.45837  0.20085  0.97891  1.0000 0.3101232551
Ag  Ag3       1.0  0.72238  0.97091  0.41149  1.0000 0.3397376267
Ag  Ag4       1.0  0.79915  0.54163  0.52109  1.0000 0.3101232551
Ag  Ag5       1.0  0.97091  0.72238  0.91149  1.0000 0.3397376267
Ag  Ag6       1.0  0.54163  0.79915  0.02109  1.0000 0.3101232551
Ag  Ag7       1.0  0.27762  0.02909  0.58851  1.0000 0.3397376267
Ag  Ag8       1.0  0.20085  0.45837  0.47891  1.0000 0.3101232551
Ag  Ag9       1.0  0.14049  0.85951  0.25000  1.0000 0.3101232551
Ag  Ag10      1.0  0.85951  0.14049  0.75000  1.0000 0.3101232551
Ag  Ag11      1.0  0.38260  0.61740  0.75000  1.0000 0.2963813645
Ag  Ag12      1.0  0.61740  0.38260  0.25000  1.0000 0.2963813645
H   H1        1.0  0.11480  0.07360  0.88610  1.0000 0.1104394969
H   H2        1.0  0.06440  0.08720  0.79290  1.0000 0.120203995
H   H3        1.0  0.06430  0.14350  0.90880  1.0000 0.120203995
H   H4        1.0  0.13100  0.21380  0.29610  1.0000 0.120203995
H   H5        1.0  0.18070  0.21030  0.41850  1.0000 0.1104394969
H   H6        1.0  0.20290  0.16610  0.33390  1.0000 0.1104394969
H   H7        1.0  0.02390  0.13310  0.06030  1.0000 0.1483713333
H   H8        1.0  0.99460  0.17420  0.05630  1.0000 0.1104394969
H   H9        1.0  0.12240  0.29400  0.13510  1.0000 0.1104394969
H   H10       1.0  0.15400  0.25640  0.14600  1.0000 0.1409942516
H   H11       1.0  0.11820  0.01360  0.97550  1.0000 0.1014714072
H   H12       1.0  0.15880  0.98740  0.89960  1.0000 0.1278492103
H   H13       1.0  0.24060  0.05980  0.92960  1.0000 0.120203995
H   H14       1.0  0.32660  0.24540  0.06030  1.0000 0.1278492103
H   H15       1.0  0.29960  0.28860  0.12500  1.0000 0.120203995
H   H16       1.0  0.22040  0.22780  0.14030  1.0000 0.1014714072
H   H17       1.0  0.30330  0.17850  0.89170  1.0000 0.1409942516
H   H18       1.0  0.36700  0.18480  0.86480  1.0000 0.1104394969
H   H19       1.0  0.39120  0.16180  0.10210  1.0000 0.1104394969
H   H20       1.0  0.32290  0.14550  0.12680  1.0000 0.1409942516
H   H21       1.0  0.27990  0.19470  0.24900  1.0000 0.1014714072
H   H22       1.0  0.32160  0.17160  0.34040  1.0000 0.1278492103
H   H23       1.0  0.26310  0.08650  0.32300  1.0000 0.1278492103
H   H24       1.0  0.07200  0.95840  0.16490  1.0000 0.120203995
H   H25       1.0  0.01280  0.96460  0.08560  1.0000 0.120203995
H   H26       1.0  0.05710  0.04350  0.06000  1.0000 0.1104394969
H   H27       1.0  0.19470  0.99990  0.13330  1.0000 0.1409942516
H   H28       1.0  0.19330  0.94030  0.16190  1.0000 0.1014714072
H   H29       1.0  0.11920  0.92460  0.34700  1.0000 0.1104394969
H   H30       1.0  0.12020  0.98540  0.31440  1.0000 0.120203995
H   H31       1.0  0.97810  0.46930  0.78030  1.0000 0.1014714072
H   H32       1.0  0.00590  0.47530  0.94940  1.0000 0.120203995
H   H33       1.0  0.99940  0.40440  0.94790  1.0000 0.1278492103
H   H34       1.0  0.92920  0.24880  0.66470  1.0000 0.120203995
H   H35       1.0  0.88670  0.21990  0.49140  1.0000 0.120203995
H   H36       1.0  0.88560  0.28260  0.45400  1.0000 0.1014714072
H   H37       1.0  0.90890  0.27090  0.84000  1.0000 0.1278492103
H   H38       1.0  0.93470  0.24690  0.94890  1.0000 0.1104394969
H   H39       1.0  0.06540  0.34020  0.95350  1.0000 0.1104394969
H   H40       1.0  0.04290  0.36670  0.84580  1.0000 0.1409942516
H   H41       1.0  0.03830  0.49210  0.62600  1.0000 0.1014714072
H   H42       1.0  0.04600  0.56340  0.63070  1.0000 0.120203995
H   H43       1.0  0.96560  0.53960  0.60180  1.0000 0.120203995
H   H44       1.0  0.79340  0.37160  0.54240  1.0000 0.120203995
H   H45       1.0  0.76740  0.29260  0.54210  1.0000 0.120203995
H   H46       1.0  0.83920  0.29900  0.57600  1.0000 0.1014714072
H   H47       1.0  0.87520  0.46840  0.43370  1.0000 0.1483713333
H   H48       1.0  0.84010  0.50250  0.41630  1.0000 0.120203995
H   H49       1.0  0.82900  0.50640  0.67320  1.0000 0.120203995
H   H50       1.0  0.85950  0.46810  0.69350  1.0000 0.1483713333
H   H51       1.0  0.86560  0.35740  0.40980  1.0000 0.1014714072
H   H52       1.0  0.85840  0.32560  0.24230  1.0000 0.120203995
H   H53       1.0  0.92730  0.32810  0.24800  1.0000 0.120203995
H   H54       1.0  0.07780  0.39080  0.53790  1.0000 0.120203995
H   H55       1.0  0.10890  0.43770  0.70830  1.0000 0.1278492103
H   H56       1.0  0.04810  0.44310  0.74190  1.0000 0.1014714072
H   H57       1.0  0.06840  0.40840  0.37830  1.0000 0.120203995
H   H58       1.0  0.08550  0.37510  0.26610  1.0000 0.1104394969
H   H59       1.0  0.96720  0.24880  0.22390  1.0000 0.1014714072
H   H60       1.0  0.94700  0.27740  0.33550  1.0000 0.1409942516
H   H61       1.0  0.32010  0.78670  0.44100  1.0000 0.1014714072
H   H62       1.0  0.34690  0.78790  0.60670  1.0000 0.120203995
H   H63       1.0  0.33750  0.71490  0.59230  1.0000 0.1278492103
H   H64       1.0  0.26770  0.56530  0.29860  1.0000 0.120203995
H   H65       1.0  0.23000  0.54160  0.12410  1.0000 0.1278492103
H   H66       1.0  0.23490  0.60790  0.09280  1.0000 0.1014714072
H   H67       1.0  0.25210  0.59590  0.50160  1.0000 0.1278492103
H   H68       1.0  0.28160  0.57760  0.61880  1.0000 0.1104394969
H   H69       1.0  0.40490  0.65190  0.58260  1.0000 0.1014714072
H   H70       1.0  0.38000  0.67180  0.46010  1.0000 0.1409942516
H   H71       1.0  0.18350  0.61730  0.20990  1.0000 0.1014714072
H   H72       1.0  0.11090  0.60970  0.17740  1.0000 0.120203995
H   H73       1.0  0.13730  0.69090  0.19960  1.0000 0.120203995
H   H74       1.0  0.20320  0.78140  0.37840  1.0000 0.1483713333
H   H75       1.0  0.17110  0.81830  0.37640  1.0000 0.1104394969
H   H76       1.0  0.64050  0.52850  0.87300  1.0000 0.1014714072
H   H77       1.0  0.67620  0.50140  0.96770  1.0000 0.1278492103
H   H78       1.0  0.60860  0.42020  0.96420  1.0000 0.120203995
H   H79       1.0  0.41990  0.31390  0.82690  1.0000 0.1278492103
H   H80       1.0  0.36740  0.32340  0.73050  1.0000 0.120203995
H   H81       1.0  0.41960  0.40020  0.69910  1.0000 0.1014714072
H   H82       1.0  0.52500  0.37720  0.04360  1.0000 0.1278492103
H   H83       1.0  0.51040  0.31340  0.08540  1.0000 0.1104394969
H   H84       1.0  0.48350  0.24770  0.82440  1.0000 0.1014714072
H   H85       1.0  0.49540  0.30780  0.77000  1.0000 0.1409942516
H   H86       1.0  0.47880  0.42640  0.52890  1.0000 0.1014714072
H   H87       1.0  0.42870  0.44210  0.43740  1.0000 0.120203995
H   H88       1.0  0.42690  0.49430  0.55970  1.0000 0.120203995
H   H89       1.0  0.49920  0.59120  0.68690  1.0000 0.1483713333
H   H90       1.0  0.46380  0.62660  0.69410  1.0000 0.1104394969
H   H91       1.0  0.92640  0.88520  0.61390  1.0000 0.1104394969
H   H92       1.0  0.91280  0.93560  0.70710  1.0000 0.120203995
H   H93       1.0  0.85650  0.93570  0.59120  1.0000 0.120203995
H   H94       1.0  0.78620  0.86900  0.20390  1.0000 0.120203995
H   H95       1.0  0.78970  0.81930  0.08150  1.0000 0.1104394969
H   H96       1.0  0.83390  0.79710  0.16610  1.0000 0.1104394969
H   H97       1.0  0.86690  0.97610  0.43970  1.0000 0.1483713333
H   H98       1.0  0.82580  0.00540  0.44370  1.0000 0.1104394969
H   H99       1.0  0.70600  0.87760  0.36490  1.0000 0.1104394969
H   H100      1.0  0.74360  0.84600  0.35400  1.0000 0.1409942516
H   H101      1.0  0.98640  0.88180  0.52450  1.0000 0.1014714072
H   H102      1.0  0.01260  0.84120  0.60040  1.0000 0.1278492103
H   H103      1.0  0.94020  0.75940  0.57040  1.0000 0.120203995
H   H104      1.0  0.75460  0.67340  0.43970  1.0000 0.1278492103
H   H105      1.0  0.71140  0.70040  0.37500  1.0000 0.120203995
H   H106      1.0  0.77220  0.77960  0.35970  1.0000 0.1014714072
H   H107      1.0  0.82150  0.69670  0.60830  1.0000 0.1409942516
H   H108      1.0  0.81520  0.63300  0.63520  1.0000 0.1104394969
H   H109      1.0  0.83820  0.60880  0.39790  1.0000 0.1104394969
H   H110      1.0  0.85450  0.67710  0.37320  1.0000 0.1409942516
H   H111      1.0  0.80530  0.72010  0.25100  1.0000 0.1014714072
H   H112      1.0  0.82840  0.67840  0.15960  1.0000 0.1278492103
H   H113      1.0  0.91350  0.73690  0.17700  1.0000 0.1278492103
H   H114      1.0  0.04160  0.92800  0.33510  1.0000 0.120203995
H   H115      1.0  0.03540  0.98720  0.41440  1.0000 0.120203995
H   H116      1.0  0.95650  0.94290  0.44000  1.0000 0.1104394969
H   H117      1.0  0.00010  0.80530  0.36670  1.0000 0.1409942516
H   H118      1.0  0.05970  0.80670  0.33810  1.0000 0.1014714072
H   H119      1.0  0.07540  0.88080  0.15300  1.0000 0.1104394969
H   H120      1.0  0.01460  0.87980  0.18560  1.0000 0.120203995
H   H121      1.0  0.53070  0.02190  0.71970  1.0000 0.1014714072
H   H122      1.0  0.52470  0.99410  0.55060  1.0000 0.120203995
H   H123      1.0  0.59560  0.00060  0.55210  1.0000 0.1278492103
H   H124      1.0  0.75120  0.07080  0.83530  1.0000 0.120203995
H   H125      1.0  0.78010  0.11330  0.00860  1.0000 0.120203995
H   H126      1.0  0.71740  0.11440  0.04600  1.0000 0.1014714072
H   H127      1.0  0.72910  0.09110  0.66000  1.0000 0.1278492103
H   H128      1.0  0.75310  0.06530  0.55110  1.0000 0.1104394969
H   H129      1.0  0.65980  0.93460  0.54650  1.0000 0.1104394969
H   H130      1.0  0.63330  0.95710  0.65420  1.0000 0.1409942516
H   H131      1.0  0.50790  0.96170  0.87400  1.0000 0.1014714072
H   H132      1.0  0.43660  0.95400  0.86930  1.0000 0.120203995
H   H133      1.0  0.46040  0.03440  0.89820  1.0000 0.120203995
H   H134      1.0  0.62840  0.20660  0.95760  1.0000 0.120203995
H   H135      1.0  0.70740  0.23260  0.95790  1.0000 0.120203995
H   H136      1.0  0.70100  0.16080  0.92400  1.0000 0.1014714072
H   H137      1.0  0.53160  0.12480  0.06630  1.0000 0.1483713333
H   H138      1.0  0.49750  0.15990  0.08370  1.0000 0.120203995
H   H139      1.0  0.49360  0.17100  0.82680  1.0000 0.120203995
H   H140      1.0  0.53190  0.14050  0.80650  1.0000 0.1483713333
H   H141      1.0  0.64260  0.13440  0.09020  1.0000 0.1014714072
H   H142      1.0  0.67440  0.14160  0.25770  1.0000 0.120203995
H   H143      1.0  0.67190  0.07270  0.25200  1.0000 0.120203995
H   H144      1.0  0.60920  0.92220  0.96210  1.0000 0.120203995
H   H145      1.0  0.56230  0.89110  0.79170  1.0000 0.1278492103
H   H146      1.0  0.55690  0.95190  0.75810  1.0000 0.1014714072
H   H147      1.0  0.59160  0.93160  0.12170  1.0000 0.120203995
H   H148      1.0  0.62490  0.91450  0.23390  1.0000 0.1104394969
H   H149      1.0  0.75120  0.03280  0.27610  1.0000 0.1014714072
H   H150      1.0  0.72260  0.05300  0.16450  1.0000 0.1409942516
H   H151      1.0  0.21330  0.67990  0.05900  1.0000 0.1014714072
H   H152      1.0  0.21210  0.65310  0.89330  1.0000 0.120203995
H   H153      1.0  0.28510  0.66250  0.90770  1.0000 0.1278492103
H   H154      1.0  0.43470  0.73230  0.20140  1.0000 0.120203995
H   H155      1.0  0.45840  0.77000  0.37590  1.0000 0.1278492103
H   H156      1.0  0.39210  0.76510  0.40720  1.0000 0.1014714072
H   H157      1.0  0.40410  0.74790  0.99840  1.0000 0.1278492103
H   H158      1.0  0.42240  0.71840  0.88120  1.0000 0.1104394969
H   H159      1.0  0.34810  0.59510  0.91740  1.0000 0.1014714072
H   H160      1.0  0.32820  0.62000  0.03990  1.0000 0.1409942516
H   H161      1.0  0.38270  0.81650  0.29010  1.0000 0.1014714072
H   H162      1.0  0.39030  0.88910  0.32260  1.0000 0.120203995
H   H163      1.0  0.30910  0.86270  0.30040  1.0000 0.120203995
H   H164      1.0  0.21860  0.79680  0.12160  1.0000 0.1483713333
H   H165      1.0  0.18170  0.82890  0.12360  1.0000 0.1104394969
H   H166      1.0  0.47150  0.35950  0.62700  1.0000 0.1014714072
H   H167      1.0  0.49860  0.32380  0.53230  1.0000 0.1278492103
H   H168      1.0  0.57980  0.39140  0.53580  1.0000 0.120203995
H   H169      1.0  0.68610  0.58010  0.67310  1.0000 0.1278492103
H   H170      1.0  0.67660  0.63260  0.76950  1.0000 0.120203995
H   H171      1.0  0.59980  0.58040  0.80090  1.0000 0.1014714072
H   H172      1.0  0.62280  0.47500  0.45640  1.0000 0.1278492103
H   H173      1.0  0.68660  0.48960  0.41460  1.0000 0.1104394969
H   H174      1.0  0.75230  0.51650  0.67560  1.0000 0.1014714072
H   H175      1.0  0.69220  0.50460  0.73000  1.0000 0.1409942516
H   H176      1.0  0.57360  0.52120  0.97110  1.0000 0.1014714072
H   H177      1.0  0.55790  0.57130  0.06260  1.0000 0.120203995
H   H178      1.0  0.50570  0.57310  0.94030  1.0000 0.120203995
H   H179      1.0  0.40880  0.50080  0.81310  1.0000 0.1483713333
H   H180      1.0  0.37340  0.53620  0.80590  1.0000 0.1104394969
H   H181      1.0  0.88520  0.92640  0.11390  1.0000 0.1104394969
H   H182      1.0  0.93560  0.91280  0.20710  1.0000 0.120203995
H   H183      1.0  0.93570  0.85650  0.09120  1.0000 0.120203995
H   H184      1.0  0.86900  0.78620  0.70390  1.0000 0.120203995
H   H185      1.0  0.81930  0.78970  0.58150  1.0000 0.1104394969
H   H186      1.0  0.79710  0.83390  0.66610  1.0000 0.1104394969
H   H187      1.0  0.97610  0.86690  0.93970  1.0000 0.1483713333
H   H188      1.0  0.00540  0.82580  0.94370  1.0000 0.1104394969
H   H189      1.0  0.87760  0.70600  0.86490  1.0000 0.1104394969
H   H190      1.0  0.84600  0.74360  0.85400  1.0000 0.1409942516
H   H191      1.0  0.88180  0.98640  0.02450  1.0000 0.1014714072
H   H192      1.0  0.84120  0.01260  0.10040  1.0000 0.1278492103
H   H193      1.0  0.75940  0.94020  0.07040  1.0000 0.120203995
H   H194      1.0  0.67340  0.75460  0.93970  1.0000 0.1278492103
H   H195      1.0  0.70040  0.71140  0.87500  1.0000 0.120203995
H   H196      1.0  0.77960  0.77220  0.85970  1.0000 0.1014714072
H   H197      1.0  0.69670  0.82150  0.10830  1.0000 0.1409942516
H   H198      1.0  0.63300  0.81520  0.13520  1.0000 0.1104394969
H   H199      1.0  0.60880  0.83820  0.89790  1.0000 0.1104394969
H   H200      1.0  0.67710  0.85450  0.87320  1.0000 0.1409942516
H   H201      1.0  0.72010  0.80530  0.75100  1.0000 0.1014714072
H   H202      1.0  0.67840  0.82840  0.65960  1.0000 0.1278492103
H   H203      1.0  0.73690  0.91350  0.67700  1.0000 0.1278492103
H   H204      1.0  0.92800  0.04160  0.83510  1.0000 0.120203995
H   H205      1.0  0.98720  0.03540  0.91440  1.0000 0.120203995
H   H206      1.0  0.94290  0.95650  0.94000  1.0000 0.1104394969
H   H207      1.0  0.80530  0.00010  0.86670  1.0000 0.1409942516
H   H208      1.0  0.80670  0.05970  0.83810  1.0000 0.1014714072
H   H209      1.0  0.88080  0.07540  0.65300  1.0000 0.1104394969
H   H210      1.0  0.87980  0.01460  0.68560  1.0000 0.120203995
H   H211      1.0  0.02190  0.53070  0.21970  1.0000 0.1014714072
H   H212      1.0  0.99410  0.52470  0.05060  1.0000 0.120203995
H   H213      1.0  0.00060  0.59560  0.05210  1.0000 0.1278492103
H   H214      1.0  0.07080  0.75120  0.33530  1.0000 0.120203995
H   H215      1.0  0.11330  0.78010  0.50860  1.0000 0.120203995
H   H216      1.0  0.11440  0.71740  0.54600  1.0000 0.1014714072
H   H217      1.0  0.09110  0.72910  0.16000  1.0000 0.1278492103
H   H218      1.0  0.06530  0.75310  0.05110  1.0000 0.1104394969
H   H219      1.0  0.93460  0.65980  0.04650  1.0000 0.1104394969
H   H220      1.0  0.95710  0.63330  0.15420  1.0000 0.1409942516
H   H221      1.0  0.96170  0.50790  0.37400  1.0000 0.1014714072
H   H222      1.0  0.95400  0.43660  0.36930  1.0000 0.120203995
H   H223      1.0  0.03440  0.46040  0.39820  1.0000 0.120203995
H   H224      1.0  0.20660  0.62840  0.45760  1.0000 0.120203995
H   H225      1.0  0.23260  0.70740  0.45790  1.0000 0.120203995
H   H226      1.0  0.16080  0.70100  0.42400  1.0000 0.1014714072
H   H227      1.0  0.12480  0.53160  0.56630  1.0000 0.1483713333
H   H228      1.0  0.15990  0.49750  0.58370  1.0000 0.120203995
H   H229      1.0  0.17100  0.49360  0.32680  1.0000 0.120203995
H   H230      1.0  0.14050  0.53190  0.30650  1.0000 0.1483713333
H   H231      1.0  0.13440  0.64260  0.59020  1.0000 0.1014714072
H   H232      1.0  0.14160  0.67440  0.75770  1.0000 0.120203995
H   H233      1.0  0.07270  0.67190  0.75200  1.0000 0.120203995
H   H234      1.0  0.92220  0.60920  0.46210  1.0000 0.120203995
H   H235      1.0  0.89110  0.56230  0.29170  1.0000 0.1278492103
H   H236      1.0  0.95190  0.55690  0.25810  1.0000 0.1014714072
H   H237      1.0  0.93160  0.59160  0.62170  1.0000 0.120203995
H   H238      1.0  0.91450  0.62490  0.73390  1.0000 0.1104394969
H   H239      1.0  0.03280  0.75120  0.77610  1.0000 0.1014714072
H   H240      1.0  0.05300  0.72260  0.66450  1.0000 0.1409942516
H   H241      1.0  0.67990  0.21330  0.55900  1.0000 0.1014714072
H   H242      1.0  0.65310  0.21210  0.39330  1.0000 0.120203995
H   H243      1.0  0.66250  0.28510  0.40770  1.0000 0.1278492103
H   H244      1.0  0.73230  0.43470  0.70140  1.0000 0.120203995
H   H245      1.0  0.77000  0.45840  0.87590  1.0000 0.1278492103
H   H246      1.0  0.76510  0.39210  0.90720  1.0000 0.1014714072
H   H247      1.0  0.74790  0.40410  0.49840  1.0000 0.1278492103
H   H248      1.0  0.71840  0.42240  0.38120  1.0000 0.1104394969
H   H249      1.0  0.59510  0.34810  0.41740  1.0000 0.1014714072
H   H250      1.0  0.62000  0.32820  0.53990  1.0000 0.1409942516
H   H251      1.0  0.81650  0.38270  0.79010  1.0000 0.1014714072
H   H252      1.0  0.88910  0.39030  0.82260  1.0000 0.120203995
H   H253      1.0  0.86270  0.30910  0.80040  1.0000 0.120203995
H   H254      1.0  0.79680  0.21860  0.62160  1.0000 0.1409942516
H   H255      1.0  0.82890  0.18170  0.62360  1.0000 0.1104394969
H   H256      1.0  0.35950  0.47150  0.12700  1.0000 0.1014714072
H   H257      1.0  0.32380  0.49860  0.03230  1.0000 0.1278492103
H   H258      1.0  0.39140  0.57980  0.03580  1.0000 0.120203995
H   H259      1.0  0.58010  0.68610  0.17310  1.0000 0.1278492103
H   H260      1.0  0.63260  0.67660  0.26950  1.0000 0.120203995
H   H261      1.0  0.58040  0.59980  0.30090  1.0000 0.1104394969
H   H262      1.0  0.47500  0.62280  0.95640  1.0000 0.1278492103
H   H263      1.0  0.48960  0.68660  0.91460  1.0000 0.1104394969
H   H264      1.0  0.51650  0.75230  0.17560  1.0000 0.1014714072
H   H265      1.0  0.50460  0.69220  0.23000  1.0000 0.1409942516
H   H266      1.0  0.52120  0.57360  0.47110  1.0000 0.1014714072
H   H267      1.0  0.57130  0.55790  0.56260  1.0000 0.120203995
H   H268      1.0  0.57310  0.50570  0.44030  1.0000 0.120203995
H   H269      1.0  0.50080  0.40880  0.31310  1.0000 0.1483713333
H   H270      1.0  0.53620  0.37340  0.30590  1.0000 0.1104394969
H   H271      1.0  0.07360  0.11480  0.38610  1.0000 0.1104394969
H   H272      1.0  0.08720  0.06440  0.29290  1.0000 0.120203995
H   H273      1.0  0.14350  0.06430  0.40880  1.0000 0.120203995
H   H274      1.0  0.21380  0.13100  0.79610  1.0000 0.120203995
H   H275      1.0  0.21030  0.18070  0.91850  1.0000 0.1104394969
H   H276      1.0  0.16610  0.20290  0.83390  1.0000 0.1104394969
H   H277      1.0  0.13310  0.02390  0.56030  1.0000 0.1483713333
H   H278      1.0  0.17420  0.99460  0.55630  1.0000 0.1104394969
H   H279      1.0  0.29400  0.12240  0.63510  1.0000 0.1104394969
H   H280      1.0  0.25640  0.15400  0.64600  1.0000 0.1409942516
H   H281      1.0  0.01360  0.11820  0.47550  1.0000 0.1014714072
H   H282      1.0  0.98740  0.15880  0.39960  1.0000 0.1278492103
H   H283      1.0  0.05980  0.24060  0.42960  1.0000 0.1278492103
H   H284      1.0  0.24540  0.32660  0.56030  1.0000 0.1278492103
H   H285      1.0  0.28860  0.29960  0.62500  1.0000 0.120203995
H   H286      1.0  0.22780  0.22040  0.64030  1.0000 0.1014714072
H   H287      1.0  0.17850  0.30330  0.39170  1.0000 0.1409942516
H   H288      1.0  0.18480  0.36700  0.36480  1.0000 0.1104394969
H   H289      1.0  0.16180  0.39120  0.60210  1.0000 0.1104394969
H   H290      1.0  0.14550  0.32290  0.62680  1.0000 0.1409942516
H   H291      1.0  0.19470  0.27990  0.74900  1.0000 0.1014714072
H   H292      1.0  0.17160  0.32160  0.84040  1.0000 0.1278492103
H   H293      1.0  0.08650  0.26310  0.82300  1.0000 0.1278492103
H   H294      1.0  0.95840  0.07200  0.66490  1.0000 0.120203995
H   H295      1.0  0.96460  0.01280  0.58560  1.0000 0.120203995
H   H296      1.0  0.04350  0.05710  0.56000  1.0000 0.1104394969
H   H297      1.0  0.99990  0.19470  0.63330  1.0000 0.1409942516
H   H298      1.0  0.94030  0.19330  0.66190  1.0000 0.1014714072
H   H299      1.0  0.92460  0.11920  0.84700  1.0000 0.1104394969
H   H300      1.0  0.98540  0.12020  0.81440  1.0000 0.120203995
H   H301      1.0  0.46930  0.97810  0.28030  1.0000 0.1014714072
H   H302      1.0  0.47530  0.00590  0.44940  1.0000 0.120203995
H   H303      1.0  0.40440  0.99940  0.44790  1.0000 0.1278492103
H   H304      1.0  0.24880  0.92920  0.16470  1.0000 0.120203995
H   H305      1.0  0.21990  0.88670  0.99140  1.0000 0.120203995
H   H306      1.0  0.28260  0.88560  0.95400  1.0000 0.1014714072
H   H307      1.0  0.27090  0.90890  0.34000  1.0000 0.1278492103
H   H308      1.0  0.24690  0.93470  0.44890  1.0000 0.1104394969
H   H309      1.0  0.34020  0.06540  0.45350  1.0000 0.1104394969
H   H310      1.0  0.36670  0.04290  0.34580  1.0000 0.1409942516
H   H311      1.0  0.49210  0.03830  0.12600  1.0000 0.1014714072
H   H312      1.0  0.56340  0.04600  0.13070  1.0000 0.120203995
H   H313      1.0  0.53960  0.96560  0.10180  1.0000 0.120203995
H   H314      1.0  0.37160  0.79340  0.04240  1.0000 0.120203995
H   H315      1.0  0.29260  0.76740  0.04210  1.0000 0.120203995
H   H316      1.0  0.29900  0.83920  0.07600  1.0000 0.1014714072
H   H317      1.0  0.46840  0.87520  0.93370  1.0000 0.1483713333
H   H318      1.0  0.50250  0.84010  0.91630  1.0000 0.120203995
H   H319      1.0  0.50640  0.82900  0.17320  1.0000 0.120203995
H   H320      1.0  0.46810  0.85950  0.19350  1.0000 0.1483713333
H   H321      1.0  0.35740  0.86560  0.90980  1.0000 0.1014714072
H   H322      1.0  0.32560  0.85840  0.74230  1.0000 0.120203995
H   H323      1.0  0.32810  0.92730  0.74800  1.0000 0.120203995
H   H324      1.0  0.39080  0.07780  0.03790  1.0000 0.120203995
H   H325      1.0  0.43770  0.10890  0.20830  1.0000 0.1278492103
H   H326      1.0  0.44310  0.04810  0.24190  1.0000 0.1014714072
H   H327      1.0  0.40840  0.06840  0.87830  1.0000 0.120203995
H   H328      1.0  0.37510  0.08550  0.76610  1.0000 0.1104394969
H   H329      1.0  0.24880  0.96720  0.72390  1.0000 0.1014714072
H   H330      1.0  0.27740  0.94700  0.83550  1.0000 0.1409942516
H   H331      1.0  0.78670  0.32010  0.94100  1.0000 0.1014714072
H   H332      1.0  0.78790  0.34690  0.10670  1.0000 0.120203995
H   H333      1.0  0.71490  0.33750  0.09230  1.0000 0.1278492103
H   H334      1.0  0.56530  0.26770  0.79860  1.0000 0.120203995
H   H335      1.0  0.54160  0.23000  0.62410  1.0000 0.1278492103
H   H336      1.0  0.60790  0.23490  0.59280  1.0000 0.1014714072
H   H337      1.0  0.59590  0.25210  0.00160  1.0000 0.1278492103
H   H338      1.0  0.57760  0.28160  0.11880  1.0000 0.1104394969
H   H339      1.0  0.65190  0.40490  0.08260  1.0000 0.1014714072
H   H340      1.0  0.67180  0.38000  0.96010  1.0000 0.1409942516
H   H341      1.0  0.61730  0.18350  0.70990  1.0000 0.1014714072
H   H342      1.0  0.60970  0.11090  0.67740  1.0000 0.120203995
H   H343      1.0  0.69090  0.13730  0.69960  1.0000 0.120203995
H   H344      1.0  0.78140  0.20320  0.87840  1.0000 0.1483713333
H   H345      1.0  0.81830  0.17110  0.87640  1.0000 0.1104394969
H   H346      1.0  0.52850  0.64050  0.37300  1.0000 0.1014714072
H   H347      1.0  0.50140  0.67620  0.46770  1.0000 0.1278492103
H   H348      1.0  0.42020  0.60860  0.46420  1.0000 0.120203995
H   H349      1.0  0.31390  0.41990  0.32690  1.0000 0.1278492103
H   H350      1.0  0.32340  0.36740  0.23050  1.0000 0.120203995
H   H351      1.0  0.40020  0.41960  0.19910  1.0000 0.1014714072
H   H352      1.0  0.37720  0.52500  0.54360  1.0000 0.1278492103
H   H353      1.0  0.31340  0.51040  0.58540  1.0000 0.1104394969
H   H354      1.0  0.24770  0.48350  0.32440  1.0000 0.1014714072
H   H355      1.0  0.30780  0.49540  0.27000  1.0000 0.1409942516
H   H356      1.0  0.42640  0.47880  0.02890  1.0000 0.1014714072
H   H357      1.0  0.44210  0.42870  0.93740  1.0000 0.120203995
H   H358      1.0  0.49430  0.42690  0.05970  1.0000 0.120203995
H   H359      1.0  0.59120  0.49920  0.18690  1.0000 0.1483713333
H   H360      1.0  0.62660  0.46380  0.19410  1.0000 0.1104394969
C   C1        1.0  0.10755  0.09237  0.91320  1.0000 0.0486950742
C   C2        1.0  0.07973  0.10023  0.85950  1.0000 -0.1310758518
C   C3        1.0  0.07932  0.13072  0.92360  1.0000 -0.2091854317
C   C4        1.0  0.10607  0.13987  0.01800  1.0000 0.1483713333
C   C5        1.0  0.11387  0.16659  0.10440  1.0000 -0.0675517375
C   C6        1.0  0.13874  0.17384  0.19430  1.0000 0.1575175924
C   C7        1.0  0.14416  0.19886  0.28500  1.0000 -0.2091854317
C   C8        1.0  0.17137  0.19709  0.35160  1.0000 -0.124684048
C   C9        1.0  0.18340  0.17194  0.30360  1.0000 0.0397834448
C   C10       1.0  0.09236  0.19092  0.10130  1.0000 0.120203995
C   C11       1.0  0.04509  0.16645  0.07610  1.0000 -0.191396721
C   C12       1.0  0.02768  0.19140  0.07380  1.0000 0.0909956971
C   C13       1.0  0.10158  0.26072  0.12010  1.0000 0.1014714072
C   C14       1.0  0.12077  0.23819  0.12530  1.0000 -0.191396721
C   C15       1.0  0.14982  0.03428  0.97450  1.0000 0.059126053
C   C16       1.0  0.17228  0.01882  0.93180  1.0000 -0.1506950642
C   C17       1.0  0.21654  0.05840  0.94740  1.0000 -0.191396721
C   C18       1.0  0.22134  0.09786  0.99460  1.0000 0.1483713333
C   C19       1.0  0.26036  0.14574  0.01920  1.0000 -0.0502668328
C   C20       1.0  0.26138  0.18258  0.05850  1.0000 0.1575175924
C   C21       1.0  0.29758  0.23164  0.07300  1.0000 -0.2008024095
C   C22       1.0  0.28298  0.25560  0.10900  1.0000 -0.1587809925
C   C23       1.0  0.23874  0.22130  0.11680  1.0000 0.0307207106
C   C24       1.0  0.30429  0.15715  0.00430  1.0000 0.1104394969
C   C25       1.0  0.31920  0.17218  0.93370  1.0000 -0.191396721
C   C26       1.0  0.35961  0.17879  0.92150  1.0000 0.1014714072
C   C27       1.0  0.37235  0.16421  0.05700  1.0000 0.059126053
C   C28       1.0  0.33160  0.15404  0.07260  1.0000 -0.1815698411
C   C29       1.0  0.26549  0.16415  0.25430  1.0000 0.0307207106
C   C30       1.0  0.28897  0.15119  0.30550  1.0000 -0.1506950642
C   C31       1.0  0.25708  0.10466  0.29640  1.0000 -0.191396721
C   C32       1.0  0.21131  0.08777  0.23730  1.0000 0.1781895188
C   C33       1.0  0.16802  0.04314  0.21420  1.0000 -0.0784621584
C   C34       1.0  0.12444  0.02906  0.16930  1.0000 0.1575175924
C   C35       1.0  0.07884  0.98520  0.14960  1.0000 -0.2091854317
C   C36       1.0  0.04615  0.98821  0.10440  1.0000 -0.1506950642
C   C37       1.0  0.07121  0.03259  0.09170  1.0000 0.0187056015
C   C38       1.0  0.16881  0.00587  0.23800  1.0000 0.1409942516
C   C39       1.0  0.18387  0.98811  0.18340  1.0000 -0.1815698411
C   C40       1.0  0.18322  0.95272  0.20160  1.0000 0.1104394969
C   C41       1.0  0.13780  0.94320  0.31120  1.0000 0.0187056015
C   C42       1.0  0.13885  0.97875  0.29230  1.0000 -0.191396721
C   C43       1.0  0.97820  0.44636  0.80000  1.0000 0.0307207106
C   C44       1.0  0.99436  0.45026  0.89490  1.0000 -0.1587809925
C   C45       1.0  0.99047  0.41127  0.89440  1.0000 -0.191396721
C   C46       1.0  0.96999  0.38289  0.79630  1.0000 0.1483713333
C   C47       1.0  0.95867  0.33957  0.76240  1.0000 -0.0502668328
C   C48       1.0  0.93593  0.31053  0.66740  1.0000 0.1483713333
C   C49       1.0  0.92295  0.26483  0.63010  1.0000 -0.2091854317
C   C50       1.0  0.89996  0.24922  0.53550  1.0000 -0.1506950642
C   C51       1.0  0.89952  0.28460  0.51530  1.0000 0.0486950742
C   C52       1.0  0.97356  0.32196  0.83340  1.0000 0.120203995
C   C53       1.0  0.94152  0.28600  0.86320  1.0000 -0.191396721
C   C54       1.0  0.95720  0.27180  0.92780  1.0000 0.0803728314
C   C55       1.0  0.03302  0.32602  0.93060  1.0000 0.0909956971
C   C56       1.0  0.02002  0.34204  0.86670  1.0000 -0.1815698411
C   C57       1.0  0.01279  0.49245  0.61740  1.0000 0.0486950742
C   C58       1.0  0.01745  0.53263  0.62000  1.0000 -0.1310758518
C   C59       1.0  0.97348  0.51968  0.60430  1.0000 -0.2008024095
C   C60       1.0  0.94146  0.47004  0.59230  1.0000 0.1483713333
C   C61       1.0  0.89376  0.44174  0.57920  1.0000 -0.0675517375
C   C62       1.0  0.86341  0.39517  0.57590  1.0000 0.1483713333
C   C63       1.0  0.81324  0.36364  0.55420  1.0000 -0.2008024095
C   C64       1.0  0.79886  0.32026  0.55350  1.0000 -0.1310758518
C   C65       1.0  0.83950  0.32444  0.57300  1.0000 0.0486950742
C   C66       1.0  0.87077  0.46481  0.56690  1.0000 0.120203995
C   C67       1.0  0.86523  0.47535  0.48330  1.0000 -0.191396721
C   C68       1.0  0.84496  0.49604  0.47390  1.0000 0.0803728314
C   C69       1.0  0.83786  0.49774  0.62340  1.0000 0.0701261886
C   C70       1.0  0.85659  0.47561  0.63640  1.0000 -0.1815698411
C   C71       1.0  0.88731  0.35457  0.39160  1.0000 0.0397834448
C   C72       1.0  0.88294  0.33668  0.29760  1.0000 -0.1587809925
C   C73       1.0  0.92067  0.33813  0.30080  1.0000 -0.191396721
C   C74       1.0  0.94837  0.35755  0.39880  1.0000 0.1483713333
C   C75       1.0  0.99020  0.36536  0.43580  1.0000 -0.0424988689
C   C76       1.0  0.01940  0.38906  0.53160  1.0000 0.1483713333
C   C77       1.0  0.06311  0.39969  0.57070  1.0000 -0.2091854317
C   C78       1.0  0.07990  0.42482  0.66380  1.0000 -0.1587809925
C   C79       1.0  0.04564  0.42798  0.68130  1.0000 0.0397834448
C   C80       1.0  0.00505  0.34705  0.36870  1.0000 0.120203995
C   C81       1.0  0.04677  0.37537  0.34720  1.0000 -0.2008024095
C   C82       1.0  0.05672  0.35516  0.27980  1.0000 0.0909956971
C   C83       1.0  0.98800  0.28176  0.25580  1.0000 0.0803728314
C   C84       1.0  0.97548  0.29858  0.32180  1.0000 -0.191396721
C   C85       1.0  0.31964  0.76266  0.45610  1.0000 0.0397834448
C   C86       1.0  0.33506  0.76386  0.54950  1.0000 -0.1587809925
C   C87       1.0  0.32963  0.72397  0.54150  1.0000 -0.1815698411
C   C88       1.0  0.31005  0.69825  0.44310  1.0000 0.1483713333
C   C89       1.0  0.29894  0.65532  0.40230  1.0000 -0.0583450525
C   C90       1.0  0.27832  0.62878  0.30770  1.0000 0.1483713333
C   C91       1.0  0.26385  0.58335  0.26600  1.0000 -0.2008024095
C   C92       1.0  0.24342  0.57044  0.17030  1.0000 -0.1587809925
C   C93       1.0  0.24606  0.60758  0.15390  1.0000 0.0486950742
C   C94       1.0  0.31334  0.63744  0.47100  1.0000 0.120203995
C   C95       1.0  0.28398  0.60846  0.51720  1.0000 -0.191396721
C   C96       1.0  0.30211  0.59791  0.58760  1.0000 0.0909956971
C   C97       1.0  0.37346  0.64082  0.56590  1.0000 0.0803728314
C   C98       1.0  0.35918  0.65324  0.49310  1.0000 -0.1746291267
C   C99       1.0  0.18342  0.64292  0.21270  1.0000 0.059126053
C   C100      1.0  0.14242  0.63816  0.19460  1.0000 -0.1310758518
C   C101      1.0  0.15695  0.68263  0.20650  1.0000 -0.2091854317
C   C102      1.0  0.20734  0.71442  0.23140  1.0000 0.1483713333
C   C103      1.0  0.19990  0.79158  0.32560  1.0000 -0.191396721
C   C104      1.0  0.18015  0.81307  0.32320  1.0000 0.0701261886
C   C105      1.0  0.62300  0.49884  0.88430  1.0000 0.059126053
C   C106      1.0  0.64362  0.48432  0.93730  1.0000 -0.1587809925
C   C107      1.0  0.60645  0.44019  0.93560  1.0000 -0.2091854317
C   C108      1.0  0.56441  0.42945  0.88370  1.0000 0.1483713333
C   C109      1.0  0.51811  0.38857  0.86830  1.0000 -0.0502668328
C   C110      1.0  0.47701  0.37969  0.81780  1.0000 0.1483713333
C   C111      1.0  0.42964  0.33974  0.80360  1.0000 -0.191396721
C   C112      1.0  0.40089  0.34473  0.75140  1.0000 -0.1587809925
C   C113      1.0  0.43077  0.38791  0.73460  1.0000 0.0307207106
C   C114      1.0  0.51116  0.35032  0.90330  1.0000 0.120203995
C   C115      1.0  0.51585  0.35071  0.99610  1.0000 -0.191396721
C   C116      1.0  0.50718  0.31238  0.02070  1.0000 0.0701261886
C   C117      1.0  0.49139  0.27435  0.86910  1.0000 0.0909956971
C   C118      1.0  0.49859  0.30991  0.83520  1.0000 -0.191396721
C   C119      1.0  0.47238  0.44576  0.55670  1.0000 0.059126053
C   C120      1.0  0.44387  0.45397  0.50410  1.0000 -0.1310758518
C   C121      1.0  0.44353  0.48281  0.57150  1.0000 -0.2157356637
C   C122      1.0  0.47160  0.49292  0.66140  1.0000 0.1483713333
C   C123      1.0  0.47407  0.57975  0.71330  1.0000 -0.2008024095
C   C124      1.0  0.45220  0.60030  0.71660  1.0000 0.0803728314
C   C125      1.0  0.18589  0.42371  0.07390  1.0000 0.484465803
C   C126      1.0  0.76829  0.51109  0.16090  1.0000 0.4967615483
C   C127      1.0  0.12402  0.86658  0.88030  1.0000 0.4728102265
C   C128      1.0  0.90763  0.89245  0.58680  1.0000 0.0486950742
C   C129      1.0  0.89977  0.92027  0.64050  1.0000 -0.1310758518
C   C130      1.0  0.86928  0.92068  0.57640  1.0000 -0.2091854317
C   C131      1.0  0.86013  0.89393  0.48200  1.0000 0.1483713333
C   C132      1.0  0.83341  0.88613  0.39560  1.0000 -0.0675517375
C   C133      1.0  0.82616  0.86126  0.30570  1.0000 0.1575175924
C   C134      1.0  0.80114  0.85584  0.21500  1.0000 -0.2091854317
C   C135      1.0  0.80291  0.82863  0.14840  1.0000 -0.124684048
C   C136      1.0  0.82806  0.81660  0.19640  1.0000 0.0397834448
C   C137      1.0  0.80908  0.90764  0.39870  1.0000 0.120203995
C   C138      1.0  0.83355  0.95491  0.42390  1.0000 -0.191396721
C   C139      1.0  0.80860  0.97232  0.42620  1.0000 0.0909956971
C   C140      1.0  0.73928  0.89842  0.37990  1.0000 0.1014714072
C   C141      1.0  0.76181  0.87923  0.37470  1.0000 -0.191396721
C   C142      1.0  0.96572  0.85018  0.52550  1.0000 0.059126053
C   C143      1.0  0.98118  0.82772  0.56820  1.0000 -0.1506950642
C   C144      1.0  0.94160  0.78346  0.55260  1.0000 -0.191396721
C   C145      1.0  0.90214  0.77866  0.50540  1.0000 0.1483713333
C   C146      1.0  0.85426  0.73964  0.48080  1.0000 -0.0502668328
C   C147      1.0  0.81742  0.73862  0.44150  1.0000 0.1575175924
C   C148      1.0  0.76836  0.70242  0.42700  1.0000 -0.2008024095
C   C149      1.0  0.74440  0.71702  0.39100  1.0000 -0.1587809925
C   C150      1.0  0.77870  0.76126  0.38320  1.0000 0.0307207106
C   C151      1.0  0.84285  0.69571  0.49570  1.0000 0.1104394969
C   C152      1.0  0.82782  0.68080  0.56630  1.0000 -0.191396721
C   C153      1.0  0.82121  0.64039  0.57850  1.0000 0.1014714072
C   C154      1.0  0.83579  0.62765  0.44300  1.0000 0.059126053
C   C155      1.0  0.84596  0.66840  0.42740  1.0000 -0.1815698411
C   C156      1.0  0.83585  0.73451  0.24570  1.0000 0.0397834448
C   C157      1.0  0.84881  0.71103  0.19450  1.0000 -0.1506950642
C   C158      1.0  0.89534  0.74292  0.20360  1.0000 -0.191396721
C   C159      1.0  0.91223  0.78869  0.26270  1.0000 0.1781895188
C   C160      1.0  0.95686  0.83198  0.28580  1.0000 -0.0784621584
C   C161      1.0  0.97094  0.87556  0.33070  1.0000 0.1575175924
C   C162      1.0  0.01480  0.92116  0.35040  1.0000 -0.2091854317
C   C163      1.0  0.01179  0.95385  0.39560  1.0000 -0.1506950642
C   C164      1.0  0.96741  0.92879  0.40830  1.0000 0.0187056015
C   C165      1.0  0.99413  0.83119  0.26200  1.0000 0.1409942516
C   C166      1.0  0.01189  0.81613  0.31660  1.0000 -0.1815698411
C   C167      1.0  0.04728  0.81678  0.29840  1.0000 0.1104394969
C   C168      1.0  0.05680  0.86220  0.18880  1.0000 0.0187056015
C   C169      1.0  0.02125  0.86115  0.20770  1.0000 -0.191396721
C   C170      1.0  0.55364  0.02180  0.70000  1.0000 0.0307207106
C   C171      1.0  0.54974  0.00564  0.60510  1.0000 -0.1587809925
C   C172      1.0  0.58873  0.00953  0.60560  1.0000 -0.191396721
C   C173      1.0  0.61711  0.03001  0.70370  1.0000 0.1483713333
C   C174      1.0  0.66043  0.04133  0.73760  1.0000 -0.0502668328
C   C175      1.0  0.68947  0.06407  0.83260  1.0000 0.1483713333
C   C176      1.0  0.73517  0.07705  0.86990  1.0000 -0.2091854317
C   C177      1.0  0.75078  0.10004  0.96450  1.0000 -0.1506950642
C   C178      1.0  0.71540  0.10048  0.98470  1.0000 0.0486950742
C   C179      1.0  0.67804  0.02644  0.66667  1.0000 0.120203995
C   C180      1.0  0.71400  0.05848  0.63680  1.0000 -0.191396721
C   C181      1.0  0.72820  0.04280  0.57220  1.0000 0.0803728314
C   C182      1.0  0.67398  0.96698  0.56940  1.0000 0.0909956971
C   C183      1.0  0.65796  0.97998  0.63330  1.0000 -0.1815698411
C   C184      1.0  0.50755  0.98721  0.88260  1.0000 0.0486950742
C   C185      1.0  0.46737  0.98255  0.88000  1.0000 -0.1310758518
C   C186      1.0  0.48032  0.02652  0.89570  1.0000 -0.2008024095
C   C187      1.0  0.52996  0.05854  0.90770  1.0000 0.1483713333
C   C188      1.0  0.55826  0.10624  0.92080  1.0000 -0.0675517375
C   C189      1.0  0.60483  0.13659  0.92410  1.0000 0.1483713333
C   C190      1.0  0.63636  0.18676  0.94580  1.0000 -0.2008024095
C   C191      1.0  0.67974  0.20114  0.94650  1.0000 -0.1310758518
C   C192      1.0  0.67556  0.16050  0.92700  1.0000 0.0486950742
C   C193      1.0  0.53519  0.12923  0.93310  1.0000 0.120203995
C   C194      1.0  0.52465  0.13477  0.01670  1.0000 -0.191396721
C   C195      1.0  0.50396  0.15504  0.02610  1.0000 0.0803728314
C   C196      1.0  0.50226  0.16214  0.87660  1.0000 0.0701261886
C   C197      1.0  0.52439  0.14341  0.86360  1.0000 -0.1815698411
C   C198      1.0  0.64543  0.11269  0.10840  1.0000 0.0397834448
C   C199      1.0  0.66332  0.11706  0.20240  1.0000 -0.1587809925
C   C200      1.0  0.66187  0.07933  0.19920  1.0000 -0.191396721
C   C201      1.0  0.64245  0.05163  0.10120  1.0000 0.1483713333
C   C202      1.0  0.63464  0.00980  0.06420  1.0000 -0.0424988689
C   C203      1.0  0.61094  0.98060  0.96840  1.0000 0.1483713333
C   C204      1.0  0.60031  0.93689  0.92930  1.0000 -0.2091854317
C   C205      1.0  0.57518  0.92010  0.83620  1.0000 -0.1587809925
C   C206      1.0  0.57202  0.95436  0.81870  1.0000 0.0397834448
C   C207      1.0  0.65295  0.99495  0.13130  1.0000 0.120203995
C   C208      1.0  0.62463  0.95323  0.15280  1.0000 -0.2008024095
C   C209      1.0  0.64484  0.94328  0.22020  1.0000 0.0909956971
C   C210      1.0  0.71824  0.01200  0.24420  1.0000 0.0803728314
C   C211      1.0  0.70142  0.02452  0.17820  1.0000 -0.191396721
C   C212      1.0  0.23734  0.68036  0.04390  1.0000 0.0397834448
C   C213      1.0  0.23614  0.66494  0.95050  1.0000 -0.1587809925
C   C214      1.0  0.27603  0.67037  0.95850  1.0000 -0.1815698411
C   C215      1.0  0.30175  0.68995  0.05690  1.0000 0.1483713333
C   C216      1.0  0.34468  0.70106  0.09770  1.0000 -0.0583450525
C   C217      1.0  0.37122  0.72168  0.19230  1.0000 0.1483713333
C   C218      1.0  0.41665  0.73615  0.23400  1.0000 -0.2008024095
C   C219      1.0  0.42956  0.75658  0.32970  1.0000 -0.1587809925
C   C220      1.0  0.39242  0.75394  0.34610  1.0000 0.0486950742
C   C221      1.0  0.36256  0.68666  0.02900  1.0000 0.120203995
C   C222      1.0  0.39154  0.71602  0.98280  1.0000 -0.191396721
C   C223      1.0  0.40209  0.69789  0.91240  1.0000 0.0909956971
C   C224      1.0  0.35918  0.62654  0.93410  1.0000 0.0803728314
C   C225      1.0  0.34676  0.64082  0.00690  1.0000 -0.1746291267
C   C226      1.0  0.35708  0.81658  0.28730  1.0000 0.059126053
C   C227      1.0  0.36184  0.85758  0.30540  1.0000 -0.1310758518
C   C228      1.0  0.31737  0.84305  0.29350  1.0000 -0.2091854317
C   C229      1.0  0.28558  0.79266  0.26860  1.0000 0.1483713333
C   C230      1.0  0.20842  0.80010  0.17440  1.0000 -0.191396721
C   C231      1.0  0.18693  0.81985  0.17680  1.0000 0.0701261886
C   C232      1.0  0.50116  0.37700  0.61570  1.0000 0.059126053
C   C233      1.0  0.51568  0.35638  0.56270  1.0000 -0.1587809925
C   C234      1.0  0.55981  0.39355  0.56440  1.0000 -0.2091854317
C   C235      1.0  0.57055  0.43559  0.61630  1.0000 0.1483713333
C   C236      1.0  0.61143  0.48189  0.63170  1.0000 -0.0502668328
C   C237      1.0  0.62031  0.52299  0.68220  1.0000 0.1483713333
C   C238      1.0  0.66026  0.57036  0.69640  1.0000 -0.191396721
C   C239      1.0  0.65527  0.59911  0.74860  1.0000 -0.1587809925
C   C240      1.0  0.61209  0.56923  0.76540  1.0000 0.0307207106
C   C241      1.0  0.64968  0.48884  0.59670  1.0000 0.120203995
C   C242      1.0  0.64929  0.48415  0.50390  1.0000 -0.191396721
C   C243      1.0  0.68762  0.49282  0.47930  1.0000 0.0701261886
C   C244      1.0  0.72565  0.50861  0.63090  1.0000 0.0909956971
C   C245      1.0  0.69009  0.50141  0.66480  1.0000 -0.191396721
C   C246      1.0  0.55424  0.52762  0.94330  1.0000 0.059126053
C   C247      1.0  0.54603  0.55613  0.99590  1.0000 -0.1310758518
C   C248      1.0  0.51719  0.55647  0.92850  1.0000 -0.2157356637
C   C249      1.0  0.50708  0.52840  0.83860  1.0000 0.1409942516
C   C250      1.0  0.42025  0.52593  0.78670  1.0000 -0.2008024095
C   C251      1.0  0.39970  0.54780  0.78340  1.0000 0.0803728314
C   C252      1.0  0.57629  0.81411  0.42610  1.0000 0.484465803
C   C253      1.0  0.48891  0.23171  0.33910  1.0000 0.4967615483
C   C254      1.0  0.13342  0.87598  0.61970  1.0000 0.4728102265
C   C255      1.0  0.89245  0.90763  0.08680  1.0000 0.0486950742
C   C256      1.0  0.92027  0.89977  0.14050  1.0000 -0.1310758518
C   C257      1.0  0.92068  0.86928  0.07640  1.0000 -0.2091854317
C   C258      1.0  0.89393  0.86013  0.98200  1.0000 0.1483713333
C   C259      1.0  0.88613  0.83341  0.89560  1.0000 -0.0675517375
C   C260      1.0  0.86126  0.82616  0.80570  1.0000 0.1575175924
C   C261      1.0  0.85584  0.80114  0.71500  1.0000 -0.2091854317
C   C262      1.0  0.82863  0.80291  0.64840  1.0000 -0.124684048
C   C263      1.0  0.81660  0.82806  0.69640  1.0000 0.0397834448
C   C264      1.0  0.90764  0.80908  0.89870  1.0000 0.120203995
C   C265      1.0  0.95491  0.83355  0.92390  1.0000 -0.191396721
C   C266      1.0  0.97232  0.80860  0.92620  1.0000 0.0909956971
C   C267      1.0  0.89842  0.73928  0.87990  1.0000 0.1014714072
C   C268      1.0  0.87923  0.76181  0.87470  1.0000 -0.191396721
C   C269      1.0  0.85018  0.96572  0.02550  1.0000 0.059126053
C   C270      1.0  0.82772  0.98118  0.06820  1.0000 -0.1506950642
C   C271      1.0  0.78346  0.94160  0.05260  1.0000 -0.191396721
C   C272      1.0  0.77866  0.90214  0.00540  1.0000 0.1483713333
C   C273      1.0  0.73964  0.85426  0.98080  1.0000 -0.0502668328
C   C274      1.0  0.73862  0.81742  0.94150  1.0000 0.1575175924
C   C275      1.0  0.70242  0.76836  0.92700  1.0000 -0.2008024095
C   C276      1.0  0.71702  0.74440  0.89100  1.0000 -0.1587809925
C   C277      1.0  0.76126  0.77870  0.88320  1.0000 0.0307207106
C   C278      1.0  0.69571  0.84285  0.99570  1.0000 0.1104394969
C   C279      1.0  0.68080  0.82782  0.06630  1.0000 -0.191396721
C   C280      1.0  0.64039  0.82121  0.07850  1.0000 0.1014714072
C   C281      1.0  0.62765  0.83579  0.94300  1.0000 0.059126053
C   C282      1.0  0.66840  0.84596  0.92740  1.0000 -0.1815698411
C   C283      1.0  0.73451  0.83585  0.74570  1.0000 0.0307207106
C   C284      1.0  0.71103  0.84881  0.69450  1.0000 -0.1506950642
C   C285      1.0  0.74292  0.89534  0.70360  1.0000 -0.191396721
C   C286      1.0  0.78869  0.91223  0.76270  1.0000 0.1781895188
C   C287      1.0  0.83198  0.95686  0.78580  1.0000 -0.0784621584
C   C288      1.0  0.87556  0.97094  0.83070  1.0000 0.1575175924
C   C289      1.0  0.92116  0.01480  0.85040  1.0000 -0.2091854317
C   C290      1.0  0.95385  0.01179  0.89560  1.0000 -0.1506950642
C   C291      1.0  0.92879  0.96741  0.90830  1.0000 0.0187056015
C   C292      1.0  0.83119  0.99413  0.76200  1.0000 0.1409942516
C   C293      1.0  0.81613  0.01189  0.81660  1.0000 -0.1815698411
C   C294      1.0  0.81678  0.04728  0.79840  1.0000 0.1104394969
C   C295      1.0  0.86220  0.05680  0.68880  1.0000 0.0187056015
C   C296      1.0  0.86115  0.02125  0.70770  1.0000 -0.191396721
C   C297      1.0  0.02180  0.55364  0.20000  1.0000 0.0307207106
C   C298      1.0  0.00564  0.54974  0.10510  1.0000 -0.1587809925
C   C299      1.0  0.00953  0.58873  0.10560  1.0000 -0.191396721
C   C300      1.0  0.03001  0.61711  0.20370  1.0000 0.1483713333
C   C301      1.0  0.04133  0.66043  0.23760  1.0000 -0.0502668328
C   C302      1.0  0.06407  0.68947  0.33260  1.0000 0.1483713333
C   C303      1.0  0.07705  0.73517  0.36990  1.0000 -0.2091854317
C   C304      1.0  0.10004  0.75078  0.46450  1.0000 -0.1506950642
C   C305      1.0  0.10048  0.71540  0.48470  1.0000 0.0486950742
C   C306      1.0  0.02644  0.67804  0.16660  1.0000 0.120203995
C   C307      1.0  0.05848  0.71400  0.13680  1.0000 -0.191396721
C   C308      1.0  0.04280  0.72820  0.07220  1.0000 0.0803728314
C   C309      1.0  0.96698  0.67398  0.06940  1.0000 0.0909956971
C   C310      1.0  0.97998  0.65796  0.13330  1.0000 -0.1815698411
C   C311      1.0  0.98721  0.50755  0.38260  1.0000 0.0486950742
C   C312      1.0  0.98255  0.46737  0.38000  1.0000 -0.1310758518
C   C313      1.0  0.02652  0.48032  0.39570  1.0000 -0.2008024095
C   C314      1.0  0.05854  0.52996  0.40770  1.0000 0.1483713333
C   C315      1.0  0.10624  0.55826  0.42080  1.0000 -0.0675517375
C   C316      1.0  0.13659  0.60483  0.42410  1.0000 0.1483713333
C   C317      1.0  0.18676  0.63636  0.44580  1.0000 -0.2008024095
C   C318      1.0  0.20114  0.67974  0.44650  1.0000 -0.1310758518
C   C319      1.0  0.16050  0.67556  0.42700  1.0000 0.0486950742
C   C320      1.0  0.12923  0.53519  0.43310  1.0000 0.120203995
C   C321      1.0  0.13477  0.52465  0.51670  1.0000 -0.191396721
C   C322      1.0  0.15504  0.50396  0.52610  1.0000 0.0803728314
C   C323      1.0  0.16214  0.50226  0.37660  1.0000 0.0701261886
C   C324      1.0  0.14341  0.52439  0.36360  1.0000 -0.1815698411
C   C325      1.0  0.11269  0.64543  0.60840  1.0000 0.0397834448
C   C326      1.0  0.11706  0.66332  0.70240  1.0000 -0.1587809925
C   C327      1.0  0.07933  0.66187  0.69920  1.0000 -0.2008024095
C   C328      1.0  0.05163  0.64245  0.60120  1.0000 0.1483713333
C   C329      1.0  0.00980  0.63464  0.56420  1.0000 -0.0424988689
C   C330      1.0  0.98060  0.61094  0.46840  1.0000 0.1483713333
C   C331      1.0  0.93689  0.60031  0.42930  1.0000 -0.2091854317
C   C332      1.0  0.92010  0.57518  0.33620  1.0000 -0.1587809925
C   C333      1.0  0.95436  0.57202  0.31870  1.0000 0.0397834448
C   C334      1.0  0.99495  0.65295  0.63130  1.0000 0.120203995
C   C335      1.0  0.95323  0.62463  0.65280  1.0000 -0.2008024095
C   C336      1.0  0.94328  0.64484  0.72020  1.0000 0.0909956971
C   C337      1.0  0.01200  0.71824  0.74420  1.0000 0.0803728314
C   C338      1.0  0.02452  0.70142  0.67820  1.0000 -0.191396721
C   C339      1.0  0.68036  0.23734  0.54390  1.0000 0.0397834448
C   C340      1.0  0.66494  0.23614  0.45050  1.0000 -0.1587809925
C   C341      1.0  0.67037  0.27603  0.45850  1.0000 -0.1815698411
C   C342      1.0  0.68995  0.30175  0.55690  1.0000 0.1483713333
C   C343      1.0  0.70106  0.34468  0.59770  1.0000 -0.0583450525
C   C344      1.0  0.72168  0.37122  0.69230  1.0000 0.1483713333
C   C345      1.0  0.73615  0.41665  0.73400  1.0000 -0.2008024095
C   C346      1.0  0.75658  0.42956  0.82970  1.0000 -0.1587809925
C   C347      1.0  0.75394  0.39242  0.84610  1.0000 0.0486950742
C   C348      1.0  0.68666  0.36256  0.52900  1.0000 0.120203995
C   C349      1.0  0.71602  0.39154  0.48280  1.0000 -0.191396721
C   C350      1.0  0.69789  0.40209  0.41240  1.0000 0.0909956971
C   C351      1.0  0.62654  0.35918  0.43410  1.0000 0.0803728314
C   C352      1.0  0.64082  0.34676  0.50690  1.0000 -0.1746291267
C   C353      1.0  0.81658  0.35708  0.78730  1.0000 0.059126053
C   C354      1.0  0.85758  0.36184  0.80540  1.0000 -0.1310758518
C   C355      1.0  0.84305  0.31737  0.79350  1.0000 -0.2091854317
C   C356      1.0  0.79266  0.28558  0.76860  1.0000 0.1483713333
C   C357      1.0  0.80010  0.20842  0.67440  1.0000 -0.191396721
C   C358      1.0  0.81985  0.18693  0.67680  1.0000 0.0701261886
C   C359      1.0  0.37700  0.50116  0.11570  1.0000 0.059126053
C   C360      1.0  0.35638  0.51568  0.06270  1.0000 -0.1587809925
C   C361      1.0  0.39355  0.55981  0.06440  1.0000 -0.2091854317
C   C362      1.0  0.43559  0.57055  0.11630  1.0000 0.1483713333
C   C363      1.0  0.48189  0.61143  0.13170  1.0000 -0.0502668328
C   C364      1.0  0.52299  0.62031  0.18220  1.0000 0.1483713333
C   C365      1.0  0.57036  0.66026  0.19640  1.0000 -0.191396721
C   C366      1.0  0.59911  0.65527  0.24860  1.0000 -0.1587809925
C   C367      1.0  0.56923  0.61209  0.26540  1.0000 0.0307207106
C   C368      1.0  0.48884  0.64968  0.09670  1.0000 0.120203995
C   C369      1.0  0.48415  0.64929  0.00390  1.0000 -0.191396721
C   C370      1.0  0.49282  0.68762  0.97930  1.0000 0.0701261886
C   C371      1.0  0.50861  0.72565  0.13090  1.0000 0.0909956971
C   C372      1.0  0.50141  0.69009  0.16480  1.0000 -0.191396721
C   C373      1.0  0.52762  0.55424  0.44330  1.0000 0.059126053
C   C374      1.0  0.55613  0.54603  0.49590  1.0000 -0.1310758518
C   C375      1.0  0.55647  0.51719  0.42850  1.0000 -0.2157356637
C   C376      1.0  0.52840  0.50708  0.33860  1.0000 0.1483713333
C   C377      1.0  0.52593  0.42025  0.28670  1.0000 -0.2008024095
C   C378      1.0  0.54780  0.39970  0.28340  1.0000 0.0803728314
C   C379      1.0  0.81411  0.57629  0.92610  1.0000 0.484465803
C   C380      1.0  0.23171  0.48891  0.83910  1.0000 0.4967615483
C   C381      1.0  0.87598  0.13342  0.11970  1.0000 0.4728102265
C   C382      1.0  0.09237  0.10755  0.41320  1.0000 0.0486950742
C   C383      1.0  0.10023  0.07973  0.35950  1.0000 -0.1310758518
C   C384      1.0  0.13072  0.07932  0.42360  1.0000 -0.2091854317
C   C385      1.0  0.13987  0.10607  0.51800  1.0000 0.1483713333
C   C386      1.0  0.16659  0.11387  0.60440  1.0000 -0.0675517375
C   C387      1.0  0.17384  0.13874  0.69430  1.0000 0.1575175924
C   C388      1.0  0.19886  0.14416  0.78500  1.0000 -0.2091854317
C   C389      1.0  0.19709  0.17137  0.85160  1.0000 -0.124684048
C   C390      1.0  0.17194  0.18340  0.80360  1.0000 0.0397834448
C   C391      1.0  0.19092  0.09236  0.60130  1.0000 0.120203995
C   C392      1.0  0.16645  0.04509  0.57610  1.0000 -0.191396721
C   C393      1.0  0.19140  0.02768  0.57380  1.0000 0.0909956971
C   C394      1.0  0.26072  0.10158  0.62010  1.0000 0.1014714072
C   C395      1.0  0.23819  0.12077  0.62530  1.0000 -0.191396721
C   C396      1.0  0.03428  0.14982  0.47450  1.0000 0.059126053
C   C397      1.0  0.01882  0.17228  0.43180  1.0000 -0.1506950642
C   C398      1.0  0.05840  0.21654  0.44740  1.0000 -0.191396721
C   C399      1.0  0.09786  0.22134  0.49460  1.0000 0.1483713333
C   C400      1.0  0.14574  0.26036  0.51920  1.0000 -0.0502668328
C   C401      1.0  0.18258  0.26138  0.55850  1.0000 0.1575175924
C   C402      1.0  0.23164  0.29758  0.57300  1.0000 -0.2008024095
C   C403      1.0  0.25560  0.28298  0.60900  1.0000 -0.1587809925
C   C404      1.0  0.22130  0.23874  0.61680  1.0000 0.0307207106
C   C405      1.0  0.15715  0.30429  0.50430  1.0000 0.1104394969
C   C406      1.0  0.17218  0.31920  0.43370  1.0000 -0.191396721
C   C407      1.0  0.17879  0.35961  0.42150  1.0000 0.1014714072
C   C408      1.0  0.16421  0.37235  0.55700  1.0000 0.059126053
C   C409      1.0  0.15404  0.33160  0.57260  1.0000 -0.1815698411
C   C410      1.0  0.16415  0.26549  0.75430  1.0000 0.0307207106
C   C411      1.0  0.15119  0.28897  0.80550  1.0000 -0.1506950642
C   C412      1.0  0.10466  0.25708  0.79640  1.0000 -0.191396721
C   C413      1.0  0.08777  0.21131  0.73730  1.0000 0.1781895188
C   C414      1.0  0.04314  0.16802  0.71420  1.0000 -0.0784621584
C   C415      1.0  0.02906  0.12444  0.66930  1.0000 0.1575175924
C   C416      1.0  0.98520  0.07884  0.64960  1.0000 -0.2091854317
C   C417      1.0  0.98821  0.04615  0.60440  1.0000 -0.1506950642
C   C418      1.0  0.03259  0.07121  0.59170  1.0000 0.0187056015
C   C419      1.0  0.00587  0.16881  0.73800  1.0000 0.1409942516
C   C420      1.0  0.98811  0.18387  0.68340  1.0000 -0.1815698411
C   C421      1.0  0.95272  0.18322  0.70160  1.0000 0.1104394969
C   C422      1.0  0.94320  0.13780  0.81120  1.0000 0.0187056015
C   C423      1.0  0.97875  0.13885  0.79230  1.0000 -0.191396721
C   C424      1.0  0.44636  0.97820  0.30000  1.0000 0.0307207106
C   C425      1.0  0.45026  0.99436  0.39490  1.0000 -0.1587809925
C   C426      1.0  0.41127  0.99047  0.39440  1.0000 -0.191396721
C   C427      1.0  0.38289  0.96999  0.29630  1.0000 0.1483713333
C   C428      1.0  0.33957  0.95867  0.26240  1.0000 -0.0502668328
C   C429      1.0  0.31053  0.93593  0.16740  1.0000 0.1483713333
C   C430      1.0  0.26483  0.92295  0.13010  1.0000 -0.2091854317
C   C431      1.0  0.24922  0.89996  0.03550  1.0000 -0.1506950642
C   C432      1.0  0.28460  0.89952  0.01530  1.0000 0.0486950742
C   C433      1.0  0.32196  0.97356  0.33340  1.0000 0.120203995
C   C434      1.0  0.28600  0.94152  0.36320  1.0000 -0.191396721
C   C435      1.0  0.27180  0.95720  0.42780  1.0000 0.0803728314
C   C436      1.0  0.32602  0.03302  0.43060  1.0000 0.0909956971
C   C437      1.0  0.34204  0.02002  0.36670  1.0000 -0.1815698411
C   C438      1.0  0.49245  0.01279  0.11740  1.0000 0.0486950742
C   C439      1.0  0.53263  0.01745  0.12000  1.0000 -0.1310758518
C   C440      1.0  0.51968  0.97348  0.10430  1.0000 -0.2008024095
C   C441      1.0  0.47004  0.94146  0.09230  1.0000 0.1483713333
C   C442      1.0  0.44174  0.89376  0.07920  1.0000 -0.0675517375
C   C443      1.0  0.39517  0.86341  0.07590  1.0000 0.1483713333
C   C444      1.0  0.36364  0.81324  0.05420  1.0000 -0.2008024095
C   C445      1.0  0.32026  0.79886  0.05350  1.0000 -0.1310758518
C   C446      1.0  0.32444  0.83950  0.07300  1.0000 0.0486950742
C   C447      1.0  0.46481  0.87077  0.06690  1.0000 0.120203995
C   C448      1.0  0.47535  0.86523  0.98330  1.0000 -0.191396721
C   C449      1.0  0.49604  0.84496  0.97390  1.0000 0.0803728314
C   C450      1.0  0.49774  0.83786  0.12340  1.0000 0.0701261886
C   C451      1.0  0.47561  0.85659  0.13640  1.0000 -0.1815698411
C   C452      1.0  0.35457  0.88731  0.89160  1.0000 0.0397834448
C   C453      1.0  0.33668  0.88294  0.79760  1.0000 -0.1587809925
C   C454      1.0  0.33813  0.92067  0.80080  1.0000 -0.2008024095
C   C455      1.0  0.35755  0.94837  0.89880  1.0000 0.1483713333
C   C456      1.0  0.36536  0.99020  0.93580  1.0000 -0.0424988689
C   C457      1.0  0.38906  0.01940  0.03160  1.0000 0.1483713333
C   C458      1.0  0.39969  0.06311  0.07070  1.0000 -0.2091854317
C   C459      1.0  0.42482  0.07990  0.16380  1.0000 -0.1587809925
C   C460      1.0  0.42798  0.04564  0.18130  1.0000 0.0397834448
C   C461      1.0  0.34705  0.00505  0.86870  1.0000 0.120203995
C   C462      1.0  0.37537  0.04677  0.84720  1.0000 -0.2008024095
C   C463      1.0  0.35516  0.05672  0.77980  1.0000 0.0909956971
C   C464      1.0  0.28176  0.98800  0.75580  1.0000 0.0803728314
C   C465      1.0  0.29858  0.97548  0.82180  1.0000 -0.191396721
C   C466      1.0  0.76266  0.31964  0.95610  1.0000 0.0397834448
C   C467      1.0  0.76386  0.33506  0.04950  1.0000 -0.1587809925
C   C468      1.0  0.72397  0.32963  0.04150  1.0000 -0.1815698411
C   C469      1.0  0.69825  0.31005  0.94310  1.0000 0.1483713333
C   C470      1.0  0.65532  0.29894  0.90230  1.0000 -0.0583450525
C   C471      1.0  0.62878  0.27832  0.80770  1.0000 0.1483713333
C   C472      1.0  0.58335  0.26385  0.76600  1.0000 -0.2008024095
C   C473      1.0  0.57044  0.24342  0.67030  1.0000 -0.1587809925
C   C474      1.0  0.60758  0.24606  0.65390  1.0000 0.0486950742
C   C475      1.0  0.63744  0.31334  0.97100  1.0000 0.120203995
C   C476      1.0  0.60846  0.28398  0.01720  1.0000 -0.191396721
C   C477      1.0  0.59791  0.30211  0.08760  1.0000 0.0909956971
C   C478      1.0  0.64082  0.37346  0.06590  1.0000 0.0803728314
C   C479      1.0  0.65324  0.35918  0.99310  1.0000 -0.1746291267
C   C480      1.0  0.64292  0.18342  0.71270  1.0000 0.059126053
C   C481      1.0  0.63816  0.14242  0.69460  1.0000 -0.1310758518
C   C482      1.0  0.68263  0.15695  0.70650  1.0000 -0.2091854317
C   C483      1.0  0.71442  0.20734  0.73140  1.0000 0.1483713333
C   C484      1.0  0.79158  0.19990  0.82560  1.0000 -0.191396721
C   C485      1.0  0.81307  0.18015  0.82320  1.0000 0.0701261886
C   C486      1.0  0.49884  0.62300  0.38430  1.0000 0.059126053
C   C487      1.0  0.48432  0.64362  0.43730  1.0000 -0.1587809925
C   C488      1.0  0.44019  0.60645  0.43560  1.0000 -0.2091854317
C   C489      1.0  0.42945  0.56441  0.38370  1.0000 0.1483713333
C   C490      1.0  0.38857  0.51811  0.36830  1.0000 -0.0502668328
C   C491      1.0  0.37969  0.47701  0.31780  1.0000 0.1483713333
C   C492      1.0  0.33974  0.42964  0.30360  1.0000 -0.191396721
C   C493      1.0  0.34473  0.40089  0.25140  1.0000 -0.1587809925
C   C494      1.0  0.38791  0.43077  0.23460  1.0000 0.0307207106
C   C495      1.0  0.35032  0.51116  0.40330  1.0000 0.120203995
C   C496      1.0  0.35071  0.51585  0.49610  1.0000 -0.191396721
C   C497      1.0  0.31238  0.50718  0.52070  1.0000 0.0701261886
C   C498      1.0  0.27435  0.49139  0.36910  1.0000 0.0909956971
C   C499      1.0  0.30991  0.49859  0.33520  1.0000 -0.191396721
C   C500      1.0  0.44576  0.47238  0.05670  1.0000 0.059126053
C   C501      1.0  0.45397  0.44387  0.00410  1.0000 -0.1310758518
C   C502      1.0  0.48281  0.44353  0.07150  1.0000 -0.2157356637
C   C503      1.0  0.49292  0.47160  0.16140  1.0000 0.1483713333
C   C504      1.0  0.57975  0.47407  0.21330  1.0000 -0.2008024095
C   C505      1.0  0.60030  0.45220  0.21660  1.0000 0.0803728314
C   C506      1.0  0.42371  0.18589  0.57390  1.0000 0.484465803
C   C507      1.0  0.51109  0.76829  0.66090  1.0000 0.4967615483
C   C508      1.0  0.86658  0.12402  0.38030  1.0000 0.4728102265
C   C509      1.0  0.23739  0.76261  0.25000  1.0000 -0.0675517375
C   C510      1.0  0.21501  0.78499  0.25000  1.0000 0.1278492103
C   C511      1.0  0.76261  0.23739  0.75000  1.0000 -0.0675517375
C   C512      1.0  0.78499  0.21501  0.75000  1.0000 0.1278492103
C   C513      1.0  0.48017  0.51983  0.75000  1.0000 -0.0502668328
C   C514      1.0  0.45773  0.54227  0.75000  1.0000 0.120203995
C   C515      1.0  0.51983  0.48017  0.25000  1.0000 -0.0502668328
C   C516      1.0  0.54227  0.45773  0.25000  1.0000 0.120203995
S   S1        1.0  0.16215  0.39705  0.16234  1.0000 0.9897843105
S   S2        1.0  0.75087  0.48555  0.25659  1.0000 0.9897843105
S   S3        1.0  0.10459  0.84487  0.97395  1.0000 1.0034189177
S   S4        1.0  0.60295  0.83785  0.33766  1.0000 0.9897843105
S   S5        1.0  0.51445  0.24913  0.24341  1.0000 0.9897843105
S   S6        1.0  0.15513  0.89541  0.52605  1.0000 1.0034189177
S   S7        1.0  0.83785  0.60295  0.83766  1.0000 0.9897843105
S   S8        1.0  0.24913  0.51445  0.74341  1.0000 0.9897843105
S   S9        1.0  0.89541  0.15513  0.02605  1.0000 1.0034189177
S   S10       1.0  0.39705  0.16215  0.66234  1.0000 0.9897843105
S   S11       1.0  0.48555  0.75087  0.75659  1.0000 0.9897843105
S   S12       1.0  0.84487  0.10459  0.47395  1.0000 1.0034189177
N   N1        1.0  0.12280  0.11446  0.00710  1.0000 -0.3501260096
N   N2        1.0  0.16326  0.15724  0.20810  1.0000 -0.3501260096
N   N3        1.0  0.05618  0.23782  0.09520  1.0000 -0.191396721
N   N4        1.0  0.17828  0.08066  0.01220  1.0000 -0.3411365397
N   N5        1.0  0.22531  0.17779  0.08700  1.0000 -0.3501260096
N   N6        1.0  0.38670  0.17726  0.98120  1.0000 -0.2008024095
N   N7        1.0  0.21863  0.12549  0.21330  1.0000 -0.3501260096
N   N8        1.0  0.11894  0.05862  0.13090  1.0000 -0.3602820433
N   N9        1.0  0.16983  0.93549  0.26890  1.0000 -0.2008024095
N   N10       1.0  0.96279  0.40529  0.74010  1.0000 -0.3411365397
N   N11       1.0  0.92098  0.32124  0.59260  1.0000 -0.3411365397
N   N12       1.0  0.00245  0.29157  0.96190  1.0000 -0.191396721
N   N13       1.0  0.96768  0.45432  0.60110  1.0000 -0.3501260096
N   N14       1.0  0.87890  0.36864  0.58710  1.0000 -0.3602820433
N   N15       1.0  0.49280  0.16802  0.95680  1.0000 -0.2008024095
N   N16       1.0  0.92615  0.36721  0.45270  1.0000 -0.3411365397
N   N17       1.0  0.00922  0.40724  0.60260  1.0000 -0.3501260096
N   N18       1.0  0.02786  0.30926  0.23380  1.0000 -0.2008024095
N   N19       1.0  0.30453  0.72381  0.39200  1.0000 -0.3411365397
N   N20       1.0  0.26648  0.64304  0.23490  1.0000 -0.3501260096
N   N21       1.0  0.34564  0.61432  0.61300  1.0000 -0.191396721
N   N22       1.0  0.22206  0.68752  0.23414  1.0000 -0.3501260096
N   N23       1.0  0.57678  0.46720  0.85190  1.0000 -0.3411365397
N   N24       1.0  0.47695  0.41035  0.77380  1.0000 -0.3602820433
N   N25       1.0  0.49451  0.27399  0.95750  1.0000 -0.2091854317
N   N26       1.0  0.48866  0.46840  0.64850  1.0000 -0.3501260096
N   N27       1.0  0.88554  0.87720  0.49290  1.0000 -0.3501260096
N   N28       1.0  0.84276  0.83674  0.29190  1.0000 -0.3501260096
N   N29       1.0  0.76218  0.94382  0.40480  1.0000 -0.191396721
N   N30       1.0  0.91934  0.82172  0.48780  1.0000 -0.3411365397
N   N31       1.0  0.82221  0.77469  0.41300  1.0000 -0.3501260096
N   N32       1.0  0.82274  0.61330  0.51880  1.0000 -0.2008024095
N   N33       1.0  0.87451  0.78137  0.28670  1.0000 -0.3501260096
N   N34       1.0  0.94138  0.88106  0.36910  1.0000 -0.3602820433
N   N35       1.0  0.06451  0.83017  0.23110  1.0000 -0.2008024095
N   N36       1.0  0.59471  0.03721  0.75990  1.0000 -0.3411365397
N   N37       1.0  0.67876  0.07902  0.90740  1.0000 -0.3411365397
N   N38       1.0  0.70843  0.99755  0.53810  1.0000 -0.191396721
N   N39       1.0  0.54568  0.03232  0.89890  1.0000 -0.3501260096
N   N40       1.0  0.63136  0.12110  0.91290  1.0000 -0.3602820433
N   N41       1.0  0.83198  0.50720  0.54320  1.0000 -0.2008024095
N   N42       1.0  0.63279  0.07385  0.04730  1.0000 -0.3411365397
N   N43       1.0  0.59276  0.99078  0.89740  1.0000 -0.3501260096
N   N44       1.0  0.69074  0.97214  0.26620  1.0000 -0.2008024095
N   N45       1.0  0.27619  0.69547  0.10800  1.0000 -0.3411365397
N   N46       1.0  0.35696  0.73352  0.26510  1.0000 -0.3501260096
N   N47       1.0  0.38568  0.65436  0.88700  1.0000 -0.191396721
N   N48       1.0  0.31248  0.77794  0.26586  1.0000 -0.3501260096
N   N49       1.0  0.53280  0.42322  0.64810  1.0000 -0.3411365397
N   N50       1.0  0.58965  0.52305  0.72620  1.0000 -0.3602820433
N   N51       1.0  0.72601  0.50549  0.54250  1.0000 -0.2091854317
N   N52       1.0  0.53160  0.51134  0.85150  1.0000 -0.3501260096
N   N53       1.0  0.87720  0.88554  0.99290  1.0000 -0.3501260096
N   N54       1.0  0.83674  0.84276  0.79190  1.0000 -0.3501260096
N   N55       1.0  0.94382  0.76218  0.90480  1.0000 -0.191396721
N   N56       1.0  0.82172  0.91934  0.98780  1.0000 -0.3411365397
N   N57       1.0  0.77469  0.82221  0.91300  1.0000 -0.3501260096
N   N58       1.0  0.61330  0.82274  0.01880  1.0000 -0.2008024095
N   N59       1.0  0.78137  0.87451  0.78670  1.0000 -0.3501260096
N   N60       1.0  0.88106  0.94138  0.86910  1.0000 -0.3602820433
N   N61       1.0  0.83017  0.06451  0.73110  1.0000 -0.2008024095
N   N62       1.0  0.03721  0.59471  0.25990  1.0000 -0.3411365397
N   N63       1.0  0.07902  0.67876  0.40740  1.0000 -0.3411365397
N   N64       1.0  0.99755  0.70843  0.03810  1.0000 -0.191396721
N   N65       1.0  0.03232  0.54568  0.39890  1.0000 -0.3501260096
N   N66       1.0  0.12110  0.63136  0.41290  1.0000 -0.3602820433
N   N67       1.0  0.50720  0.83198  0.04320  1.0000 -0.2008024095
N   N68       1.0  0.07385  0.63279  0.54730  1.0000 -0.3411365397
N   N69       1.0  0.99078  0.59276  0.39740  1.0000 -0.3501260096
N   N70       1.0  0.97214  0.69074  0.76620  1.0000 -0.2008024095
N   N71       1.0  0.69547  0.27619  0.60800  1.0000 -0.3411365397
N   N72       1.0  0.73352  0.35696  0.76510  1.0000 -0.3501260096
N   N73       1.0  0.65436  0.38568  0.38700  1.0000 -0.191396721
N   N74       1.0  0.77794  0.31248  0.76586  1.0000 -0.3501260096
N   N75       1.0  0.42322  0.53280  0.14810  1.0000 -0.3411365397
N   N76       1.0  0.52305  0.58965  0.22620  1.0000 -0.3602820433
N   N77       1.0  0.50549  0.72601  0.04250  1.0000 -0.2091854317
N   N78       1.0  0.51134  0.53160  0.35150  1.0000 -0.3501260096
N   N79       1.0  0.11446  0.12280  0.50710  1.0000 -0.3501260096
N   N80       1.0  0.15724  0.16326  0.70810  1.0000 -0.3501260096
N   N81       1.0  0.23782  0.05618  0.59520  1.0000 -0.191396721
N   N82       1.0  0.08066  0.17828  0.51220  1.0000 -0.3411365397
N   N83       1.0  0.17779  0.22531  0.58700  1.0000 -0.3501260096
N   N84       1.0  0.17726  0.38670  0.48120  1.0000 -0.2008024095
N   N85       1.0  0.12549  0.21863  0.71330  1.0000 -0.3501260096
N   N86       1.0  0.05862  0.11894  0.63090  1.0000 -0.3602820433
N   N87       1.0  0.93549  0.16983  0.76890  1.0000 -0.2008024095
N   N88       1.0  0.40529  0.96279  0.24010  1.0000 -0.3411365397
N   N89       1.0  0.32124  0.92098  0.09260  1.0000 -0.3411365397
N   N90       1.0  0.29157  0.00245  0.46190  1.0000 -0.191396721
N   N91       1.0  0.45432  0.96768  0.10110  1.0000 -0.3501260096
N   N92       1.0  0.36864  0.87890  0.08710  1.0000 -0.3602820433
N   N93       1.0  0.16802  0.49280  0.45680  1.0000 -0.2008024095
N   N94       1.0  0.36721  0.92615  0.95270  1.0000 -0.3411365397
N   N95       1.0  0.40724  0.00922  0.10260  1.0000 -0.3501260096
N   N96       1.0  0.30926  0.02786  0.73380  1.0000 -0.2008024095
N   N97       1.0  0.72381  0.30453  0.89200  1.0000 -0.3411365397
N   N98       1.0  0.64304  0.26648  0.73490  1.0000 -0.3501260096
N   N99       1.0  0.61432  0.34564  0.11300  1.0000 -0.191396721
N   N100      1.0  0.68752  0.22206  0.73414  1.0000 -0.3501260096
N   N101      1.0  0.46720  0.57678  0.35190  1.0000 -0.3411365397
N   N102      1.0  0.41035  0.47695  0.27380  1.0000 -0.3602820433
N   N103      1.0  0.27399  0.49451  0.45750  1.0000 -0.2091854317
N   N104      1.0  0.46840  0.48866  0.14850  1.0000 -0.3501260096
N   N105      1.0  0.17311  0.82689  0.25000  1.0000 -0.2008024095
N   N106      1.0  0.82689  0.17311  0.75000  1.0000 -0.2008024095
N   N107      1.0  0.41602  0.58398  0.75000  1.0000 -0.2008024095
N   N108      1.0  0.58398  0.41602  0.25000  1.0000 -0.2008024095
O   O1        1.0  0.19133  0.38631  0.19870  1.0000 -0.5711164169
O   O2        1.0  0.16740  0.43362  0.22690  1.0000 -0.5802962171
O   O3        1.0  0.11408  0.35650  0.10940  1.0000 -0.5904108929
O   O4        1.0  0.70647  0.47505  0.25000  1.0000 -0.5904108929
O   O5        1.0  0.79000  0.52302  0.33980  1.0000 -0.5711164169
O   O6        1.0  0.74823  0.44521  0.23260  1.0000 -0.5711164169
O   O7        1.0  0.06018  0.80052  0.94130  1.0000 -0.5226510512
O   O8        1.0  0.14080  0.85624  0.04950  1.0000 -0.5334583866
O   O9        1.0  0.09394  0.88362  0.00860  1.0000 -0.6168377745
O   O10       1.0  0.61369  0.80867  0.30130  1.0000 -0.5711164169
O   O11       1.0  0.56638  0.83260  0.27310  1.0000 -0.5802962171
O   O12       1.0  0.64350  0.88592  0.39060  1.0000 -0.5904108929
O   O13       1.0  0.52495  0.29353  0.25000  1.0000 -0.5904108929
O   O14       1.0  0.47698  0.21000  0.16020  1.0000 -0.5802962171
O   O15       1.0  0.55479  0.25177  0.26740  1.0000 -0.5711164169
O   O16       1.0  0.19948  0.93982  0.55870  1.0000 -0.5226510512
O   O17       1.0  0.14376  0.85920  0.45050  1.0000 -0.5334583866
O   O18       1.0  0.11638  0.90606  0.49140  1.0000 -0.6168377745
O   O19       1.0  0.80867  0.61369  0.80130  1.0000 -0.5711164169
O   O20       1.0  0.83260  0.56638  0.77310  1.0000 -0.5802962171
O   O21       1.0  0.88592  0.64350  0.89060  1.0000 -0.5904108929
O   O22       1.0  0.29353  0.52495  0.75000  1.0000 -0.5904108929
O   O23       1.0  0.21000  0.47698  0.66020  1.0000 -0.5711164169
O   O24       1.0  0.25177  0.55479  0.76740  1.0000 -0.5711164169
O   O25       1.0  0.93982  0.19948  0.05870  1.0000 -0.5226510512
O   O26       1.0  0.85920  0.14376  0.95050  1.0000 -0.5334583866
O   O27       1.0  0.90606  0.11638  0.99140  1.0000 -0.6168377745
O   O28       1.0  0.38631  0.19133  0.69870  1.0000 -0.5711164169
O   O29       1.0  0.43362  0.16740  0.72690  1.0000 -0.5802962171
O   O30       1.0  0.35650  0.11408  0.60940  1.0000 -0.5904108929
O   O31       1.0  0.47505  0.70647  0.75000  1.0000 -0.5904108929
O   O32       1.0  0.52302  0.79000  0.83980  1.0000 -0.5711164169
O   O33       1.0  0.44521  0.74823  0.73260  1.0000 -0.5711164169
O   O34       1.0  0.80052  0.06018  0.44130  1.0000 -0.5226510512
O   O35       1.0  0.85624  0.14080  0.54950  1.0000 -0.5334583866
O   O36       1.0  0.88362  0.09394  0.50860  1.0000 -0.6168377745
F   F1        1.0  0.16316  0.43632  0.03380  1.0000 -0.1815698411
F   F2        1.0  0.18240  0.39432  0.00480  1.0000 -0.2008024095
F   F3        1.0  0.23059  0.46265  0.11050  1.0000 -0.191396721
F   F4        1.0  0.80811  0.52231  0.15490  1.0000 -0.191396721
F   F5        1.0  0.77265  0.54929  0.17280  1.0000 -0.191396721
F   F6        1.0  0.73560  0.48120  0.07760  1.0000 -0.191396721
F   F7        1.0  0.16045  0.91481  0.92260  1.0000 -0.191396721
F   F8        1.0  0.09079  0.86481  0.82470  1.0000 -0.2008024095
F   F9        1.0  0.13154  0.83720  0.85560  1.0000 -0.236719166
F   F10       1.0  0.56368  0.83684  0.46620  1.0000 -0.1815698411
F   F11       1.0  0.60568  0.81760  0.49520  1.0000 -0.191396721
F   F12       1.0  0.53735  0.76941  0.38950  1.0000 -0.191396721
F   F13       1.0  0.47769  0.19189  0.34510  1.0000 -0.191396721
F   F14       1.0  0.45071  0.22735  0.32720  1.0000 -0.191396721
F   F15       1.0  0.51880  0.26440  0.42240  1.0000 -0.191396721
F   F16       1.0  0.08519  0.83955  0.57740  1.0000 -0.191396721
F   F17       1.0  0.13519  0.90921  0.67530  1.0000 -0.2008024095
F   F18       1.0  0.16280  0.86846  0.64440  1.0000 -0.2343896376
F   F19       1.0  0.83684  0.56368  0.96620  1.0000 -0.1815698411
F   F20       1.0  0.81760  0.60568  0.99520  1.0000 -0.191396721
F   F21       1.0  0.76941  0.53735  0.88950  1.0000 -0.191396721
F   F22       1.0  0.19189  0.47769  0.84510  1.0000 -0.191396721
F   F23       1.0  0.22735  0.45071  0.82720  1.0000 -0.191396721
F   F24       1.0  0.26440  0.51880  0.92240  1.0000 -0.191396721
F   F25       1.0  0.83955  0.08519  0.07740  1.0000 -0.191396721
F   F26       1.0  0.90921  0.13519  0.17530  1.0000 -0.2008024095
F   F27       1.0  0.86846  0.16280  0.14440  1.0000 -0.236719166
F   F28       1.0  0.43632  0.16316  0.53380  1.0000 -0.1815698411
F   F29       1.0  0.39432  0.18240  0.50480  1.0000 -0.191396721
F   F30       1.0  0.46265  0.23059  0.61050  1.0000 -0.191396721
F   F31       1.0  0.52231  0.80811  0.65490  1.0000 -0.191396721
F   F32       1.0  0.54929  0.77265  0.67280  1.0000 -0.191396721
F   F33       1.0  0.48120  0.73560  0.57760  1.0000 -0.191396721
F   F34       1.0  0.91481  0.16045  0.42260  1.0000 -0.191396721
F   F35       1.0  0.86481  0.09079  0.32470  1.0000 -0.2008024095
F   F36       1.0  0.83720  0.13154  0.35560  1.0000 -0.236719166
