# DDEC6 charges by PACMAN v1.1 (https://github.com/mtap-research/PACMAN-charge/)
data_2007[Mn][the]3[ION]1
_chemical_formula_sum              "Mn12 H96 C192 N120 Cl3 O12"
_cell_length_a       25.2317
_cell_length_b       25.2317
_cell_length_c       25.2317
_cell_angle_alpha    109.471
_cell_angle_beta     109.471
_cell_angle_gamma    109.471

_symmetry_space_group_name_H-M    "P 1"
_symmetry_Int_Tables_number       1

loop_
  _symmetry_equiv_pos_as_xyz
  'x, y, z'

loop_
  _atom_site_type_symbol
  _atom_site_label
  _atom_site_symmetry_multiplicity
  _atom_site_fract_x
  _atom_site_fract_y
  _atom_site_fract_z
  _atom_site_occupancy
  _atom_site_charge
Mn  Mn1       1.0  0.09420  0.59420  0.50000  1.0000 0.6315715862
Mn  Mn2       1.0  0.90580  0.40580  0.50000  1.0000 0.6315715862
Mn  Mn3       1.0  0.50000  0.09420  0.59420  1.0000 0.6315715862
Mn  Mn4       1.0  0.50000  0.90580  0.40580  1.0000 0.6315715862
Mn  Mn5       1.0  0.59420  0.50000  0.09420  1.0000 0.6315715862
Mn  Mn6       1.0  0.40580  0.50000  0.90580  1.0000 0.6315715862
Mn  Mn7       1.0  0.40580  0.90580  0.50000  1.0000 0.6315715862
Mn  Mn8       1.0  0.59420  0.09420  0.50000  1.0000 0.6315715862
Mn  Mn9       1.0  0.09420  0.50000  0.59420  1.0000 0.6315715862
Mn  Mn10      1.0  0.90580  0.50000  0.40580  1.0000 0.6315715862
Mn  Mn11      1.0  0.50000  0.59420  0.09420  1.0000 0.6315715862
Mn  Mn12      1.0  0.50000  0.40580  0.90580  1.0000 0.6315715862
H   H1        1.0  0.27090  0.44660  0.54290  1.0000 0.126311571
H   H2        1.0  0.34690  0.42560  0.52430  1.0000 0.1240772856
H   H3        1.0  0.90370  0.72800  0.45710  1.0000 0.126311571
H   H4        1.0  0.90130  0.82260  0.47570  1.0000 0.1240772856
H   H5        1.0  0.09630  0.55340  0.82430  1.0000 0.126311571
H   H6        1.0  0.09870  0.57440  0.92130  1.0000 0.1240772856
H   H7        1.0  0.72910  0.27200  0.17570  1.0000 0.126311571
H   H8        1.0  0.65310  0.17740  0.07870  1.0000 0.1240772856
H   H9        1.0  0.54290  0.27090  0.44660  1.0000 0.126311571
H   H10       1.0  0.52430  0.34690  0.42560  1.0000 0.1240772856
H   H11       1.0  0.45710  0.90370  0.72800  1.0000 0.126311571
H   H12       1.0  0.47570  0.90130  0.82260  1.0000 0.1240772856
H   H13       1.0  0.82430  0.09630  0.55340  1.0000 0.126311571
H   H14       1.0  0.92130  0.09870  0.57440  1.0000 0.1240772856
H   H15       1.0  0.17570  0.72910  0.27200  1.0000 0.126311571
H   H16       1.0  0.07870  0.65310  0.17740  1.0000 0.1240772856
H   H17       1.0  0.44660  0.54290  0.27090  1.0000 0.126311571
H   H18       1.0  0.42560  0.52430  0.34690  1.0000 0.1240772856
H   H19       1.0  0.72800  0.45710  0.90370  1.0000 0.126311571
H   H20       1.0  0.82260  0.47570  0.90130  1.0000 0.1240772856
H   H21       1.0  0.55340  0.82430  0.09630  1.0000 0.126311571
H   H22       1.0  0.57440  0.92130  0.09870  1.0000 0.1240772856
H   H23       1.0  0.27200  0.17570  0.72910  1.0000 0.126311571
H   H24       1.0  0.17740  0.07870  0.65310  1.0000 0.1240772856
H   H25       1.0  0.27200  0.09630  0.54290  1.0000 0.126311571
H   H26       1.0  0.17740  0.09870  0.52430  1.0000 0.1240772856
H   H27       1.0  0.55340  0.72910  0.45710  1.0000 0.126311571
H   H28       1.0  0.57440  0.65310  0.47570  1.0000 0.1240772856
H   H29       1.0  0.72800  0.27090  0.82430  1.0000 0.126311571
H   H30       1.0  0.82260  0.34690  0.92130  1.0000 0.1240772856
H   H31       1.0  0.44660  0.90370  0.17570  1.0000 0.126311571
H   H32       1.0  0.42560  0.90130  0.07870  1.0000 0.1240772856
H   H33       1.0  0.90370  0.17570  0.44660  1.0000 0.126311571
H   H34       1.0  0.90130  0.07870  0.42560  1.0000 0.1240772856
H   H35       1.0  0.27090  0.82430  0.72800  1.0000 0.126311571
H   H36       1.0  0.34690  0.92130  0.82260  1.0000 0.1240772856
H   H37       1.0  0.72910  0.45710  0.55340  1.0000 0.126311571
H   H38       1.0  0.65310  0.47570  0.57440  1.0000 0.1240772856
H   H39       1.0  0.09630  0.54290  0.27200  1.0000 0.126311571
H   H40       1.0  0.09870  0.52430  0.17740  1.0000 0.1240772856
H   H41       1.0  0.82430  0.72800  0.27090  1.0000 0.126311571
H   H42       1.0  0.92130  0.82260  0.34690  1.0000 0.1240772856
H   H43       1.0  0.17570  0.44660  0.90370  1.0000 0.126311571
H   H44       1.0  0.07870  0.42560  0.90130  1.0000 0.1240772856
H   H45       1.0  0.54290  0.27200  0.09630  1.0000 0.126311571
H   H46       1.0  0.52430  0.17740  0.09870  1.0000 0.126311571
H   H47       1.0  0.45710  0.55340  0.72910  1.0000 0.126311571
H   H48       1.0  0.47570  0.57440  0.65310  1.0000 0.1240772856
H   H49       1.0  0.72910  0.55340  0.45710  1.0000 0.126311571
H   H50       1.0  0.65310  0.57440  0.47570  1.0000 0.1240772856
H   H51       1.0  0.09630  0.27200  0.54290  1.0000 0.126311571
H   H52       1.0  0.09870  0.17740  0.52430  1.0000 0.1240772856
H   H53       1.0  0.90370  0.44660  0.17570  1.0000 0.126311571
H   H54       1.0  0.90130  0.42560  0.07870  1.0000 0.126311571
H   H55       1.0  0.27090  0.72800  0.82430  1.0000 0.126311571
H   H56       1.0  0.34690  0.82260  0.92130  1.0000 0.1240772856
H   H57       1.0  0.45710  0.72910  0.55340  1.0000 0.126311571
H   H58       1.0  0.47570  0.65310  0.57440  1.0000 0.1240772856
H   H59       1.0  0.54290  0.09630  0.27200  1.0000 0.126311571
H   H60       1.0  0.52430  0.09870  0.17740  1.0000 0.1240772856
H   H61       1.0  0.17570  0.90370  0.44660  1.0000 0.126311571
H   H62       1.0  0.07870  0.90130  0.42560  1.0000 0.1240772856
H   H63       1.0  0.82430  0.27090  0.72800  1.0000 0.126311571
H   H64       1.0  0.92130  0.34690  0.82260  1.0000 0.1240772856
H   H65       1.0  0.55340  0.45710  0.72910  1.0000 0.126311571
H   H66       1.0  0.57440  0.47570  0.65310  1.0000 0.1240772856
H   H67       1.0  0.27200  0.54290  0.09630  1.0000 0.126311571
H   H68       1.0  0.17740  0.52430  0.09870  1.0000 0.1240772856
H   H69       1.0  0.44660  0.17570  0.90370  1.0000 0.126311571
H   H70       1.0  0.42560  0.07870  0.90130  1.0000 0.1240772856
H   H71       1.0  0.72800  0.82430  0.27090  1.0000 0.126311571
H   H72       1.0  0.82260  0.92130  0.34690  1.0000 0.1240772856
H   H73       1.0  0.72800  0.90370  0.45710  1.0000 0.126311571
H   H74       1.0  0.82260  0.90130  0.47570  1.0000 0.1240772856
H   H75       1.0  0.44660  0.27090  0.54290  1.0000 0.126311571
H   H76       1.0  0.42560  0.34690  0.52430  1.0000 0.1240772856
H   H77       1.0  0.27200  0.72910  0.17570  1.0000 0.126311571
H   H78       1.0  0.17740  0.65310  0.07870  1.0000 0.1240772856
H   H79       1.0  0.55340  0.09630  0.82430  1.0000 0.126311571
H   H80       1.0  0.57440  0.09870  0.92130  1.0000 0.1240772856
H   H81       1.0  0.09630  0.82430  0.55340  1.0000 0.126311571
H   H82       1.0  0.09870  0.92130  0.57440  1.0000 0.1240772856
H   H83       1.0  0.72910  0.17570  0.27200  1.0000 0.126311571
H   H84       1.0  0.65310  0.07870  0.17740  1.0000 0.1240772856
H   H85       1.0  0.27090  0.54290  0.44660  1.0000 0.126311571
H   H86       1.0  0.34690  0.52430  0.42560  1.0000 0.1240772856
H   H87       1.0  0.90370  0.45710  0.72800  1.0000 0.126311571
H   H88       1.0  0.90130  0.47570  0.82260  1.0000 0.1240772856
H   H89       1.0  0.17570  0.27200  0.72910  1.0000 0.126311571
H   H90       1.0  0.07870  0.17740  0.65310  1.0000 0.1240772856
H   H91       1.0  0.82430  0.55340  0.09630  1.0000 0.126311571
H   H92       1.0  0.92130  0.57440  0.09870  1.0000 0.1240772856
H   H93       1.0  0.45710  0.72800  0.90370  1.0000 0.126311571
H   H94       1.0  0.47570  0.82260  0.90130  1.0000 0.1240772856
H   H95       1.0  0.54290  0.44660  0.27090  1.0000 0.126311571
H   H96       1.0  0.52430  0.42560  0.34690  1.0000 0.1240772856
C   C1        1.0  0.28590  0.46170  0.51800  1.0000 -0.109962793
C   C2        1.0  0.33130  0.44890  0.50700  1.0000 -0.109962793
C   C3        1.0  0.94370  0.76790  0.48200  1.0000 -0.109962793
C   C4        1.0  0.94190  0.82430  0.49300  1.0000 -0.109962793
C   C5        1.0  0.05630  0.53830  0.82420  1.0000 -0.109962793
C   C6        1.0  0.05810  0.55110  0.88240  1.0000 -0.109962793
C   C7        1.0  0.71410  0.23210  0.17580  1.0000 -0.109962793
C   C8        1.0  0.66870  0.17570  0.11760  1.0000 -0.109962793
C   C9        1.0  0.51800  0.28590  0.46170  1.0000 -0.109962793
C   C10       1.0  0.50700  0.33130  0.44890  1.0000 -0.109962793
C   C11       1.0  0.48200  0.94370  0.76790  1.0000 -0.109962793
C   C12       1.0  0.49300  0.94190  0.82430  1.0000 -0.109962793
C   C13       1.0  0.82420  0.05630  0.53830  1.0000 -0.109962793
C   C14       1.0  0.88240  0.05810  0.55110  1.0000 -0.109962793
C   C15       1.0  0.17580  0.71410  0.23210  1.0000 -0.109962793
C   C16       1.0  0.11760  0.66870  0.17570  1.0000 -0.109962793
C   C17       1.0  0.46170  0.51800  0.28590  1.0000 -0.109962793
C   C18       1.0  0.44890  0.50700  0.33130  1.0000 -0.109962793
C   C19       1.0  0.76790  0.48200  0.94370  1.0000 -0.109962793
C   C20       1.0  0.82430  0.49300  0.94190  1.0000 -0.109962793
C   C21       1.0  0.53830  0.82420  0.05630  1.0000 -0.109962793
C   C22       1.0  0.55110  0.88240  0.05810  1.0000 -0.109962793
C   C23       1.0  0.23210  0.17580  0.71410  1.0000 -0.109962793
C   C24       1.0  0.17570  0.11760  0.66870  1.0000 -0.109962793
C   C25       1.0  0.23210  0.05630  0.51800  1.0000 -0.109962793
C   C26       1.0  0.17570  0.05810  0.50700  1.0000 -0.109962793
C   C27       1.0  0.53830  0.71410  0.48200  1.0000 -0.115129103
C   C28       1.0  0.55110  0.66870  0.49300  1.0000 -0.109962793
C   C29       1.0  0.76790  0.28590  0.82420  1.0000 -0.109962793
C   C30       1.0  0.82430  0.33130  0.88240  1.0000 -0.109962793
C   C31       1.0  0.46170  0.94370  0.17580  1.0000 -0.109962793
C   C32       1.0  0.44890  0.94190  0.11760  1.0000 -0.109962793
C   C33       1.0  0.94370  0.17580  0.46170  1.0000 -0.109962793
C   C34       1.0  0.94190  0.11760  0.44890  1.0000 -0.109962793
C   C35       1.0  0.28590  0.82420  0.76790  1.0000 -0.109962793
C   C36       1.0  0.33130  0.88240  0.82430  1.0000 -0.109962793
C   C37       1.0  0.71410  0.48200  0.53830  1.0000 -0.109962793
C   C38       1.0  0.66870  0.49300  0.55110  1.0000 -0.109962793
C   C39       1.0  0.05630  0.51800  0.23210  1.0000 -0.115129103
C   C40       1.0  0.05810  0.50700  0.17570  1.0000 -0.109962793
C   C41       1.0  0.82420  0.76790  0.28590  1.0000 -0.109962793
C   C42       1.0  0.88240  0.82430  0.33130  1.0000 -0.109962793
C   C43       1.0  0.17580  0.46170  0.94370  1.0000 -0.109962793
C   C44       1.0  0.11760  0.44890  0.94190  1.0000 -0.109962793
C   C45       1.0  0.51800  0.23210  0.05630  1.0000 -0.109962793
C   C46       1.0  0.50700  0.17570  0.05810  1.0000 -0.109962793
C   C47       1.0  0.48200  0.53830  0.71410  1.0000 -0.109962793
C   C48       1.0  0.49300  0.55110  0.66870  1.0000 -0.109962793
C   C49       1.0  0.71410  0.53830  0.48200  1.0000 -0.109962793
C   C50       1.0  0.66870  0.55110  0.49300  1.0000 -0.109962793
C   C51       1.0  0.05630  0.23210  0.51800  1.0000 -0.109962793
C   C52       1.0  0.05810  0.17570  0.50700  1.0000 -0.109962793
C   C53       1.0  0.94370  0.46170  0.17580  1.0000 -0.109962793
C   C54       1.0  0.94190  0.44890  0.11760  1.0000 -0.109962793
C   C55       1.0  0.28590  0.76790  0.82420  1.0000 -0.109962793
C   C56       1.0  0.33130  0.82430  0.88240  1.0000 -0.109962793
C   C57       1.0  0.48200  0.71410  0.53830  1.0000 -0.115129103
C   C58       1.0  0.49300  0.66870  0.55110  1.0000 -0.109962793
C   C59       1.0  0.51800  0.05630  0.23210  1.0000 -0.109962793
C   C60       1.0  0.50700  0.05810  0.17570  1.0000 -0.109962793
C   C61       1.0  0.17580  0.94370  0.46170  1.0000 -0.109962793
C   C62       1.0  0.11760  0.94190  0.44890  1.0000 -0.109962793
C   C63       1.0  0.82420  0.28590  0.76790  1.0000 -0.109962793
C   C64       1.0  0.88240  0.33130  0.82430  1.0000 -0.109962793
C   C65       1.0  0.53830  0.48200  0.71410  1.0000 -0.109962793
C   C66       1.0  0.55110  0.49300  0.66870  1.0000 -0.109962793
C   C67       1.0  0.23210  0.51800  0.05630  1.0000 -0.109962793
C   C68       1.0  0.17570  0.50700  0.05810  1.0000 -0.109962793
C   C69       1.0  0.46170  0.17580  0.94370  1.0000 -0.109962793
C   C70       1.0  0.44890  0.11760  0.94190  1.0000 -0.109962793
C   C71       1.0  0.76790  0.82420  0.28590  1.0000 -0.109962793
C   C72       1.0  0.82430  0.88240  0.33130  1.0000 -0.109962793
C   C73       1.0  0.76790  0.94370  0.48200  1.0000 -0.109962793
C   C74       1.0  0.82430  0.94190  0.49300  1.0000 -0.109962793
C   C75       1.0  0.46170  0.28590  0.51800  1.0000 -0.109962793
C   C76       1.0  0.44890  0.33130  0.50700  1.0000 -0.109962793
C   C77       1.0  0.23210  0.71410  0.17580  1.0000 -0.109962793
C   C78       1.0  0.17570  0.66870  0.11760  1.0000 -0.109962793
C   C79       1.0  0.53830  0.05630  0.82420  1.0000 -0.109962793
C   C80       1.0  0.55110  0.05810  0.88240  1.0000 -0.109962793
C   C81       1.0  0.05630  0.82420  0.53830  1.0000 -0.109962793
C   C82       1.0  0.05810  0.88240  0.55110  1.0000 -0.109962793
C   C83       1.0  0.71410  0.17580  0.23210  1.0000 -0.109962793
C   C84       1.0  0.66870  0.11760  0.17570  1.0000 -0.109962793
C   C85       1.0  0.28590  0.51800  0.46170  1.0000 -0.109962793
C   C86       1.0  0.33130  0.50700  0.44890  1.0000 -0.109962793
C   C87       1.0  0.94370  0.48200  0.76790  1.0000 -0.109962793
C   C88       1.0  0.94190  0.49300  0.82430  1.0000 -0.109962793
C   C89       1.0  0.17580  0.23210  0.71410  1.0000 -0.115129103
C   C90       1.0  0.11760  0.17570  0.66870  1.0000 -0.109962793
C   C91       1.0  0.82420  0.53830  0.05630  1.0000 -0.109962793
C   C92       1.0  0.88240  0.55110  0.05810  1.0000 -0.109962793
C   C93       1.0  0.48200  0.76790  0.94370  1.0000 -0.109962793
C   C94       1.0  0.49300  0.82430  0.94190  1.0000 -0.109962793
C   C95       1.0  0.51800  0.46170  0.28590  1.0000 -0.109962793
C   C96       1.0  0.50700  0.44890  0.33130  1.0000 -0.109962793
C   C97       1.0  0.21180  0.50520  0.50520  1.0000 0.206123728
C   C98       1.0  0.26140  0.49500  0.49500  1.0000 0.026350164
C   C99       1.0  0.35500  0.47010  0.47010  1.0000 0.0042511359
C   C100      1.0  0.39720  0.45240  0.45240  1.0000 0.3527877731
C   C101      1.0  0.00000  0.70660  0.49480  1.0000 0.206123728
C   C102      1.0  0.00000  0.76640  0.50500  1.0000 0.026350164
C   C103      1.0  0.00000  0.88490  0.52990  1.0000 0.0042511359
C   C104      1.0  0.00000  0.94480  0.54760  1.0000 0.3527877731
C   C105      1.0  1.00000  0.49480  0.70660  1.0000 0.206123728
C   C106      1.0  0.00000  0.50500  0.76640  1.0000 0.026350164
C   C107      1.0  0.00000  0.52990  0.88490  1.0000 0.0042511359
C   C108      1.0  1.00000  0.54760  0.94480  1.0000 0.3527877731
C   C109      1.0  0.78820  0.29340  0.29340  1.0000 0.206123728
C   C110      1.0  0.73860  0.23360  0.23360  1.0000 0.026350164
C   C111      1.0  0.64500  0.11510  0.11510  1.0000 0.0042511359
C   C112      1.0  0.60280  0.05520  0.05520  1.0000 0.3527877731
C   C113      1.0  0.50520  0.21180  0.50520  1.0000 0.206123728
C   C114      1.0  0.49500  0.26140  0.49500  1.0000 0.026350164
C   C115      1.0  0.47010  0.35500  0.47010  1.0000 0.0042511359
C   C116      1.0  0.45240  0.39720  0.45240  1.0000 0.3527877731
C   C117      1.0  0.49480  1.00000  0.70660  1.0000 0.206123728
C   C118      1.0  0.50500  0.00000  0.76640  1.0000 0.026350164
C   C119      1.0  0.52990  0.00000  0.88490  1.0000 0.0042511359
C   C120      1.0  0.54760  1.00000  0.94480  1.0000 0.3527877731
C   C121      1.0  0.70660  0.00000  0.49480  1.0000 0.206123728
C   C122      1.0  0.76640  0.00000  0.50500  1.0000 0.0230555044
C   C123      1.0  0.88490  0.00000  0.52990  1.0000 0.0042511359
C   C124      1.0  0.94480  0.00000  0.54760  1.0000 0.3527877731
C   C125      1.0  0.29340  0.78820  0.29340  1.0000 0.206123728
C   C126      1.0  0.23360  0.73860  0.23360  1.0000 0.0230555044
C   C127      1.0  0.11510  0.64500  0.11510  1.0000 0.0042511359
C   C128      1.0  0.05520  0.60280  0.05520  1.0000 0.3527877731
C   C129      1.0  0.50520  0.50520  0.21180  1.0000 0.206123728
C   C130      1.0  0.49500  0.49500  0.26140  1.0000 0.026350164
C   C131      1.0  0.47010  0.47010  0.35500  1.0000 0.0042511359
C   C132      1.0  0.45240  0.45240  0.39720  1.0000 0.3527877731
C   C133      1.0  0.70660  0.49480  0.00000  1.0000 0.206123728
C   C134      1.0  0.76640  0.50500  0.00000  1.0000 0.0230555044
C   C135      1.0  0.88490  0.52990  0.00000  1.0000 0.0042511359
C   C136      1.0  0.94480  0.54760  0.00000  1.0000 0.3527877731
C   C137      1.0  0.49480  0.70660  0.00000  1.0000 0.206123728
C   C138      1.0  0.50500  0.76640  0.00000  1.0000 0.0230555044
C   C139      1.0  0.52990  0.88490  0.00000  1.0000 0.0042511359
C   C140      1.0  0.54760  0.94480  0.00000  1.0000 0.3527877731
C   C141      1.0  0.29340  0.29340  0.78820  1.0000 0.206123728
C   C142      1.0  0.23360  0.23360  0.73860  1.0000 0.026350164
C   C143      1.0  0.11510  0.11510  0.64500  1.0000 0.0042511359
C   C144      1.0  0.05520  0.05520  0.60280  1.0000 0.3527877731
C   C145      1.0  0.29340  0.00000  0.50520  1.0000 0.206123728
C   C146      1.0  0.23360  0.00000  0.49500  1.0000 0.026350164
C   C147      1.0  0.11510  0.00000  0.47010  1.0000 0.0042511359
C   C148      1.0  0.05520  0.00000  0.45240  1.0000 0.3527877731
C   C149      1.0  0.49480  0.78820  0.49480  1.0000 0.206123728
C   C150      1.0  0.50500  0.73860  0.50500  1.0000 0.026350164
C   C151      1.0  0.52990  0.64500  0.52990  1.0000 0.0042511359
C   C152      1.0  0.54760  0.60280  0.54760  1.0000 0.3527877731
C   C153      1.0  0.70660  0.21180  0.70660  1.0000 0.206123728
C   C154      1.0  0.76640  0.26140  0.76640  1.0000 0.026350164
C   C155      1.0  0.88490  0.35500  0.88490  1.0000 0.0042511359
C   C156      1.0  0.94480  0.39720  0.94480  1.0000 0.3527877731
C   C157      1.0  0.50520  0.00000  0.29340  1.0000 0.206123728
C   C158      1.0  0.49500  0.00000  0.23360  1.0000 0.0230555044
C   C159      1.0  0.47010  0.00000  0.11510  1.0000 0.0042511359
C   C160      1.0  0.45240  0.00000  0.05520  1.0000 0.3527877731
C   C161      1.0  0.00000  0.29340  0.50520  1.0000 0.206123728
C   C162      1.0  0.00000  0.23360  0.49500  1.0000 0.026350164
C   C163      1.0  0.00000  0.11510  0.47010  1.0000 0.0042511359
C   C164      1.0  0.00000  0.05520  0.45240  1.0000 0.3527877731
C   C165      1.0  0.21180  0.70660  0.70660  1.0000 0.206123728
C   C166      1.0  0.26140  0.76640  0.76640  1.0000 0.026350164
C   C167      1.0  0.35500  0.88490  0.88490  1.0000 0.0042511359
C   C168      1.0  0.39720  0.94480  0.94480  1.0000 0.3527877731
C   C169      1.0  0.78820  0.49480  0.49480  1.0000 0.206123728
C   C170      1.0  0.73860  0.50500  0.50500  1.0000 0.026350164
C   C171      1.0  0.64500  0.52990  0.52990  1.0000 0.0042511359
C   C172      1.0  0.60280  0.54760  0.54760  1.0000 0.3527877731
C   C173      1.0  0.00000  0.50520  0.29340  1.0000 0.206123728
C   C174      1.0  0.00000  0.49500  0.23360  1.0000 0.026350164
C   C175      1.0  0.00000  0.47010  0.11510  1.0000 0.0042511359
C   C176      1.0  0.00000  0.45240  0.05520  1.0000 0.3527877731
C   C177      1.0  0.70660  0.70660  0.21180  1.0000 0.206123728
C   C178      1.0  0.76640  0.76640  0.26140  1.0000 0.0230555044
C   C179      1.0  0.88490  0.88490  0.35500  1.0000 0.0042511359
C   C180      1.0  0.94480  0.94480  0.39720  1.0000 0.3527877731
C   C181      1.0  0.29340  0.50520  0.00000  1.0000 0.206123728
C   C182      1.0  0.23360  0.49500  0.00000  1.0000 0.026350164
C   C183      1.0  0.11510  0.47010  0.00000  1.0000 0.0042511359
C   C184      1.0  0.05520  0.45240  0.00000  1.0000 0.3527877731
C   C185      1.0  0.50520  0.29340  0.00000  1.0000 0.206123728
C   C186      1.0  0.49500  0.23360  0.00000  1.0000 0.0230555044
C   C187      1.0  0.47010  0.11510  0.00000  1.0000 0.0042511359
C   C188      1.0  0.45240  0.05520  0.00000  1.0000 0.3527877731
C   C189      1.0  0.49480  0.49480  0.78820  1.0000 0.206123728
C   C190      1.0  0.50500  0.50500  0.73860  1.0000 0.026350164
C   C191      1.0  0.52990  0.52990  0.64500  1.0000 0.0042511359
C   C192      1.0  0.54760  0.54760  0.60280  1.0000 0.3527877731
N   N1        1.0  0.14402  0.53641  0.50333  1.0000 -0.0243429325
N   N2        1.0  0.18690  0.53753  0.48403  1.0000 -0.2237109051
N   N3        1.0  0.03308  0.64069  0.49667  1.0000 -0.0243429325
N   N4        1.0  0.05350  0.70287  0.51597  1.0000 -0.2237109051
N   N5        1.0  0.96692  0.46359  0.60761  1.0000 -0.0256430865
N   N6        1.0  0.94650  0.46247  0.64937  1.0000 -0.2237109051
N   N7        1.0  0.85598  0.35931  0.39239  1.0000 -0.0243429325
N   N8        1.0  0.81310  0.29713  0.35063  1.0000 -0.2259518613
N   N9        1.0  0.50333  0.14402  0.53641  1.0000 -0.0256430865
N   N10       1.0  0.48403  0.18690  0.53753  1.0000 -0.2237109051
N   N11       1.0  0.49667  0.03308  0.64069  1.0000 -0.0256430865
N   N12       1.0  0.51597  0.05350  0.70287  1.0000 -0.2259518613
N   N13       1.0  0.60761  0.96692  0.46359  1.0000 -0.0256430865
N   N14       1.0  0.64937  0.94650  0.46247  1.0000 -0.2237109051
N   N15       1.0  0.39239  0.85598  0.35931  1.0000 -0.0243429325
N   N16       1.0  0.35063  0.81310  0.29713  1.0000 -0.2237109051
N   N17       1.0  0.53641  0.50333  0.14402  1.0000 -0.0243429325
N   N18       1.0  0.53753  0.48403  0.18690  1.0000 -0.2237109051
N   N19       1.0  0.64069  0.49667  0.03308  1.0000 -0.0243429325
N   N20       1.0  0.70287  0.51597  0.05350  1.0000 -0.2237109051
N   N21       1.0  0.46359  0.60761  0.96692  1.0000 -0.0256430865
N   N22       1.0  0.46247  0.64937  0.94650  1.0000 -0.2259518613
N   N23       1.0  0.35931  0.39239  0.85598  1.0000 -0.0243429325
N   N24       1.0  0.29713  0.35063  0.81310  1.0000 -0.2237109051
N   N25       1.0  0.35931  0.96692  0.50333  1.0000 -0.0243429325
N   N26       1.0  0.29713  0.94650  0.48403  1.0000 -0.2237109051
N   N27       1.0  0.46359  0.85598  0.49667  1.0000 -0.0256430865
N   N28       1.0  0.46247  0.81310  0.51597  1.0000 -0.2237109051
N   N29       1.0  0.64069  0.14402  0.60761  1.0000 -0.0256430865
N   N30       1.0  0.70287  0.18690  0.64937  1.0000 -0.2237109051
N   N31       1.0  0.53641  0.03308  0.39239  1.0000 -0.0243429325
N   N32       1.0  0.53753  0.05350  0.35063  1.0000 -0.2237109051
N   N33       1.0  0.03308  0.39239  0.53641  1.0000 -0.0256430865
N   N34       1.0  0.05350  0.35063  0.53753  1.0000 -0.2237109051
N   N35       1.0  0.14402  0.60761  0.64069  1.0000 -0.0256430865
N   N36       1.0  0.18690  0.64937  0.70287  1.0000 -0.2259518613
N   N37       1.0  0.85598  0.49667  0.46359  1.0000 -0.0256430865
N   N38       1.0  0.81310  0.51597  0.46247  1.0000 -0.2259518613
N   N39       1.0  0.96692  0.50333  0.35931  1.0000 -0.0256430865
N   N40       1.0  0.94650  0.48403  0.29713  1.0000 -0.2237109051
N   N41       1.0  0.60761  0.64069  0.14402  1.0000 -0.0256430865
N   N42       1.0  0.64937  0.70287  0.18690  1.0000 -0.2237109051
N   N43       1.0  0.39239  0.53641  0.03308  1.0000 -0.0243429325
N   N44       1.0  0.35063  0.53753  0.05350  1.0000 -0.2237109051
N   N45       1.0  0.50333  0.35931  0.96692  1.0000 -0.0256430865
N   N46       1.0  0.48403  0.29713  0.94650  1.0000 -0.2259518613
N   N47       1.0  0.49667  0.46359  0.85598  1.0000 -0.0256430865
N   N48       1.0  0.51597  0.46247  0.81310  1.0000 -0.2237109051
N   N49       1.0  0.85598  0.46359  0.49667  1.0000 -0.0243429325
N   N50       1.0  0.81310  0.46247  0.51597  1.0000 -0.2259518613
N   N51       1.0  0.96692  0.35931  0.50333  1.0000 -0.0243429325
N   N52       1.0  0.94650  0.29713  0.48403  1.0000 -0.2237109051
N   N53       1.0  0.03308  0.53641  0.39239  1.0000 -0.0243429325
N   N54       1.0  0.05350  0.53753  0.35063  1.0000 -0.2237109051
N   N55       1.0  0.14402  0.64069  0.60761  1.0000 -0.0256430865
N   N56       1.0  0.18690  0.70287  0.64937  1.0000 -0.2237109051
N   N57       1.0  0.49667  0.85598  0.46359  1.0000 -0.0256430865
N   N58       1.0  0.51597  0.81310  0.46247  1.0000 -0.2237109051
N   N59       1.0  0.50333  0.96692  0.35931  1.0000 -0.0256430865
N   N60       1.0  0.48403  0.94650  0.29713  1.0000 -0.2237109051
N   N61       1.0  0.39239  0.03308  0.53641  1.0000 -0.0243429325
N   N62       1.0  0.35063  0.05350  0.53753  1.0000 -0.2237109051
N   N63       1.0  0.60761  0.14402  0.64069  1.0000 -0.0256430865
N   N64       1.0  0.64937  0.18690  0.70287  1.0000 -0.2237109051
N   N65       1.0  0.46359  0.49667  0.85598  1.0000 -0.0256430865
N   N66       1.0  0.46247  0.51597  0.81310  1.0000 -0.2237109051
N   N67       1.0  0.35931  0.50333  0.96692  1.0000 -0.0256430865
N   N68       1.0  0.29713  0.48403  0.94650  1.0000 -0.2237109051
N   N69       1.0  0.53641  0.39239  0.03308  1.0000 -0.0243429325
N   N70       1.0  0.53753  0.35063  0.05350  1.0000 -0.2237109051
N   N71       1.0  0.64069  0.60761  0.14402  1.0000 -0.0256430865
N   N72       1.0  0.70287  0.64937  0.18690  1.0000 -0.2237109051
N   N73       1.0  0.64069  0.03308  0.49667  1.0000 -0.0243429325
N   N74       1.0  0.70287  0.05350  0.51597  1.0000 -0.2237109051
N   N75       1.0  0.53641  0.14402  0.50333  1.0000 -0.0243429325
N   N76       1.0  0.53753  0.18690  0.48403  1.0000 -0.2237109051
N   N77       1.0  0.35931  0.85598  0.39239  1.0000 -0.0256430865
N   N78       1.0  0.29713  0.81310  0.35063  1.0000 -0.2259518613
N   N79       1.0  0.46359  0.96692  0.60761  1.0000 -0.0256430865
N   N80       1.0  0.46247  0.94650  0.64937  1.0000 -0.2259518613
N   N81       1.0  0.96692  0.60761  0.46359  1.0000 -0.0256430865
N   N82       1.0  0.94650  0.64937  0.46247  1.0000 -0.2237109051
N   N83       1.0  0.85598  0.39239  0.35931  1.0000 -0.0256430865
N   N84       1.0  0.81310  0.35063  0.29713  1.0000 -0.2259518613
N   N85       1.0  0.14402  0.50333  0.53641  1.0000 -0.0256430865
N   N86       1.0  0.18690  0.48403  0.53753  1.0000 -0.2237109051
N   N87       1.0  0.03308  0.49667  0.64069  1.0000 -0.0256430865
N   N88       1.0  0.05350  0.51597  0.70287  1.0000 -0.2237109051
N   N89       1.0  0.39239  0.35931  0.85598  1.0000 -0.0256430865
N   N90       1.0  0.35063  0.29713  0.81310  1.0000 -0.2237109051
N   N91       1.0  0.60761  0.46359  0.96692  1.0000 -0.0256430865
N   N92       1.0  0.64937  0.46247  0.94650  1.0000 -0.2259518613
N   N93       1.0  0.49667  0.64069  0.03308  1.0000 -0.0243429325
N   N94       1.0  0.51597  0.70287  0.05350  1.0000 -0.2259518613
N   N95       1.0  0.50333  0.53641  0.14402  1.0000 -0.0243429325
N   N96       1.0  0.48403  0.53753  0.18690  1.0000 -0.2237109051
N   N97       1.0  0.41610  0.41610  0.47380  1.0000 -0.4069924116
N   N98       1.0  0.94230  0.94230  0.52620  1.0000 -0.4069924116
N   N99       1.0  0.05770  0.58390  0.00000  1.0000 -0.4069924116
N   N100      1.0  0.58390  0.05770  0.00000  1.0000 -0.4069924116
N   N101      1.0  0.47380  0.41610  0.41610  1.0000 -0.4069924116
N   N102      1.0  0.52620  0.94230  0.94230  1.0000 -0.4069924116
N   N103      1.0  0.00000  0.05770  0.58390  1.0000 -0.4069924116
N   N104      1.0  0.00000  0.58390  0.05770  1.0000 -0.4069924116
N   N105      1.0  0.41610  0.47380  0.41610  1.0000 -0.4069924116
N   N106      1.0  0.94230  0.52620  0.94230  1.0000 -0.4069924116
N   N107      1.0  0.58390  0.00000  0.05770  1.0000 -0.4069924116
N   N108      1.0  0.05770  0.00000  0.58390  1.0000 -0.4069924116
N   N109      1.0  0.05770  0.05770  0.47380  1.0000 -0.4069924116
N   N110      1.0  0.58390  0.58390  0.52620  1.0000 -0.4069924116
N   N111      1.0  0.94230  0.41610  0.00000  1.0000 -0.4069924116
N   N112      1.0  0.41610  0.94230  0.00000  1.0000 -0.4069924116
N   N113      1.0  0.94230  0.00000  0.41610  1.0000 -0.4069924116
N   N114      1.0  0.41610  0.00000  0.94230  1.0000 -0.4069924116
N   N115      1.0  0.58390  0.52620  0.58390  1.0000 -0.4069924116
N   N116      1.0  0.05770  0.47380  0.05770  1.0000 -0.4069924116
N   N117      1.0  0.00000  0.94230  0.41610  1.0000 -0.4069924116
N   N118      1.0  0.00000  0.41610  0.94230  1.0000 -0.4069924116
N   N119      1.0  0.47380  0.05770  0.05770  1.0000 -0.4069924116
N   N120      1.0  0.52620  0.58390  0.58390  1.0000 -0.4069924116
Cl  Cl1       1.0  0.00000  0.50000  0.50000  1.0000 -0.5680950977
Cl  Cl2       1.0  0.50000  0.00000  0.50000  1.0000 -0.5680950977
Cl  Cl3       1.0  0.50000  0.50000  0.00000  1.0000 -0.5680950977
O   O1        1.0  0.16810  0.66810  0.50000  1.0000 0.0230555044
O   O2        1.0  0.83190  0.33190  0.50000  1.0000 0.026350164
O   O3        1.0  0.50000  0.16810  0.66810  1.0000 0.0230555044
O   O4        1.0  0.50000  0.83190  0.33190  1.0000 0.026350164
O   O5        1.0  0.66810  0.50000  0.16810  1.0000 0.026350164
O   O6        1.0  0.33190  0.50000  0.83190  1.0000 0.0230555044
O   O7        1.0  0.33190  0.83190  0.50000  1.0000 0.0230555044
O   O8        1.0  0.66810  0.16810  0.50000  1.0000 0.0230555044
O   O9        1.0  0.16810  0.50000  0.66810  1.0000 0.0230555044
O   O10       1.0  0.83190  0.50000  0.33190  1.0000 0.026350164
O   O11       1.0  0.50000  0.66810  0.16810  1.0000 0.026350164
O   O12       1.0  0.50000  0.33190  0.83190  1.0000 0.0230555044
