# DDEC6 charges by PACMAN v1.1 (https://github.com/mtap-research/PACMAN-charge/)
data_2007[CoK][nan]3[ION]2
_chemical_formula_sum              "K6 Co28 H96 C192 O108"
_cell_length_a       29.8537
_cell_length_b       29.8537
_cell_length_c       29.8537
_cell_angle_alpha    32.9365
_cell_angle_beta     32.9365
_cell_angle_gamma    32.9365

_symmetry_space_group_name_H-M    "P 1"
_symmetry_Int_Tables_number       1

loop_
  _symmetry_equiv_pos_as_xyz
  'x, y, z'

loop_
  _atom_site_type_symbol
  _atom_site_label
  _atom_site_symmetry_multiplicity
  _atom_site_fract_x
  _atom_site_fract_y
  _atom_site_fract_z
  _atom_site_occupancy
  _atom_site_charge
K   K1        1.0  0.34953  0.15047  0.75000  1.0000 0.8714030584
K   K2        1.0  0.75000  0.34953  0.15047  1.0000 0.8714030584
K   K3        1.0  0.15047  0.75000  0.34953  1.0000 0.8714030584
K   K4        1.0  0.65047  0.84953  0.25000  1.0000 0.8714030584
K   K5        1.0  0.25000  0.65047  0.84953  1.0000 0.8714030584
K   K6        1.0  0.84953  0.25000  0.65047  1.0000 0.8714030584
Co  Co1       1.0  0.34899  0.27999  0.54811  1.0000 1.0236542887
Co  Co2       1.0  0.25788  0.24804  0.56383  1.0000 0.9624223163
Co  Co3       1.0  0.54811  0.34899  0.27999  1.0000 1.0236542887
Co  Co4       1.0  0.56383  0.25788  0.24804  1.0000 0.9624223163
Co  Co5       1.0  0.27999  0.54811  0.34899  1.0000 1.0236542887
Co  Co6       1.0  0.24804  0.56383  0.25788  1.0000 0.9624223163
Co  Co7       1.0  0.22001  0.15101  0.95189  1.0000 1.0236542887
Co  Co8       1.0  0.25196  0.24212  0.93617  1.0000 0.9624223163
Co  Co9       1.0  0.15101  0.95189  0.22001  1.0000 1.0253593127
Co  Co10      1.0  0.24212  0.93617  0.25196  1.0000 0.9624223163
Co  Co11      1.0  0.95189  0.22001  0.15101  1.0000 1.0236542887
Co  Co12      1.0  0.93617  0.25196  0.24212  1.0000 0.9624223163
Co  Co13      1.0  0.65101  0.72001  0.45189  1.0000 1.0236542887
Co  Co14      1.0  0.74212  0.75196  0.43617  1.0000 0.9624223163
Co  Co15      1.0  0.45189  0.65101  0.72001  1.0000 1.0236542887
Co  Co16      1.0  0.43617  0.74212  0.75196  1.0000 0.9624223163
Co  Co17      1.0  0.72001  0.45189  0.65101  1.0000 1.0236542887
Co  Co18      1.0  0.75196  0.43617  0.74212  1.0000 0.9624223163
Co  Co19      1.0  0.77999  0.84899  0.04811  1.0000 1.0236542887
Co  Co20      1.0  0.74804  0.75788  0.06383  1.0000 0.9624223163
Co  Co21      1.0  0.84899  0.04811  0.77999  1.0000 1.0253593127
Co  Co22      1.0  0.75788  0.06383  0.74804  1.0000 0.9624223163
Co  Co23      1.0  0.04811  0.77999  0.84899  1.0000 1.0253593127
Co  Co24      1.0  0.06383  0.74804  0.75788  1.0000 0.9624223163
Co  Co25      1.0  0.35957  0.35957  0.35957  1.0000 1.0743505756
Co  Co26      1.0  0.14043  0.14043  0.14043  1.0000 1.0743505756
Co  Co27      1.0  0.64043  0.64043  0.64043  1.0000 1.0743505756
Co  Co28      1.0  0.85957  0.85957  0.85957  1.0000 1.0743505756
H   H1        1.0  0.13760  0.25210  0.83710  1.0000 0.1217196877
H   H2        1.0  0.03900  0.23220  0.81610  1.0000 0.1217196877
H   H3        1.0  0.92120  0.21390  0.96420  1.0000 0.1217196877
H   H4        1.0  0.90620  0.22370  0.04470  1.0000 0.1217196877
H   H5        1.0  0.03060  0.37430  0.56120  1.0000 0.1217196877
H   H6        1.0  0.94730  0.52250  0.39430  1.0000 0.1250204096
H   H7        1.0  0.07410  0.55270  0.26670  1.0000 0.1072174993
H   H8        1.0  0.17670  0.49520  0.28760  1.0000 0.1217196877
H   H9        1.0  0.83710  0.13760  0.25210  1.0000 0.1217196877
H   H10       1.0  0.81610  0.03900  0.23220  1.0000 0.1217196877
H   H11       1.0  0.96420  0.92120  0.21390  1.0000 0.1217196877
H   H12       1.0  0.04470  0.90620  0.22370  1.0000 0.1217196877
H   H13       1.0  0.56120  0.03060  0.37430  1.0000 0.1217196877
H   H14       1.0  0.39430  0.94730  0.52250  1.0000 0.1250204096
H   H15       1.0  0.26670  0.07410  0.55270  1.0000 0.1072174993
H   H16       1.0  0.28760  0.17670  0.49520  1.0000 0.1217196877
H   H17       1.0  0.25210  0.83710  0.13760  1.0000 0.1250204096
H   H18       1.0  0.23220  0.81610  0.03900  1.0000 0.1217196877
H   H19       1.0  0.21390  0.96420  0.92120  1.0000 0.1217196877
H   H20       1.0  0.22370  0.04470  0.90620  1.0000 0.1217196877
H   H21       1.0  0.37430  0.56120  0.03060  1.0000 0.1250204096
H   H22       1.0  0.52250  0.39430  0.94730  1.0000 0.1250204096
H   H23       1.0  0.55270  0.26670  0.07410  1.0000 0.1072174993
H   H24       1.0  0.49520  0.28760  0.17670  1.0000 0.1217196877
H   H25       1.0  0.24790  0.36240  0.66290  1.0000 0.1250204096
H   H26       1.0  0.26780  0.46100  0.68390  1.0000 0.1217196877
H   H27       1.0  0.28610  0.57880  0.53580  1.0000 0.1217196877
H   H28       1.0  0.27630  0.59380  0.45530  1.0000 0.1217196877
H   H29       1.0  0.12570  0.46940  0.93880  1.0000 0.1217196877
H   H30       1.0  0.97750  0.55270  0.10570  1.0000 0.1250204096
H   H31       1.0  0.94730  0.42590  0.23330  1.0000 0.1072174993
H   H32       1.0  0.00480  0.32330  0.21240  1.0000 0.1217196877
H   H33       1.0  0.36240  0.66290  0.24790  1.0000 0.1250204096
H   H34       1.0  0.46100  0.68390  0.26780  1.0000 0.1217196877
H   H35       1.0  0.57880  0.53580  0.28610  1.0000 0.1217196877
H   H36       1.0  0.59380  0.45530  0.27630  1.0000 0.1217196877
H   H37       1.0  0.46940  0.93880  0.12570  1.0000 0.1217196877
H   H38       1.0  0.55270  0.10570  0.97750  1.0000 0.1250204096
H   H39       1.0  0.42590  0.23330  0.94730  1.0000 0.1072174993
H   H40       1.0  0.32330  0.21240  0.00480  1.0000 0.1217196877
H   H41       1.0  0.66290  0.24790  0.36240  1.0000 0.1217196877
H   H42       1.0  0.68390  0.26780  0.46100  1.0000 0.1217196877
H   H43       1.0  0.53580  0.28610  0.57880  1.0000 0.1217196877
H   H44       1.0  0.45530  0.27630  0.59380  1.0000 0.1217196877
H   H45       1.0  0.93880  0.12570  0.46940  1.0000 0.1217196877
H   H46       1.0  0.10570  0.97750  0.55270  1.0000 0.1250204096
H   H47       1.0  0.23330  0.94730  0.42590  1.0000 0.1072174993
H   H48       1.0  0.21240  0.00480  0.32330  1.0000 0.1217196877
H   H49       1.0  0.86240  0.74790  0.16290  1.0000 0.1217196877
H   H50       1.0  0.96100  0.76780  0.18390  1.0000 0.1217196877
H   H51       1.0  0.07880  0.78610  0.03580  1.0000 0.1217196877
H   H52       1.0  0.09380  0.77630  0.95530  1.0000 0.1217196877
H   H53       1.0  0.96940  0.62570  0.43880  1.0000 0.1217196877
H   H54       1.0  0.05270  0.47750  0.60570  1.0000 0.1250204096
H   H55       1.0  0.92590  0.44730  0.73330  1.0000 0.1072174993
H   H56       1.0  0.82330  0.50480  0.71240  1.0000 0.1217196877
H   H57       1.0  0.16290  0.86240  0.74790  1.0000 0.1250204096
H   H58       1.0  0.18390  0.96100  0.76780  1.0000 0.1217196877
H   H59       1.0  0.03580  0.07880  0.78610  1.0000 0.1217196877
H   H60       1.0  0.95530  0.09380  0.77630  1.0000 0.1217196877
H   H61       1.0  0.43880  0.96940  0.62570  1.0000 0.1250204096
H   H62       1.0  0.60570  0.05270  0.47750  1.0000 0.1250204096
H   H63       1.0  0.73330  0.92590  0.44730  1.0000 0.1072174993
H   H64       1.0  0.71240  0.82330  0.50480  1.0000 0.1217196877
H   H65       1.0  0.74790  0.16290  0.86240  1.0000 0.1217196877
H   H66       1.0  0.76780  0.18390  0.96100  1.0000 0.1217196877
H   H67       1.0  0.78610  0.03580  0.07880  1.0000 0.1217196877
H   H68       1.0  0.77630  0.95530  0.09380  1.0000 0.1217196877
H   H69       1.0  0.62570  0.43880  0.96940  1.0000 0.1217196877
H   H70       1.0  0.47750  0.60570  0.05270  1.0000 0.1250204096
H   H71       1.0  0.44730  0.73330  0.92590  1.0000 0.1072174993
H   H72       1.0  0.50480  0.71240  0.82330  1.0000 0.1217196877
H   H73       1.0  0.75210  0.63760  0.33710  1.0000 0.1250204096
H   H74       1.0  0.73220  0.53900  0.31610  1.0000 0.1217196877
H   H75       1.0  0.71390  0.42120  0.46420  1.0000 0.1217196877
H   H76       1.0  0.72370  0.40620  0.54470  1.0000 0.1217196877
H   H77       1.0  0.87430  0.53060  0.06120  1.0000 0.1217196877
H   H78       1.0  0.02250  0.44730  0.89430  1.0000 0.1250204096
H   H79       1.0  0.05270  0.57410  0.76670  1.0000 0.1072174993
H   H80       1.0  0.99520  0.67670  0.78760  1.0000 0.1217196877
H   H81       1.0  0.63760  0.33710  0.75210  1.0000 0.1217196877
H   H82       1.0  0.53900  0.31610  0.73220  1.0000 0.1217196877
H   H83       1.0  0.42120  0.46420  0.71390  1.0000 0.1217196877
H   H84       1.0  0.40620  0.54470  0.72370  1.0000 0.1217196877
H   H85       1.0  0.53060  0.06120  0.87430  1.0000 0.1217196877
H   H86       1.0  0.44730  0.89430  0.02250  1.0000 0.1250204096
H   H87       1.0  0.57410  0.76670  0.05270  1.0000 0.1072174993
H   H88       1.0  0.67670  0.78760  0.99520  1.0000 0.1217196877
H   H89       1.0  0.33710  0.75210  0.63760  1.0000 0.1250204096
H   H90       1.0  0.31610  0.73220  0.53900  1.0000 0.1217196877
H   H91       1.0  0.46420  0.71390  0.42120  1.0000 0.1217196877
H   H92       1.0  0.54470  0.72370  0.40620  1.0000 0.1217196877
H   H93       1.0  0.06120  0.87430  0.53060  1.0000 0.1250204096
H   H94       1.0  0.89430  0.02250  0.44730  1.0000 0.1250204096
H   H95       1.0  0.76670  0.05270  0.57410  1.0000 0.1072174993
H   H96       1.0  0.78760  0.99520  0.67670  1.0000 0.1217196877
C   C1        1.0  0.17671  0.25201  0.71651  1.0000 0.5826151594
C   C2        1.0  0.10043  0.24403  0.81133  1.0000 -0.0379242811
C   C3        1.0  0.02042  0.23712  0.95042  1.0000 -0.0319888815
C   C4        1.0  0.09351  0.24551  0.86201  1.0000 -0.1338298284
C   C5        1.0  0.01056  0.23566  0.00896  1.0000 0.5826151594
C   C6        1.0  0.03482  0.23312  0.85002  1.0000 -0.099514133
C   C7        1.0  0.96390  0.22320  0.93800  1.0000 -0.0891317379
C   C8        1.0  0.95606  0.22736  0.98626  1.0000 -0.1128384492
C   C9        1.0  0.89265  0.43185  0.57215  1.0000 0.572915102
C   C10       1.0  0.97685  0.44525  0.49045  1.0000 -0.0319888815
C   C11       1.0  0.11447  0.42807  0.42647  1.0000 -0.0319888815
C   C12       1.0  0.03920  0.41040  0.50180  1.0000 -0.1128384492
C   C13       1.0  0.18082  0.38782  0.44252  1.0000 0.5867355714
C   C14       1.0  0.98920  0.49880  0.40250  1.0000 -0.0891317379
C   C15       1.0  0.06502  0.51702  0.32622  1.0000 -0.099514133
C   C16       1.0  0.12673  0.48213  0.33873  1.0000 -0.099514133
C   C17       1.0  0.71651  0.17671  0.25201  1.0000 0.5826151594
C   C18       1.0  0.81133  0.10043  0.24403  1.0000 -0.0379242811
C   C19       1.0  0.95042  0.02042  0.23712  1.0000 -0.0319888815
C   C20       1.0  0.86201  0.09351  0.24551  1.0000 -0.1338298284
C   C21       1.0  0.00896  0.01056  0.23566  1.0000 0.5826151594
C   C22       1.0  0.85002  0.03482  0.23312  1.0000 -0.099514133
C   C23       1.0  0.93800  0.96390  0.22320  1.0000 -0.0891317379
C   C24       1.0  0.98626  0.95606  0.22736  1.0000 -0.1155655956
C   C25       1.0  0.57215  0.89265  0.43185  1.0000 0.572915102
C   C26       1.0  0.49045  0.97685  0.44525  1.0000 -0.0319888815
C   C27       1.0  0.42647  0.11447  0.42807  1.0000 -0.0379242811
C   C28       1.0  0.50180  0.03920  0.41040  1.0000 -0.1128384492
C   C29       1.0  0.44252  0.18082  0.38782  1.0000 0.5867355714
C   C30       1.0  0.40250  0.98920  0.49880  1.0000 -0.0891317379
C   C31       1.0  0.32622  0.06502  0.51702  1.0000 -0.099514133
C   C32       1.0  0.33873  0.12673  0.48213  1.0000 -0.099514133
C   C33       1.0  0.25201  0.71651  0.17671  1.0000 0.5826151594
C   C34       1.0  0.24403  0.81133  0.10043  1.0000 -0.0379242811
C   C35       1.0  0.23712  0.95042  0.02042  1.0000 -0.0319888815
C   C36       1.0  0.24551  0.86201  0.09351  1.0000 -0.1338298284
C   C37       1.0  0.23566  0.00896  0.01056  1.0000 0.5826151594
C   C38       1.0  0.23312  0.85002  0.03482  1.0000 -0.099514133
C   C39       1.0  0.22320  0.93800  0.96390  1.0000 -0.0891317379
C   C40       1.0  0.22736  0.98626  0.95606  1.0000 -0.1128384492
C   C41       1.0  0.43185  0.57215  0.89265  1.0000 0.572915102
C   C42       1.0  0.44525  0.49045  0.97685  1.0000 -0.0319888815
C   C43       1.0  0.42807  0.42647  0.11447  1.0000 -0.0319888815
C   C44       1.0  0.41040  0.50180  0.03920  1.0000 -0.1128384492
C   C45       1.0  0.38782  0.44252  0.18082  1.0000 0.5867355714
C   C46       1.0  0.49880  0.40250  0.98920  1.0000 -0.0891317379
C   C47       1.0  0.51702  0.32622  0.06502  1.0000 -0.099514133
C   C48       1.0  0.48213  0.33873  0.12673  1.0000 -0.099514133
C   C49       1.0  0.24799  0.32329  0.78349  1.0000 0.5826151594
C   C50       1.0  0.25597  0.39957  0.68867  1.0000 -0.0379242811
C   C51       1.0  0.26288  0.47958  0.54958  1.0000 -0.0319888815
C   C52       1.0  0.25449  0.40649  0.63799  1.0000 -0.1338298284
C   C53       1.0  0.26434  0.48944  0.49104  1.0000 0.5826151594
C   C54       1.0  0.26688  0.46518  0.64998  1.0000 -0.099514133
C   C55       1.0  0.27680  0.53610  0.56200  1.0000 -0.099514133
C   C56       1.0  0.27264  0.54394  0.51374  1.0000 -0.1128384492
C   C57       1.0  0.06815  0.60735  0.92785  1.0000 0.572915102
C   C58       1.0  0.05475  0.52315  0.00955  1.0000 -0.0319888815
C   C59       1.0  0.07193  0.38553  0.07353  1.0000 -0.0319888815
C   C60       1.0  0.08960  0.46080  0.99820  1.0000 -0.1128384492
C   C61       1.0  0.11218  0.31918  0.05748  1.0000 0.5867355714
C   C62       1.0  0.00120  0.51080  0.09750  1.0000 -0.0891317379
C   C63       1.0  0.98298  0.43498  0.17378  1.0000 -0.099514133
C   C64       1.0  0.01787  0.37327  0.16127  1.0000 -0.099514133
C   C65       1.0  0.32329  0.78349  0.24799  1.0000 0.5826151594
C   C66       1.0  0.39957  0.68867  0.25597  1.0000 -0.0379242811
C   C67       1.0  0.47958  0.54958  0.26288  1.0000 -0.0319888815
C   C68       1.0  0.40649  0.63799  0.25449  1.0000 -0.1338298284
C   C69       1.0  0.48944  0.49104  0.26434  1.0000 0.5826151594
C   C70       1.0  0.46518  0.64998  0.26688  1.0000 -0.099514133
C   C71       1.0  0.53610  0.56200  0.27680  1.0000 -0.099514133
C   C72       1.0  0.54394  0.51374  0.27264  1.0000 -0.1128384492
C   C73       1.0  0.60735  0.92785  0.06815  1.0000 0.572915102
C   C74       1.0  0.52315  0.00955  0.05475  1.0000 -0.0319888815
C   C75       1.0  0.38553  0.07353  0.07193  1.0000 -0.0319888815
C   C76       1.0  0.46080  0.99820  0.08960  1.0000 -0.1128384492
C   C77       1.0  0.31918  0.05748  0.11218  1.0000 0.5867355714
C   C78       1.0  0.51080  0.09750  0.00120  1.0000 -0.0891317379
C   C79       1.0  0.43498  0.17378  0.98298  1.0000 -0.099514133
C   C80       1.0  0.37327  0.16127  0.01787  1.0000 -0.099514133
C   C81       1.0  0.78349  0.24799  0.32329  1.0000 0.5826151594
C   C82       1.0  0.68867  0.25597  0.39957  1.0000 -0.0379242811
C   C83       1.0  0.54958  0.26288  0.47958  1.0000 -0.0319888815
C   C84       1.0  0.63799  0.25449  0.40649  1.0000 -0.1338298284
C   C85       1.0  0.49104  0.26434  0.48944  1.0000 0.5826151594
C   C86       1.0  0.64998  0.26688  0.46518  1.0000 -0.099514133
C   C87       1.0  0.56200  0.27680  0.53610  1.0000 -0.0891317379
C   C88       1.0  0.51374  0.27264  0.54394  1.0000 -0.1128384492
C   C89       1.0  0.92785  0.06815  0.60735  1.0000 0.572915102
C   C90       1.0  0.00955  0.05475  0.52315  1.0000 -0.0319888815
C   C91       1.0  0.07353  0.07193  0.38553  1.0000 -0.0319888815
C   C92       1.0  0.99820  0.08960  0.46080  1.0000 -0.1128384492
C   C93       1.0  0.05748  0.11218  0.31918  1.0000 0.5867355714
C   C94       1.0  0.09750  0.00120  0.51080  1.0000 -0.0891317379
C   C95       1.0  0.17378  0.98298  0.43498  1.0000 -0.099514133
C   C96       1.0  0.16127  0.01787  0.37327  1.0000 -0.099514133
C   C97       1.0  0.82329  0.74799  0.28349  1.0000 0.5826151594
C   C98       1.0  0.89957  0.75597  0.18867  1.0000 -0.0379242811
C   C99       1.0  0.97958  0.76288  0.04958  1.0000 -0.0319888815
C   C100      1.0  0.90649  0.75449  0.13799  1.0000 -0.1338298284
C   C101      1.0  0.98944  0.76434  0.99104  1.0000 0.5826151594
C   C102      1.0  0.96518  0.76688  0.14998  1.0000 -0.099514133
C   C103      1.0  0.03610  0.77680  0.06200  1.0000 -0.099514133
C   C104      1.0  0.04394  0.77264  0.01374  1.0000 -0.1128384492
C   C105      1.0  0.10735  0.56815  0.42785  1.0000 0.572915102
C   C106      1.0  0.02315  0.55475  0.50955  1.0000 -0.0319888815
C   C107      1.0  0.88553  0.57193  0.57353  1.0000 -0.0319888815
C   C108      1.0  0.96080  0.58960  0.49820  1.0000 -0.1128384492
C   C109      1.0  0.81918  0.61218  0.55748  1.0000 0.5867355714
C   C110      1.0  0.01080  0.50120  0.59750  1.0000 -0.0891317379
C   C111      1.0  0.93498  0.48298  0.67378  1.0000 -0.099514133
C   C112      1.0  0.87327  0.51787  0.66127  1.0000 -0.099514133
C   C113      1.0  0.28349  0.82329  0.74799  1.0000 0.5826151594
C   C114      1.0  0.18867  0.89957  0.75597  1.0000 -0.0379242811
C   C115      1.0  0.04958  0.97958  0.76288  1.0000 -0.0319888815
C   C116      1.0  0.13799  0.90649  0.75449  1.0000 -0.1338298284
C   C117      1.0  0.99104  0.98944  0.76434  1.0000 0.5826151594
C   C118      1.0  0.14998  0.96518  0.76688  1.0000 -0.099514133
C   C119      1.0  0.06200  0.03610  0.77680  1.0000 -0.0891317379
C   C120      1.0  0.01374  0.04394  0.77264  1.0000 -0.1128384492
C   C121      1.0  0.42785  0.10735  0.56815  1.0000 0.572915102
C   C122      1.0  0.50955  0.02315  0.55475  1.0000 -0.0319888815
C   C123      1.0  0.57353  0.88553  0.57193  1.0000 -0.0319888815
C   C124      1.0  0.49820  0.96080  0.58960  1.0000 -0.1128384492
C   C125      1.0  0.55748  0.81918  0.61218  1.0000 0.5867355714
C   C126      1.0  0.59750  0.01080  0.50120  1.0000 -0.0891317379
C   C127      1.0  0.67378  0.93498  0.48298  1.0000 -0.099514133
C   C128      1.0  0.66127  0.87327  0.51787  1.0000 -0.099514133
C   C129      1.0  0.74799  0.28349  0.82329  1.0000 0.5826151594
C   C130      1.0  0.75597  0.18867  0.89957  1.0000 -0.0379242811
C   C131      1.0  0.76288  0.04958  0.97958  1.0000 -0.0319888815
C   C132      1.0  0.75449  0.13799  0.90649  1.0000 -0.1338298284
C   C133      1.0  0.76434  0.99104  0.98944  1.0000 0.5826151594
C   C134      1.0  0.76688  0.14998  0.96518  1.0000 -0.099514133
C   C135      1.0  0.77680  0.06200  0.03610  1.0000 -0.0891317379
C   C136      1.0  0.77264  0.01374  0.04394  1.0000 -0.1128384492
C   C137      1.0  0.56815  0.42785  0.10735  1.0000 0.572915102
C   C138      1.0  0.55475  0.50955  0.02315  1.0000 -0.0319888815
C   C139      1.0  0.57193  0.57353  0.88553  1.0000 -0.0319888815
C   C140      1.0  0.58960  0.49820  0.96080  1.0000 -0.1128384492
C   C141      1.0  0.61218  0.55748  0.81918  1.0000 0.5867355714
C   C142      1.0  0.50120  0.59750  0.01080  1.0000 -0.0891317379
C   C143      1.0  0.48298  0.67378  0.93498  1.0000 -0.099514133
C   C144      1.0  0.51787  0.66127  0.87327  1.0000 -0.099514133
C   C145      1.0  0.75201  0.67671  0.21651  1.0000 0.5826151594
C   C146      1.0  0.74403  0.60043  0.31133  1.0000 -0.0379242811
C   C147      1.0  0.73712  0.52042  0.45042  1.0000 -0.0319888815
C   C148      1.0  0.74551  0.59351  0.36201  1.0000 -0.1338298284
C   C149      1.0  0.73566  0.51056  0.50896  1.0000 0.5826151594
C   C150      1.0  0.73312  0.53482  0.35002  1.0000 -0.099514133
C   C151      1.0  0.72320  0.46390  0.43800  1.0000 -0.099514133
C   C152      1.0  0.72736  0.45606  0.48626  1.0000 -0.1128384492
C   C153      1.0  0.93185  0.39265  0.07215  1.0000 0.572915102
C   C154      1.0  0.94525  0.47685  0.99045  1.0000 -0.0319888815
C   C155      1.0  0.92807  0.61447  0.92647  1.0000 -0.0319888815
C   C156      1.0  0.91040  0.53920  0.00180  1.0000 -0.1128384492
C   C157      1.0  0.88782  0.68082  0.94252  1.0000 0.5867355714
C   C158      1.0  0.99880  0.48920  0.90250  1.0000 -0.0891317379
C   C159      1.0  0.01702  0.56502  0.82622  1.0000 -0.099514133
C   C160      1.0  0.98213  0.62673  0.83873  1.0000 -0.099514133
C   C161      1.0  0.67671  0.21651  0.75201  1.0000 0.5826151594
C   C162      1.0  0.60043  0.31133  0.74403  1.0000 -0.0379242811
C   C163      1.0  0.52042  0.45042  0.73712  1.0000 -0.0319888815
C   C164      1.0  0.59351  0.36201  0.74551  1.0000 -0.1338298284
C   C165      1.0  0.51056  0.50896  0.73566  1.0000 0.5826151594
C   C166      1.0  0.53482  0.35002  0.73312  1.0000 -0.099514133
C   C167      1.0  0.46390  0.43800  0.72320  1.0000 -0.099514133
C   C168      1.0  0.45606  0.48626  0.72736  1.0000 -0.1128384492
C   C169      1.0  0.39265  0.07215  0.93185  1.0000 0.572915102
C   C170      1.0  0.47685  0.99045  0.94525  1.0000 -0.0319888815
C   C171      1.0  0.61447  0.92647  0.92807  1.0000 -0.0319888815
C   C172      1.0  0.53920  0.00180  0.91040  1.0000 -0.1128384492
C   C173      1.0  0.68082  0.94252  0.88782  1.0000 0.5867355714
C   C174      1.0  0.48920  0.90250  0.99880  1.0000 -0.0891317379
C   C175      1.0  0.56502  0.82622  0.01702  1.0000 -0.099514133
C   C176      1.0  0.62673  0.83873  0.98213  1.0000 -0.099514133
C   C177      1.0  0.21651  0.75201  0.67671  1.0000 0.5826151594
C   C178      1.0  0.31133  0.74403  0.60043  1.0000 -0.0379242811
C   C179      1.0  0.45042  0.73712  0.52042  1.0000 -0.0319888815
C   C180      1.0  0.36201  0.74551  0.59351  1.0000 -0.1338298284
C   C181      1.0  0.50896  0.73566  0.51056  1.0000 0.5826151594
C   C182      1.0  0.35002  0.73312  0.53482  1.0000 -0.099514133
C   C183      1.0  0.43800  0.72320  0.46390  1.0000 -0.0891317379
C   C184      1.0  0.48626  0.72736  0.45606  1.0000 -0.1128384492
C   C185      1.0  0.07215  0.93185  0.39265  1.0000 0.572915102
C   C186      1.0  0.99045  0.94525  0.47685  1.0000 -0.0319888815
C   C187      1.0  0.92647  0.92807  0.61447  1.0000 -0.0319888815
C   C188      1.0  0.00180  0.91040  0.53920  1.0000 -0.1128384492
C   C189      1.0  0.94252  0.88782  0.68082  1.0000 0.5867355714
C   C190      1.0  0.90250  0.99880  0.48920  1.0000 -0.0891317379
C   C191      1.0  0.82622  0.01702  0.56502  1.0000 -0.099514133
C   C192      1.0  0.83873  0.98213  0.62673  1.0000 -0.099514133
O   O1        1.0  0.29538  0.33638  0.48698  1.0000 -0.7705736196
O   O2        1.0  0.16764  0.25764  0.67774  1.0000 -0.5084925294
O   O3        1.0  0.24225  0.25235  0.68285  1.0000 -0.5972042035
O   O4        1.0  0.93084  0.25394  0.07544  1.0000 -0.6190574567
O   O5        1.0  0.07573  0.21553  0.99713  1.0000 -0.4775210793
O   O6        1.0  0.83918  0.46048  0.55988  1.0000 -0.5084925294
O   O7        1.0  0.87776  0.39446  0.64996  1.0000 -0.5403638085
O   O8        1.0  0.23394  0.42234  0.37834  1.0000 -0.5571507712
O   O9        1.0  0.17894  0.32084  0.52014  1.0000 -0.5156546782
O   O10       1.0  0.48698  0.29538  0.33638  1.0000 -0.7705736196
O   O11       1.0  0.67774  0.16764  0.25764  1.0000 -0.5084925294
O   O12       1.0  0.68285  0.24225  0.25235  1.0000 -0.5972042035
O   O13       1.0  0.07544  0.93084  0.25394  1.0000 -0.6190574567
O   O14       1.0  0.99713  0.07573  0.21553  1.0000 -0.4775210793
O   O15       1.0  0.55988  0.83918  0.46048  1.0000 -0.5084925294
O   O16       1.0  0.64996  0.87776  0.39446  1.0000 -0.5403638085
O   O17       1.0  0.37834  0.23394  0.42234  1.0000 -0.5571507712
O   O18       1.0  0.52014  0.17894  0.32084  1.0000 -0.5156546782
O   O19       1.0  0.33638  0.48698  0.29538  1.0000 -0.7705736196
O   O20       1.0  0.25764  0.67774  0.16764  1.0000 -0.5084925294
O   O21       1.0  0.25235  0.68285  0.24225  1.0000 -0.5972042035
O   O22       1.0  0.25394  0.07544  0.93084  1.0000 -0.6190574567
O   O23       1.0  0.21553  0.99713  0.07573  1.0000 -0.4775210793
O   O24       1.0  0.46048  0.55988  0.83918  1.0000 -0.5084925294
O   O25       1.0  0.39446  0.64996  0.87776  1.0000 -0.5403638085
O   O26       1.0  0.42234  0.37834  0.23394  1.0000 -0.5571507712
O   O27       1.0  0.32084  0.52014  0.17894  1.0000 -0.5156546782
O   O28       1.0  0.16362  0.20462  0.01302  1.0000 -0.7705736196
O   O29       1.0  0.24236  0.33236  0.82226  1.0000 -0.5084925294
O   O30       1.0  0.24765  0.25775  0.81715  1.0000 -0.5972042035
O   O31       1.0  0.24606  0.56916  0.42456  1.0000 -0.6190574567
O   O32       1.0  0.28447  0.42427  0.50287  1.0000 -0.4775210793
O   O33       1.0  0.03952  0.66082  0.94012  1.0000 -0.5084925294
O   O34       1.0  0.10554  0.62224  0.85004  1.0000 -0.5403638085
O   O35       1.0  0.07766  0.26606  0.12166  1.0000 -0.5571507712
O   O36       1.0  0.17916  0.32106  0.97986  1.0000 -0.5156546782
O   O37       1.0  0.20462  0.01302  0.16362  1.0000 -0.7705736196
O   O38       1.0  0.33236  0.82226  0.24236  1.0000 -0.5084925294
O   O39       1.0  0.25775  0.81715  0.24765  1.0000 -0.5972042035
O   O40       1.0  0.56916  0.42456  0.24606  1.0000 -0.6190574567
O   O41       1.0  0.42427  0.50287  0.28447  1.0000 -0.4775210793
O   O42       1.0  0.66082  0.94012  0.03952  1.0000 -0.5084925294
O   O43       1.0  0.62224  0.85004  0.10554  1.0000 -0.5403638085
O   O44       1.0  0.26606  0.12166  0.07766  1.0000 -0.5571507712
O   O45       1.0  0.32106  0.97986  0.17916  1.0000 -0.5156546782
O   O46       1.0  0.01302  0.16362  0.20462  1.0000 -0.7705736196
O   O47       1.0  0.82226  0.24236  0.33236  1.0000 -0.5084925294
O   O48       1.0  0.81715  0.24765  0.25775  1.0000 -0.5972042035
O   O49       1.0  0.42456  0.24606  0.56916  1.0000 -0.6190574567
O   O50       1.0  0.50287  0.28447  0.42427  1.0000 -0.4775210793
O   O51       1.0  0.94012  0.03952  0.66082  1.0000 -0.5084925294
O   O52       1.0  0.85004  0.10554  0.62224  1.0000 -0.5403638085
O   O53       1.0  0.12166  0.07766  0.26606  1.0000 -0.5571507712
O   O54       1.0  0.97986  0.17916  0.32106  1.0000 -0.5156546782
O   O55       1.0  0.70462  0.66362  0.51302  1.0000 -0.7705736196
O   O56       1.0  0.83236  0.74236  0.32226  1.0000 -0.5084925294
O   O57       1.0  0.75775  0.74765  0.31715  1.0000 -0.5972042035
O   O58       1.0  0.06916  0.74606  0.92456  1.0000 -0.6190574567
O   O59       1.0  0.92427  0.78447  0.00287  1.0000 -0.4775210793
O   O60       1.0  0.16082  0.53952  0.44012  1.0000 -0.5084925294
O   O61       1.0  0.12224  0.60554  0.35004  1.0000 -0.5403638085
O   O62       1.0  0.76606  0.57766  0.62166  1.0000 -0.5571507712
O   O63       1.0  0.82106  0.67916  0.47986  1.0000 -0.5156546782
O   O64       1.0  0.51302  0.70462  0.66362  1.0000 -0.7705736196
O   O65       1.0  0.32226  0.83236  0.74236  1.0000 -0.5084925294
O   O66       1.0  0.31715  0.75775  0.74765  1.0000 -0.5972042035
O   O67       1.0  0.92456  0.06916  0.74606  1.0000 -0.6190574567
O   O68       1.0  0.00287  0.92427  0.78447  1.0000 -0.4775210793
O   O69       1.0  0.44012  0.16082  0.53952  1.0000 -0.5084925294
O   O70       1.0  0.35004  0.12224  0.60554  1.0000 -0.5403638085
O   O71       1.0  0.62166  0.76606  0.57766  1.0000 -0.5571507712
O   O72       1.0  0.47986  0.82106  0.67916  1.0000 -0.5156546782
O   O73       1.0  0.66362  0.51302  0.70462  1.0000 -0.7705736196
O   O74       1.0  0.74236  0.32226  0.83236  1.0000 -0.5084925294
O   O75       1.0  0.74765  0.31715  0.75775  1.0000 -0.5972042035
O   O76       1.0  0.74606  0.92456  0.06916  1.0000 -0.6190574567
O   O77       1.0  0.78447  0.00287  0.92427  1.0000 -0.4775210793
O   O78       1.0  0.53952  0.44012  0.16082  1.0000 -0.5084925294
O   O79       1.0  0.60554  0.35004  0.12224  1.0000 -0.5403638085
O   O80       1.0  0.57766  0.62166  0.76606  1.0000 -0.5571507712
O   O81       1.0  0.67916  0.47986  0.82106  1.0000 -0.5156546782
O   O82       1.0  0.83638  0.79538  0.98698  1.0000 -0.7705736196
O   O83       1.0  0.75764  0.66764  0.17774  1.0000 -0.5084925294
O   O84       1.0  0.75235  0.74225  0.18285  1.0000 -0.5972042035
O   O85       1.0  0.75394  0.43084  0.57544  1.0000 -0.6190574567
O   O86       1.0  0.71553  0.57573  0.49713  1.0000 -0.4775210793
O   O87       1.0  0.96048  0.33918  0.05988  1.0000 -0.5084925294
O   O88       1.0  0.89446  0.37776  0.14996  1.0000 -0.5403638085
O   O89       1.0  0.92234  0.73394  0.87834  1.0000 -0.5571507712
O   O90       1.0  0.82084  0.67894  0.02014  1.0000 -0.5156546782
O   O91       1.0  0.79538  0.98698  0.83638  1.0000 -0.7705736196
O   O92       1.0  0.66764  0.17774  0.75764  1.0000 -0.5084925294
O   O93       1.0  0.74225  0.18285  0.75235  1.0000 -0.5972042035
O   O94       1.0  0.43084  0.57544  0.75394  1.0000 -0.6190574567
O   O95       1.0  0.57573  0.49713  0.71553  1.0000 -0.4775210793
O   O96       1.0  0.33918  0.05988  0.96048  1.0000 -0.5084925294
O   O97       1.0  0.37776  0.14996  0.89446  1.0000 -0.5403638085
O   O98       1.0  0.73394  0.87834  0.92234  1.0000 -0.5571507712
O   O99       1.0  0.67894  0.02014  0.82084  1.0000 -0.5156546782
O   O100      1.0  0.98698  0.83638  0.79538  1.0000 -0.7762344679
O   O101      1.0  0.17774  0.75764  0.66764  1.0000 -0.5084925294
O   O102      1.0  0.18285  0.75235  0.74225  1.0000 -0.5972042035
O   O103      1.0  0.57544  0.75394  0.43084  1.0000 -0.6190574567
O   O104      1.0  0.49713  0.71553  0.57573  1.0000 -0.4775210793
O   O105      1.0  0.05988  0.96048  0.33918  1.0000 -0.5084925294
O   O106      1.0  0.14996  0.89446  0.37776  1.0000 -0.5403638085
O   O107      1.0  0.87834  0.92234  0.73394  1.0000 -0.5571507712
O   O108      1.0  0.02014  0.82084  0.67894  1.0000 -0.5156546782
