# DDEC6 charges by PACMAN v1.1 (https://github.com/mtap-research/PACMAN-charge/)
data_2007[Cu][the]3[ION]1
_chemical_formula_sum              "Cu36 H120 C216 N96 Cl15"
_cell_length_a       29.03
_cell_length_b       29.03
_cell_length_c       29.03
_cell_angle_alpha    90
_cell_angle_beta     90
_cell_angle_gamma    90

_symmetry_space_group_name_H-M    "P 1"
_symmetry_Int_Tables_number       1

loop_
  _symmetry_equiv_pos_as_xyz
  'x, y, z'

loop_
  _atom_site_type_symbol
  _atom_site_label
  _atom_site_symmetry_multiplicity
  _atom_site_fract_x
  _atom_site_fract_y
  _atom_site_fract_z
  _atom_site_occupancy
  _atom_site_charge
Cu  Cu1       1.0  0.40181  0.00000  0.50000  1.0000 0.6507945097
Cu  Cu2       1.0  0.59819  0.00000  0.50000  1.0000 0.6507945097
Cu  Cu3       1.0  0.50000  0.40181  0.00000  1.0000 0.6507945097
Cu  Cu4       1.0  0.50000  0.59819  0.00000  1.0000 0.6507945097
Cu  Cu5       1.0  0.00000  0.50000  0.40181  1.0000 0.6507945097
Cu  Cu6       1.0  0.00000  0.50000  0.59819  1.0000 0.6507945097
Cu  Cu7       1.0  0.00000  0.40181  0.50000  1.0000 0.6507945097
Cu  Cu8       1.0  0.00000  0.59819  0.50000  1.0000 0.6507945097
Cu  Cu9       1.0  0.40181  0.50000  0.00000  1.0000 0.6507945097
Cu  Cu10      1.0  0.59819  0.50000  0.00000  1.0000 0.6507945097
Cu  Cu11      1.0  0.50000  0.00000  0.59819  1.0000 0.6507945097
Cu  Cu12      1.0  0.50000  0.00000  0.40181  1.0000 0.6507945097
Cu  Cu13      1.0  0.21573  0.13460  0.50000  1.0000 0.1768688465
Cu  Cu14      1.0  0.78427  0.86540  0.50000  1.0000 0.1730088199
Cu  Cu15      1.0  0.78427  0.13460  0.50000  1.0000 0.1768688465
Cu  Cu16      1.0  0.21573  0.86540  0.50000  1.0000 0.1730088199
Cu  Cu17      1.0  0.50000  0.21573  0.13460  1.0000 0.1768688465
Cu  Cu18      1.0  0.50000  0.78427  0.86540  1.0000 0.1730088199
Cu  Cu19      1.0  0.50000  0.78427  0.13460  1.0000 0.1730088199
Cu  Cu20      1.0  0.50000  0.21573  0.86540  1.0000 0.1730088199
Cu  Cu21      1.0  0.13460  0.50000  0.21573  1.0000 0.1768688465
Cu  Cu22      1.0  0.86540  0.50000  0.78427  1.0000 0.1730088199
Cu  Cu23      1.0  0.13460  0.50000  0.78427  1.0000 0.1730088199
Cu  Cu24      1.0  0.86540  0.50000  0.21573  1.0000 0.1730088199
Cu  Cu25      1.0  0.13460  0.21573  0.50000  1.0000 0.1768688465
Cu  Cu26      1.0  0.86540  0.78427  0.50000  1.0000 0.1730088199
Cu  Cu27      1.0  0.13460  0.78427  0.50000  1.0000 0.1730088199
Cu  Cu28      1.0  0.86540  0.21573  0.50000  1.0000 0.1768688465
Cu  Cu29      1.0  0.21573  0.50000  0.86540  1.0000 0.1730088199
Cu  Cu30      1.0  0.78427  0.50000  0.13460  1.0000 0.1768688465
Cu  Cu31      1.0  0.78427  0.50000  0.86540  1.0000 0.1730088199
Cu  Cu32      1.0  0.21573  0.50000  0.13460  1.0000 0.1730088199
Cu  Cu33      1.0  0.50000  0.13460  0.78427  1.0000 0.1730088199
Cu  Cu34      1.0  0.50000  0.86540  0.21573  1.0000 0.1730088199
Cu  Cu35      1.0  0.50000  0.13460  0.21573  1.0000 0.1768688465
Cu  Cu36      1.0  0.50000  0.86540  0.78427  1.0000 0.1730088199
H   H1        1.0  0.34678  0.16303  0.54838  1.0000 0.1084601806
H   H2        1.0  0.65322  0.83697  0.54838  1.0000 0.1084601806
H   H3        1.0  0.65322  0.16303  0.45162  1.0000 0.1084601806
H   H4        1.0  0.34678  0.83697  0.45162  1.0000 0.1084601806
H   H5        1.0  0.54838  0.34678  0.16303  1.0000 0.1084601806
H   H6        1.0  0.54838  0.65322  0.83697  1.0000 0.1084601806
H   H7        1.0  0.45162  0.65322  0.16303  1.0000 0.1084601806
H   H8        1.0  0.45162  0.34678  0.83697  1.0000 0.1084601806
H   H9        1.0  0.16303  0.54838  0.34678  1.0000 0.1084601806
H   H10       1.0  0.83697  0.54838  0.65322  1.0000 0.1084601806
H   H11       1.0  0.16303  0.45162  0.65322  1.0000 0.1084601806
H   H12       1.0  0.83697  0.45162  0.34678  1.0000 0.1084601806
H   H13       1.0  0.16303  0.34678  0.45162  1.0000 0.1084601806
H   H14       1.0  0.83697  0.65322  0.45162  1.0000 0.1084601806
H   H15       1.0  0.16303  0.65322  0.54838  1.0000 0.1084601806
H   H16       1.0  0.83697  0.34678  0.54838  1.0000 0.1084601806
H   H17       1.0  0.34678  0.54838  0.83697  1.0000 0.1084601806
H   H18       1.0  0.65322  0.54838  0.16303  1.0000 0.1084601806
H   H19       1.0  0.65322  0.45162  0.83697  1.0000 0.1084601806
H   H20       1.0  0.34678  0.45162  0.16303  1.0000 0.1084601806
H   H21       1.0  0.54838  0.16303  0.65322  1.0000 0.1084601806
H   H22       1.0  0.54838  0.83697  0.34678  1.0000 0.1084601806
H   H23       1.0  0.45162  0.16303  0.34678  1.0000 0.1084601806
H   H24       1.0  0.45162  0.83697  0.65322  1.0000 0.1084601806
H   H25       1.0  0.65322  0.83697  0.45162  1.0000 0.1084601806
H   H26       1.0  0.34678  0.16303  0.45162  1.0000 0.1084601806
H   H27       1.0  0.34678  0.83697  0.54838  1.0000 0.1084601806
H   H28       1.0  0.65322  0.16303  0.54838  1.0000 0.1084601806
H   H29       1.0  0.45162  0.65322  0.83697  1.0000 0.1084601806
H   H30       1.0  0.45162  0.34678  0.16303  1.0000 0.1084601806
H   H31       1.0  0.54838  0.34678  0.83697  1.0000 0.1084601806
H   H32       1.0  0.54838  0.65322  0.16303  1.0000 0.1084601806
H   H33       1.0  0.83697  0.45162  0.65322  1.0000 0.1084601806
H   H34       1.0  0.16303  0.45162  0.34678  1.0000 0.1084601806
H   H35       1.0  0.83697  0.54838  0.34678  1.0000 0.1084601806
H   H36       1.0  0.16303  0.54838  0.65322  1.0000 0.1084601806
H   H37       1.0  0.83697  0.65322  0.54838  1.0000 0.1084601806
H   H38       1.0  0.16303  0.34678  0.54838  1.0000 0.1084601806
H   H39       1.0  0.83697  0.34678  0.45162  1.0000 0.1084601806
H   H40       1.0  0.16303  0.65322  0.45162  1.0000 0.1084601806
H   H41       1.0  0.65322  0.45162  0.16303  1.0000 0.1084601806
H   H42       1.0  0.34678  0.45162  0.83697  1.0000 0.1084601806
H   H43       1.0  0.34678  0.54838  0.16303  1.0000 0.1084601806
H   H44       1.0  0.65322  0.54838  0.83697  1.0000 0.1084601806
H   H45       1.0  0.45162  0.83697  0.34678  1.0000 0.1084601806
H   H46       1.0  0.45162  0.16303  0.65322  1.0000 0.1084601806
H   H47       1.0  0.54838  0.83697  0.65322  1.0000 0.1084601806
H   H48       1.0  0.54838  0.16303  0.34678  1.0000 0.1084601806
H   H49       1.0  0.31959  0.23558  0.57408  1.0000 0.1036771411
H   H50       1.0  0.68041  0.76442  0.57408  1.0000 0.1084601806
H   H51       1.0  0.68041  0.23558  0.42592  1.0000 0.1036771411
H   H52       1.0  0.31959  0.76442  0.42592  1.0000 0.1036771411
H   H53       1.0  0.57408  0.31959  0.23558  1.0000 0.1036771411
H   H54       1.0  0.57408  0.68041  0.76442  1.0000 0.1084601806
H   H55       1.0  0.42592  0.68041  0.23558  1.0000 0.1036771411
H   H56       1.0  0.42592  0.31959  0.76442  1.0000 0.1036771411
H   H57       1.0  0.23558  0.57408  0.31959  1.0000 0.1036771411
H   H58       1.0  0.76442  0.57408  0.68041  1.0000 0.1084601806
H   H59       1.0  0.23558  0.42592  0.68041  1.0000 0.1036771411
H   H60       1.0  0.76442  0.42592  0.31959  1.0000 0.1036771411
H   H61       1.0  0.23558  0.31959  0.42592  1.0000 0.1036771411
H   H62       1.0  0.76442  0.68041  0.42592  1.0000 0.1036771411
H   H63       1.0  0.23558  0.68041  0.57408  1.0000 0.1036771411
H   H64       1.0  0.76442  0.31959  0.57408  1.0000 0.1036771411
H   H65       1.0  0.31959  0.57408  0.76442  1.0000 0.1036771411
H   H66       1.0  0.68041  0.57408  0.23558  1.0000 0.1036771411
H   H67       1.0  0.68041  0.42592  0.76442  1.0000 0.1036771411
H   H68       1.0  0.31959  0.42592  0.23558  1.0000 0.1036771411
H   H69       1.0  0.57408  0.23558  0.68041  1.0000 0.1036771411
H   H70       1.0  0.57408  0.76442  0.31959  1.0000 0.1036771411
H   H71       1.0  0.42592  0.23558  0.31959  1.0000 0.1036771411
H   H72       1.0  0.42592  0.76442  0.68041  1.0000 0.1036771411
H   H73       1.0  0.68041  0.76442  0.42592  1.0000 0.1036771411
H   H74       1.0  0.31959  0.23558  0.42592  1.0000 0.1036771411
H   H75       1.0  0.31959  0.76442  0.57408  1.0000 0.1036771411
H   H76       1.0  0.68041  0.23558  0.57408  1.0000 0.1036771411
H   H77       1.0  0.42592  0.68041  0.76442  1.0000 0.1036771411
H   H78       1.0  0.42592  0.31959  0.23558  1.0000 0.1036771411
H   H79       1.0  0.57408  0.31959  0.76442  1.0000 0.1036771411
H   H80       1.0  0.57408  0.68041  0.23558  1.0000 0.1036771411
H   H81       1.0  0.76442  0.42592  0.68041  1.0000 0.1036771411
H   H82       1.0  0.23558  0.42592  0.31959  1.0000 0.1036771411
H   H83       1.0  0.76442  0.57408  0.31959  1.0000 0.1036771411
H   H84       1.0  0.23558  0.57408  0.68041  1.0000 0.1036771411
H   H85       1.0  0.76442  0.68041  0.57408  1.0000 0.1084601806
H   H86       1.0  0.23558  0.31959  0.57408  1.0000 0.1036771411
H   H87       1.0  0.76442  0.31959  0.42592  1.0000 0.1036771411
H   H88       1.0  0.23558  0.68041  0.42592  1.0000 0.1036771411
H   H89       1.0  0.68041  0.42592  0.23558  1.0000 0.1036771411
H   H90       1.0  0.31959  0.42592  0.76442  1.0000 0.1036771411
H   H91       1.0  0.31959  0.57408  0.23558  1.0000 0.1036771411
H   H92       1.0  0.68041  0.57408  0.76442  1.0000 0.1084601806
H   H93       1.0  0.42592  0.76442  0.31959  1.0000 0.1036771411
H   H94       1.0  0.42592  0.23558  0.68041  1.0000 0.1036771411
H   H95       1.0  0.57408  0.76442  0.68041  1.0000 0.1036771411
H   H96       1.0  0.57408  0.23558  0.31959  1.0000 0.1036771411
H   H97       1.0  0.39919  0.29584  0.70416  1.0000 0.1036771411
H   H98       1.0  0.60081  0.70416  0.70416  1.0000 0.1036771411
H   H99       1.0  0.60081  0.29584  0.29584  1.0000 0.1036771411
H   H100      1.0  0.39919  0.70416  0.29584  1.0000 0.1036771411
H   H101      1.0  0.70416  0.39919  0.29584  1.0000 0.1036771411
H   H102      1.0  0.70416  0.60081  0.70416  1.0000 0.1036771411
H   H103      1.0  0.29584  0.60081  0.29584  1.0000 0.1036771411
H   H104      1.0  0.29584  0.39919  0.70416  1.0000 0.1036771411
H   H105      1.0  0.29584  0.70416  0.39919  1.0000 0.1036771411
H   H106      1.0  0.70416  0.70416  0.60081  1.0000 0.1036771411
H   H107      1.0  0.29584  0.29584  0.60081  1.0000 0.1036771411
H   H108      1.0  0.70416  0.29584  0.39919  1.0000 0.1036771411
H   H109      1.0  0.29584  0.39919  0.29584  1.0000 0.1036771411
H   H110      1.0  0.70416  0.60081  0.29584  1.0000 0.1036771411
H   H111      1.0  0.29584  0.60081  0.70416  1.0000 0.1036771411
H   H112      1.0  0.70416  0.39919  0.70416  1.0000 0.1036771411
H   H113      1.0  0.39919  0.70416  0.70416  1.0000 0.1036771411
H   H114      1.0  0.60081  0.70416  0.29584  1.0000 0.1036771411
H   H115      1.0  0.60081  0.29584  0.70416  1.0000 0.1036771411
H   H116      1.0  0.39919  0.29584  0.29584  1.0000 0.1036771411
H   H117      1.0  0.70416  0.29584  0.60081  1.0000 0.1036771411
H   H118      1.0  0.70416  0.70416  0.39919  1.0000 0.1036771411
H   H119      1.0  0.29584  0.29584  0.39919  1.0000 0.1036771411
H   H120      1.0  0.29584  0.70416  0.60081  1.0000 0.1036771411
C   C1        1.0  0.36407  0.17904  0.57732  1.0000 -0.092768547
C   C2        1.0  0.63593  0.82096  0.57732  1.0000 -0.092768547
C   C3        1.0  0.63593  0.17904  0.42268  1.0000 -0.092768547
C   C4        1.0  0.36407  0.82096  0.42268  1.0000 -0.092768547
C   C5        1.0  0.57732  0.36407  0.17904  1.0000 -0.092768547
C   C6        1.0  0.57732  0.63593  0.82096  1.0000 -0.092768547
C   C7        1.0  0.42268  0.63593  0.17904  1.0000 -0.092768547
C   C8        1.0  0.42268  0.36407  0.82096  1.0000 -0.092768547
C   C9        1.0  0.17904  0.57732  0.36407  1.0000 -0.092768547
C   C10       1.0  0.82096  0.57732  0.63593  1.0000 -0.092768547
C   C11       1.0  0.17904  0.42268  0.63593  1.0000 -0.092768547
C   C12       1.0  0.82096  0.42268  0.36407  1.0000 -0.092768547
C   C13       1.0  0.17904  0.36407  0.42268  1.0000 -0.092768547
C   C14       1.0  0.82096  0.63593  0.42268  1.0000 -0.092768547
C   C15       1.0  0.17904  0.63593  0.57732  1.0000 -0.092768547
C   C16       1.0  0.82096  0.36407  0.57732  1.0000 -0.092768547
C   C17       1.0  0.36407  0.57732  0.82096  1.0000 -0.092768547
C   C18       1.0  0.63593  0.57732  0.17904  1.0000 -0.092768547
C   C19       1.0  0.63593  0.42268  0.82096  1.0000 -0.092768547
C   C20       1.0  0.36407  0.42268  0.17904  1.0000 -0.092768547
C   C21       1.0  0.57732  0.17904  0.63593  1.0000 -0.092768547
C   C22       1.0  0.57732  0.82096  0.36407  1.0000 -0.092768547
C   C23       1.0  0.42268  0.17904  0.36407  1.0000 -0.092768547
C   C24       1.0  0.42268  0.82096  0.63593  1.0000 -0.092768547
C   C25       1.0  0.63593  0.82096  0.42268  1.0000 -0.092768547
C   C26       1.0  0.36407  0.17904  0.42268  1.0000 -0.092768547
C   C27       1.0  0.36407  0.82096  0.57732  1.0000 -0.092768547
C   C28       1.0  0.63593  0.17904  0.57732  1.0000 -0.092768547
C   C29       1.0  0.42268  0.63593  0.82096  1.0000 -0.092768547
C   C30       1.0  0.42268  0.36407  0.17904  1.0000 -0.092768547
C   C31       1.0  0.57732  0.36407  0.82096  1.0000 -0.092768547
C   C32       1.0  0.57732  0.63593  0.17904  1.0000 -0.092768547
C   C33       1.0  0.82096  0.42268  0.63593  1.0000 -0.092768547
C   C34       1.0  0.17904  0.42268  0.36407  1.0000 -0.092768547
C   C35       1.0  0.82096  0.57732  0.36407  1.0000 -0.092768547
C   C36       1.0  0.17904  0.57732  0.63593  1.0000 -0.092768547
C   C37       1.0  0.82096  0.63593  0.57732  1.0000 -0.092768547
C   C38       1.0  0.17904  0.36407  0.57732  1.0000 -0.092768547
C   C39       1.0  0.82096  0.36407  0.42268  1.0000 -0.092768547
C   C40       1.0  0.17904  0.63593  0.42268  1.0000 -0.092768547
C   C41       1.0  0.63593  0.42268  0.17904  1.0000 -0.092768547
C   C42       1.0  0.36407  0.42268  0.82096  1.0000 -0.092768547
C   C43       1.0  0.36407  0.57732  0.17904  1.0000 -0.092768547
C   C44       1.0  0.63593  0.57732  0.82096  1.0000 -0.092768547
C   C45       1.0  0.42268  0.82096  0.36407  1.0000 -0.092768547
C   C46       1.0  0.42268  0.17904  0.63593  1.0000 -0.092768547
C   C47       1.0  0.57732  0.82096  0.63593  1.0000 -0.092768547
C   C48       1.0  0.57732  0.17904  0.36407  1.0000 -0.092768547
C   C49       1.0  0.34837  0.22177  0.59283  1.0000 -0.1427322739
C   C50       1.0  0.65163  0.77823  0.59283  1.0000 -0.1427322739
C   C51       1.0  0.65163  0.22177  0.40717  1.0000 -0.1427322739
C   C52       1.0  0.34837  0.77823  0.40717  1.0000 -0.1427322739
C   C53       1.0  0.59283  0.34837  0.22177  1.0000 -0.1427322739
C   C54       1.0  0.59283  0.65163  0.77823  1.0000 -0.1427322739
C   C55       1.0  0.40717  0.65163  0.22177  1.0000 -0.1427322739
C   C56       1.0  0.40717  0.34837  0.77823  1.0000 -0.1427322739
C   C57       1.0  0.22177  0.59283  0.34837  1.0000 -0.1427322739
C   C58       1.0  0.77823  0.59283  0.65163  1.0000 -0.1427322739
C   C59       1.0  0.22177  0.40717  0.65163  1.0000 -0.1427322739
C   C60       1.0  0.77823  0.40717  0.34837  1.0000 -0.1427322739
C   C61       1.0  0.22177  0.34837  0.40717  1.0000 -0.1427322739
C   C62       1.0  0.77823  0.65163  0.40717  1.0000 -0.1427322739
C   C63       1.0  0.22177  0.65163  0.59283  1.0000 -0.1427322739
C   C64       1.0  0.77823  0.34837  0.59283  1.0000 -0.1427322739
C   C65       1.0  0.34837  0.59283  0.77823  1.0000 -0.1427322739
C   C66       1.0  0.65163  0.59283  0.22177  1.0000 -0.1427322739
C   C67       1.0  0.65163  0.40717  0.77823  1.0000 -0.1427322739
C   C68       1.0  0.34837  0.40717  0.22177  1.0000 -0.1427322739
C   C69       1.0  0.59283  0.22177  0.65163  1.0000 -0.1427322739
C   C70       1.0  0.59283  0.77823  0.34837  1.0000 -0.1427322739
C   C71       1.0  0.40717  0.22177  0.34837  1.0000 -0.1427322739
C   C72       1.0  0.40717  0.77823  0.65163  1.0000 -0.1427322739
C   C73       1.0  0.65163  0.77823  0.40717  1.0000 -0.1427322739
C   C74       1.0  0.34837  0.22177  0.40717  1.0000 -0.1427322739
C   C75       1.0  0.34837  0.77823  0.59283  1.0000 -0.1427322739
C   C76       1.0  0.65163  0.22177  0.59283  1.0000 -0.1427322739
C   C77       1.0  0.40717  0.65163  0.77823  1.0000 -0.1427322739
C   C78       1.0  0.40717  0.34837  0.22177  1.0000 -0.1427322739
C   C79       1.0  0.59283  0.34837  0.77823  1.0000 -0.1427322739
C   C80       1.0  0.59283  0.65163  0.22177  1.0000 -0.1427322739
C   C81       1.0  0.77823  0.40717  0.65163  1.0000 -0.1427322739
C   C82       1.0  0.22177  0.40717  0.34837  1.0000 -0.1427322739
C   C83       1.0  0.77823  0.59283  0.34837  1.0000 -0.1427322739
C   C84       1.0  0.22177  0.59283  0.65163  1.0000 -0.1427322739
C   C85       1.0  0.77823  0.65163  0.59283  1.0000 -0.1427322739
C   C86       1.0  0.22177  0.34837  0.59283  1.0000 -0.1427322739
C   C87       1.0  0.77823  0.34837  0.40717  1.0000 -0.1427322739
C   C88       1.0  0.22177  0.65163  0.40717  1.0000 -0.1427322739
C   C89       1.0  0.65163  0.40717  0.22177  1.0000 -0.1427322739
C   C90       1.0  0.34837  0.40717  0.77823  1.0000 -0.1427322739
C   C91       1.0  0.34837  0.59283  0.22177  1.0000 -0.1427322739
C   C92       1.0  0.65163  0.59283  0.77823  1.0000 -0.1427322739
C   C93       1.0  0.40717  0.77823  0.34837  1.0000 -0.1427322739
C   C94       1.0  0.40717  0.22177  0.65163  1.0000 -0.1427322739
C   C95       1.0  0.59283  0.77823  0.65163  1.0000 -0.1427322739
C   C96       1.0  0.59283  0.22177  0.34837  1.0000 -0.1427322739
C   C97       1.0  0.41606  0.11077  0.58394  1.0000 0.2868535903
C   C98       1.0  0.58394  0.88923  0.58394  1.0000 0.2868535903
C   C99       1.0  0.58394  0.11077  0.41606  1.0000 0.2868535903
C   C100      1.0  0.41606  0.88923  0.41606  1.0000 0.2868535903
C   C101      1.0  0.58394  0.41606  0.11077  1.0000 0.2868535903
C   C102      1.0  0.58394  0.58394  0.88923  1.0000 0.2868535903
C   C103      1.0  0.41606  0.58394  0.11077  1.0000 0.2868535903
C   C104      1.0  0.41606  0.41606  0.88923  1.0000 0.2868535903
C   C105      1.0  0.11077  0.58394  0.41606  1.0000 0.2868535903
C   C106      1.0  0.88923  0.58394  0.58394  1.0000 0.2868535903
C   C107      1.0  0.11077  0.41606  0.58394  1.0000 0.2868535903
C   C108      1.0  0.88923  0.41606  0.41606  1.0000 0.2868535903
C   C109      1.0  0.11077  0.41606  0.41606  1.0000 0.2868535903
C   C110      1.0  0.88923  0.58394  0.41606  1.0000 0.2868535903
C   C111      1.0  0.11077  0.58394  0.58394  1.0000 0.2868535903
C   C112      1.0  0.88923  0.41606  0.58394  1.0000 0.2868535903
C   C113      1.0  0.41606  0.58394  0.88923  1.0000 0.2868535903
C   C114      1.0  0.58394  0.58394  0.11077  1.0000 0.2868535903
C   C115      1.0  0.58394  0.41606  0.88923  1.0000 0.2868535903
C   C116      1.0  0.41606  0.41606  0.11077  1.0000 0.2868535903
C   C117      1.0  0.58394  0.11077  0.58394  1.0000 0.2868535903
C   C118      1.0  0.58394  0.88923  0.41606  1.0000 0.2868535903
C   C119      1.0  0.41606  0.11077  0.41606  1.0000 0.2868535903
C   C120      1.0  0.41606  0.88923  0.58394  1.0000 0.2868535903
C   C121      1.0  0.40088  0.15694  0.59912  1.0000 0.0242291465
C   C122      1.0  0.59912  0.84306  0.59912  1.0000 0.0242291465
C   C123      1.0  0.59912  0.15694  0.40088  1.0000 0.0242291465
C   C124      1.0  0.40088  0.84306  0.40088  1.0000 0.0242291465
C   C125      1.0  0.59912  0.40088  0.15694  1.0000 0.0242291465
C   C126      1.0  0.59912  0.59912  0.84306  1.0000 0.0242291465
C   C127      1.0  0.40088  0.59912  0.15694  1.0000 0.0242291465
C   C128      1.0  0.40088  0.40088  0.84306  1.0000 0.0242291465
C   C129      1.0  0.15694  0.59912  0.40088  1.0000 0.0242291465
C   C130      1.0  0.84306  0.59912  0.59912  1.0000 0.0242291465
C   C131      1.0  0.15694  0.40088  0.59912  1.0000 0.0242291465
C   C132      1.0  0.84306  0.40088  0.40088  1.0000 0.0242291465
C   C133      1.0  0.15694  0.40088  0.40088  1.0000 0.0242291465
C   C134      1.0  0.84306  0.59912  0.40088  1.0000 0.0242291465
C   C135      1.0  0.15694  0.59912  0.59912  1.0000 0.0242291465
C   C136      1.0  0.84306  0.40088  0.59912  1.0000 0.0242291465
C   C137      1.0  0.40088  0.59912  0.84306  1.0000 0.0242291465
C   C138      1.0  0.59912  0.59912  0.15694  1.0000 0.0242291465
C   C139      1.0  0.59912  0.40088  0.84306  1.0000 0.0242291465
C   C140      1.0  0.40088  0.40088  0.15694  1.0000 0.0242291465
C   C141      1.0  0.59912  0.15694  0.59912  1.0000 0.0242291465
C   C142      1.0  0.59912  0.84306  0.40088  1.0000 0.0242291465
C   C143      1.0  0.40088  0.15694  0.40088  1.0000 0.0242291465
C   C144      1.0  0.40088  0.84306  0.59912  1.0000 0.0242291465
C   C145      1.0  0.36889  0.24429  0.63111  1.0000 0.0694770713
C   C146      1.0  0.63111  0.75571  0.63111  1.0000 0.0694770713
C   C147      1.0  0.63111  0.24429  0.36889  1.0000 0.0694770713
C   C148      1.0  0.36889  0.75571  0.36889  1.0000 0.0694770713
C   C149      1.0  0.63111  0.36889  0.24429  1.0000 0.0694770713
C   C150      1.0  0.63111  0.63111  0.75571  1.0000 0.0694770713
C   C151      1.0  0.36889  0.63111  0.24429  1.0000 0.0694770713
C   C152      1.0  0.36889  0.36889  0.75571  1.0000 0.0694770713
C   C153      1.0  0.24429  0.63111  0.36889  1.0000 0.0694770713
C   C154      1.0  0.75571  0.63111  0.63111  1.0000 0.0694770713
C   C155      1.0  0.24429  0.36889  0.63111  1.0000 0.0694770713
C   C156      1.0  0.75571  0.36889  0.36889  1.0000 0.0694770713
C   C157      1.0  0.24429  0.36889  0.36889  1.0000 0.0694770713
C   C158      1.0  0.75571  0.63111  0.36889  1.0000 0.0694770713
C   C159      1.0  0.24429  0.63111  0.63111  1.0000 0.0694770713
C   C160      1.0  0.75571  0.36889  0.63111  1.0000 0.0694770713
C   C161      1.0  0.36889  0.63111  0.75571  1.0000 0.0694770713
C   C162      1.0  0.63111  0.63111  0.24429  1.0000 0.0694770713
C   C163      1.0  0.63111  0.36889  0.75571  1.0000 0.0694770713
C   C164      1.0  0.36889  0.36889  0.24429  1.0000 0.0694770713
C   C165      1.0  0.63111  0.24429  0.63111  1.0000 0.0694770713
C   C166      1.0  0.63111  0.75571  0.36889  1.0000 0.0694770713
C   C167      1.0  0.36889  0.24429  0.36889  1.0000 0.0694770713
C   C168      1.0  0.36889  0.75571  0.63111  1.0000 0.0694770713
C   C169      1.0  0.34955  0.28918  0.65045  1.0000 0.0816140919
C   C170      1.0  0.65045  0.71082  0.65045  1.0000 0.0816140919
C   C171      1.0  0.65045  0.28918  0.34955  1.0000 0.0816140919
C   C172      1.0  0.34955  0.71082  0.34955  1.0000 0.0816140919
C   C173      1.0  0.65045  0.34955  0.28918  1.0000 0.0816140919
C   C174      1.0  0.65045  0.65045  0.71082  1.0000 0.0816140919
C   C175      1.0  0.34955  0.65045  0.28918  1.0000 0.0816140919
C   C176      1.0  0.34955  0.34955  0.71082  1.0000 0.0816140919
C   C177      1.0  0.28918  0.65045  0.34955  1.0000 0.0816140919
C   C178      1.0  0.71082  0.65045  0.65045  1.0000 0.0816140919
C   C179      1.0  0.28918  0.34955  0.65045  1.0000 0.0816140919
C   C180      1.0  0.71082  0.34955  0.34955  1.0000 0.0816140919
C   C181      1.0  0.28918  0.34955  0.34955  1.0000 0.0816140919
C   C182      1.0  0.71082  0.65045  0.34955  1.0000 0.0816140919
C   C183      1.0  0.28918  0.65045  0.65045  1.0000 0.0816140919
C   C184      1.0  0.71082  0.34955  0.65045  1.0000 0.0816140919
C   C185      1.0  0.34955  0.65045  0.71082  1.0000 0.0816140919
C   C186      1.0  0.65045  0.65045  0.28918  1.0000 0.0816140919
C   C187      1.0  0.65045  0.34955  0.71082  1.0000 0.0816140919
C   C188      1.0  0.34955  0.34955  0.28918  1.0000 0.0816140919
C   C189      1.0  0.65045  0.28918  0.65045  1.0000 0.0816140919
C   C190      1.0  0.65045  0.71082  0.34955  1.0000 0.0816140919
C   C191      1.0  0.34955  0.28918  0.34955  1.0000 0.0816140919
C   C192      1.0  0.34955  0.71082  0.65045  1.0000 0.0816140919
C   C193      1.0  0.36890  0.31025  0.68975  1.0000 -0.1990736699
C   C194      1.0  0.63110  0.68975  0.68975  1.0000 -0.1990736699
C   C195      1.0  0.63110  0.31025  0.31025  1.0000 -0.1990736699
C   C196      1.0  0.36890  0.68975  0.31025  1.0000 -0.1990736699
C   C197      1.0  0.68975  0.36890  0.31025  1.0000 -0.1990736699
C   C198      1.0  0.68975  0.63110  0.68975  1.0000 -0.1990736699
C   C199      1.0  0.31025  0.63110  0.31025  1.0000 -0.1990736699
C   C200      1.0  0.31025  0.36890  0.68975  1.0000 -0.1990736699
C   C201      1.0  0.31025  0.68975  0.36890  1.0000 -0.1990736699
C   C202      1.0  0.68975  0.68975  0.63110  1.0000 -0.1990736699
C   C203      1.0  0.31025  0.31025  0.63110  1.0000 -0.1990736699
C   C204      1.0  0.68975  0.31025  0.36890  1.0000 -0.1990736699
C   C205      1.0  0.31025  0.36890  0.31025  1.0000 -0.1990736699
C   C206      1.0  0.68975  0.63110  0.31025  1.0000 -0.1990736699
C   C207      1.0  0.31025  0.63110  0.68975  1.0000 -0.1990736699
C   C208      1.0  0.68975  0.36890  0.68975  1.0000 -0.1990736699
C   C209      1.0  0.36890  0.68975  0.68975  1.0000 -0.1990736699
C   C210      1.0  0.63110  0.68975  0.31025  1.0000 -0.1990736699
C   C211      1.0  0.63110  0.31025  0.68975  1.0000 -0.1990736699
C   C212      1.0  0.36890  0.31025  0.31025  1.0000 -0.1990736699
C   C213      1.0  0.68975  0.31025  0.63110  1.0000 -0.1990736699
C   C214      1.0  0.68975  0.68975  0.36890  1.0000 -0.1990736699
C   C215      1.0  0.31025  0.31025  0.36890  1.0000 -0.1990736699
C   C216      1.0  0.31025  0.68975  0.63110  1.0000 -0.1990736699
N   N1        1.0  0.41998  0.04672  0.54607  1.0000 -0.0298324834
N   N2        1.0  0.58002  0.95328  0.54607  1.0000 -0.0298324834
N   N3        1.0  0.58002  0.04672  0.45393  1.0000 -0.0298324834
N   N4        1.0  0.41998  0.95328  0.45393  1.0000 -0.0298324834
N   N5        1.0  0.54607  0.41998  0.04672  1.0000 -0.0298324834
N   N6        1.0  0.54607  0.58002  0.95328  1.0000 -0.0298324834
N   N7        1.0  0.45393  0.58002  0.04672  1.0000 -0.0298324834
N   N8        1.0  0.45393  0.41998  0.95328  1.0000 -0.0298324834
N   N9        1.0  0.04672  0.54607  0.41998  1.0000 -0.0298324834
N   N10       1.0  0.95328  0.54607  0.58002  1.0000 -0.0298324834
N   N11       1.0  0.04672  0.45393  0.58002  1.0000 -0.0298324834
N   N12       1.0  0.95328  0.45393  0.41998  1.0000 -0.0298324834
N   N13       1.0  0.04672  0.41998  0.45393  1.0000 -0.0298324834
N   N14       1.0  0.95328  0.58002  0.45393  1.0000 -0.0298324834
N   N15       1.0  0.04672  0.58002  0.54607  1.0000 -0.0298324834
N   N16       1.0  0.95328  0.41998  0.54607  1.0000 -0.0298324834
N   N17       1.0  0.41998  0.54607  0.95328  1.0000 -0.0298324834
N   N18       1.0  0.58002  0.54607  0.04672  1.0000 -0.0298324834
N   N19       1.0  0.58002  0.45393  0.95328  1.0000 -0.0298324834
N   N20       1.0  0.41998  0.45393  0.04672  1.0000 -0.0298324834
N   N21       1.0  0.54607  0.04672  0.58002  1.0000 -0.0298324834
N   N22       1.0  0.54607  0.95328  0.41998  1.0000 -0.0298324834
N   N23       1.0  0.45393  0.04672  0.41998  1.0000 -0.0298324834
N   N24       1.0  0.45393  0.95328  0.58002  1.0000 -0.0298324834
N   N25       1.0  0.58002  0.95328  0.45393  1.0000 -0.0298324834
N   N26       1.0  0.41998  0.04672  0.45393  1.0000 -0.0298324834
N   N27       1.0  0.41998  0.95328  0.54607  1.0000 -0.0298324834
N   N28       1.0  0.58002  0.04672  0.54607  1.0000 -0.0298324834
N   N29       1.0  0.45393  0.58002  0.95328  1.0000 -0.0298324834
N   N30       1.0  0.45393  0.41998  0.04672  1.0000 -0.0298324834
N   N31       1.0  0.54607  0.41998  0.95328  1.0000 -0.0298324834
N   N32       1.0  0.54607  0.58002  0.04672  1.0000 -0.0298324834
N   N33       1.0  0.95328  0.45393  0.58002  1.0000 -0.0298324834
N   N34       1.0  0.04672  0.45393  0.41998  1.0000 -0.0298324834
N   N35       1.0  0.95328  0.54607  0.41998  1.0000 -0.0298324834
N   N36       1.0  0.04672  0.54607  0.58002  1.0000 -0.0298324834
N   N37       1.0  0.95328  0.58002  0.54607  1.0000 -0.0298324834
N   N38       1.0  0.04672  0.41998  0.54607  1.0000 -0.0298324834
N   N39       1.0  0.95328  0.41998  0.45393  1.0000 -0.0298324834
N   N40       1.0  0.04672  0.58002  0.45393  1.0000 -0.0298324834
N   N41       1.0  0.58002  0.45393  0.04672  1.0000 -0.0298324834
N   N42       1.0  0.41998  0.45393  0.95328  1.0000 -0.0298324834
N   N43       1.0  0.41998  0.54607  0.04672  1.0000 -0.0298324834
N   N44       1.0  0.58002  0.54607  0.95328  1.0000 -0.0298324834
N   N45       1.0  0.45393  0.95328  0.41998  1.0000 -0.0298324834
N   N46       1.0  0.45393  0.04672  0.58002  1.0000 -0.0298324834
N   N47       1.0  0.54607  0.95328  0.58002  1.0000 -0.0298324834
N   N48       1.0  0.54607  0.04672  0.41998  1.0000 -0.0298324834
N   N49       1.0  0.39669  0.08853  0.55031  1.0000 -0.2392337733
N   N50       1.0  0.60331  0.91147  0.55031  1.0000 -0.2392337733
N   N51       1.0  0.60331  0.08853  0.44969  1.0000 -0.2392337733
N   N52       1.0  0.39669  0.91147  0.44969  1.0000 -0.2392337733
N   N53       1.0  0.55031  0.39669  0.08853  1.0000 -0.2392337733
N   N54       1.0  0.55031  0.60331  0.91147  1.0000 -0.2392337733
N   N55       1.0  0.44969  0.60331  0.08853  1.0000 -0.2392337733
N   N56       1.0  0.44969  0.39669  0.91147  1.0000 -0.2392337733
N   N57       1.0  0.08853  0.55031  0.39669  1.0000 -0.2392337733
N   N58       1.0  0.91147  0.55031  0.60331  1.0000 -0.2392337733
N   N59       1.0  0.08853  0.44969  0.60331  1.0000 -0.2392337733
N   N60       1.0  0.91147  0.44969  0.39669  1.0000 -0.2392337733
N   N61       1.0  0.08853  0.39669  0.44969  1.0000 -0.2392337733
N   N62       1.0  0.91147  0.60331  0.44969  1.0000 -0.2392337733
N   N63       1.0  0.08853  0.60331  0.55031  1.0000 -0.2392337733
N   N64       1.0  0.91147  0.39669  0.55031  1.0000 -0.2392337733
N   N65       1.0  0.39669  0.55031  0.91147  1.0000 -0.2392337733
N   N66       1.0  0.60331  0.55031  0.08853  1.0000 -0.2392337733
N   N67       1.0  0.60331  0.44969  0.91147  1.0000 -0.2392337733
N   N68       1.0  0.39669  0.44969  0.08853  1.0000 -0.2392337733
N   N69       1.0  0.55031  0.08853  0.60331  1.0000 -0.2392337733
N   N70       1.0  0.55031  0.91147  0.39669  1.0000 -0.2392337733
N   N71       1.0  0.44969  0.08853  0.39669  1.0000 -0.2392337733
N   N72       1.0  0.44969  0.91147  0.60331  1.0000 -0.2392337733
N   N73       1.0  0.60331  0.91147  0.44969  1.0000 -0.2392337733
N   N74       1.0  0.39669  0.08853  0.44969  1.0000 -0.2392337733
N   N75       1.0  0.39669  0.91147  0.55031  1.0000 -0.2392337733
N   N76       1.0  0.60331  0.08853  0.55031  1.0000 -0.2392337733
N   N77       1.0  0.44969  0.60331  0.91147  1.0000 -0.2392337733
N   N78       1.0  0.44969  0.39669  0.08853  1.0000 -0.2392337733
N   N79       1.0  0.55031  0.39669  0.91147  1.0000 -0.2392337733
N   N80       1.0  0.55031  0.60331  0.08853  1.0000 -0.2392337733
N   N81       1.0  0.91147  0.44969  0.60331  1.0000 -0.2392337733
N   N82       1.0  0.08853  0.44969  0.39669  1.0000 -0.2392337733
N   N83       1.0  0.91147  0.55031  0.39669  1.0000 -0.2392337733
N   N84       1.0  0.08853  0.55031  0.60331  1.0000 -0.2392337733
N   N85       1.0  0.91147  0.60331  0.55031  1.0000 -0.2392337733
N   N86       1.0  0.08853  0.39669  0.55031  1.0000 -0.2392337733
N   N87       1.0  0.91147  0.39669  0.44969  1.0000 -0.2392337733
N   N88       1.0  0.08853  0.60331  0.44969  1.0000 -0.2392337733
N   N89       1.0  0.60331  0.44969  0.08853  1.0000 -0.2392337733
N   N90       1.0  0.39669  0.44969  0.91147  1.0000 -0.2392337733
N   N91       1.0  0.39669  0.55031  0.08853  1.0000 -0.2392337733
N   N92       1.0  0.60331  0.55031  0.91147  1.0000 -0.2392337733
N   N93       1.0  0.44969  0.91147  0.39669  1.0000 -0.2392337733
N   N94       1.0  0.44969  0.08853  0.60331  1.0000 -0.2392337733
N   N95       1.0  0.55031  0.91147  0.60331  1.0000 -0.2392337733
N   N96       1.0  0.55031  0.08853  0.39669  1.0000 -0.2392337733
Cl  Cl1       1.0  0.32443  0.00000  0.50000  1.0000 -0.4388656009
Cl  Cl2       1.0  0.67557  0.00000  0.50000  1.0000 -0.4388656009
Cl  Cl3       1.0  0.50000  0.32443  0.00000  1.0000 -0.4388656009
Cl  Cl4       1.0  0.50000  0.67557  0.00000  1.0000 -0.4388656009
Cl  Cl5       1.0  0.00000  0.50000  0.32443  1.0000 -0.4388656009
Cl  Cl6       1.0  0.00000  0.50000  0.67557  1.0000 -0.4388656009
Cl  Cl7       1.0  0.00000  0.32443  0.50000  1.0000 -0.4388656009
Cl  Cl8       1.0  0.00000  0.67557  0.50000  1.0000 -0.4388656009
Cl  Cl9       1.0  0.32443  0.50000  0.00000  1.0000 -0.4388656009
Cl  Cl10      1.0  0.67557  0.50000  0.00000  1.0000 -0.4388656009
Cl  Cl11      1.0  0.50000  0.00000  0.67557  1.0000 -0.4388656009
Cl  Cl12      1.0  0.50000  0.00000  0.32443  1.0000 -0.4388656009
Cl  Cl13      1.0  0.50000  0.00000  0.50000  1.0000 -0.5067402386
Cl  Cl14      1.0  0.50000  0.50000  0.00000  1.0000 -0.5067402386
Cl  Cl15      1.0  0.00000  0.50000  0.50000  1.0000 -0.5027021431
