# DDEC6 charges by PACMAN v1.1 (https://github.com/mtap-research/PACMAN-charge/)
data_2007[AgGa][ths]3[ION]1
_chemical_formula_sum              "Ga4 Ag4 P4 H120 C168 N36 F16"
_cell_length_a       16.6441
_cell_length_b       16.6441
_cell_length_c       33.146
_cell_angle_alpha    114.265
_cell_angle_beta     114.265
_cell_angle_gamma    45.4407

_symmetry_space_group_name_H-M    "P 1"
_symmetry_Int_Tables_number       1

loop_
  _symmetry_equiv_pos_as_xyz
  'x, y, z'

loop_
  _atom_site_type_symbol
  _atom_site_label
  _atom_site_symmetry_multiplicity
  _atom_site_fract_x
  _atom_site_fract_y
  _atom_site_fract_z
  _atom_site_occupancy
  _atom_site_charge
Ga  Ga1       1.0  0.54800  0.58218  0.41239  1.0000 0.9981109183
Ga  Ga2       1.0  0.41782  0.45200  0.08761  1.0000 0.9981109183
Ga  Ga3       1.0  0.45200  0.41782  0.58761  1.0000 0.9981109183
Ga  Ga4       1.0  0.58218  0.54800  0.91239  1.0000 0.9981109183
Ag  Ag1       1.0  0.01186  0.42214  0.22645  1.0000 0.2623225878
Ag  Ag2       1.0  0.57786  0.98814  0.27355  1.0000 0.2623225878
Ag  Ag3       1.0  0.98814  0.57786  0.77355  1.0000 0.2623225878
Ag  Ag4       1.0  0.42214  0.01186  0.72645  1.0000 0.2623225878
P   P1        1.0  0.19673  0.12951  0.21417  1.0000 1.4707008879
P   P2        1.0  0.87049  0.80327  0.28583  1.0000 1.4707008879
P   P3        1.0  0.80327  0.87049  0.78583  1.0000 1.4707008879
P   P4        1.0  0.12951  0.19673  0.71417  1.0000 1.4707008879
H   H1        1.0  0.74530  0.32070  0.37320  1.0000 0.0992591721
H   H2        1.0  0.71830  0.18230  0.31410  1.0000 0.1116214688
H   H3        1.0  0.50850  0.28430  0.29610  1.0000 0.1116214688
H   H4        1.0  0.14640  0.69600  0.36460  1.0000 0.1186083802
H   H5        1.0  0.12120  0.86760  0.42060  1.0000 0.1186083802
H   H6        1.0  0.31250  0.81810  0.44490  1.0000 0.0992591721
H   H7        1.0  0.36500  0.35140  0.34400  1.0000 0.1186083802
H   H8        1.0  0.24380  0.31420  0.29540  1.0000 0.0992591721
H   H9        1.0  0.08350  0.56010  0.23310  1.0000 0.0992591721
H   H10       1.0  0.20090  0.60570  0.27930  1.0000 0.1411453574
H   H11       1.0  0.36860  0.64740  0.94740  1.0000 0.0992591721
H   H12       1.0  0.36170  0.67750  0.02730  1.0000 0.1186083802
H   H13       1.0  0.55320  0.61140  0.07370  1.0000 0.1116214688
H   H14       1.0  0.93740  0.44860  0.03620  1.0000 0.1186083802
H   H15       1.0  0.98550  0.42190  0.96730  1.0000 0.1186083802
H   H16       1.0  0.81060  0.48020  0.90610  1.0000 0.0992591721
H   H17       1.0  0.77560  0.64520  0.09230  1.0000 0.1411453574
H   H18       1.0  0.87440  0.61120  0.16580  1.0000 0.1116214688
H   H19       1.0  0.89200  0.34860  0.14030  1.0000 0.1116214688
H   H20       1.0  0.78880  0.37860  0.06790  1.0000 0.1411453574
H   H21       1.0  0.34280  0.72040  0.33480  1.0000 0.0992591721
H   H22       1.0  0.35950  0.74250  0.26820  1.0000 0.1186083802
H   H23       1.0  0.56770  0.63270  0.27410  1.0000 0.1186083802
H   H24       1.0  0.94390  0.40990  0.39860  1.0000 0.1186083802
H   H25       1.0  0.97640  0.37280  0.47150  1.0000 0.1186083802
H   H26       1.0  0.78960  0.44900  0.47940  1.0000 0.0992591721
H   H27       1.0  0.87090  0.33630  0.30540  1.0000 0.1411453574
H   H28       1.0  0.97660  0.30240  0.26350  1.0000 0.0992591721
H   H29       1.0  0.82950  0.62570  0.28950  1.0000 0.0992591721
H   H30       1.0  0.71540  0.67280  0.33370  1.0000 0.1411453574
H   H31       1.0  0.67930  0.25470  0.12680  1.0000 0.0992591721
H   H32       1.0  0.81770  0.28170  0.18590  1.0000 0.1116214688
H   H33       1.0  0.71570  0.49150  0.20390  1.0000 0.1116214688
H   H34       1.0  0.30400  0.85360  0.13540  1.0000 0.1186083802
H   H35       1.0  0.13240  0.87880  0.07940  1.0000 0.1186083802
H   H36       1.0  0.18190  0.68750  0.05510  1.0000 0.0992591721
H   H37       1.0  0.64860  0.63500  0.15600  1.0000 0.1186083802
H   H38       1.0  0.68580  0.75620  0.20460  1.0000 0.0992591721
H   H39       1.0  0.43990  0.91650  0.26690  1.0000 0.0992591721
H   H40       1.0  0.39430  0.79910  0.22070  1.0000 0.1411453574
H   H41       1.0  0.35260  0.63140  0.55260  1.0000 0.0992591721
H   H42       1.0  0.32250  0.63830  0.47270  1.0000 0.1186083802
H   H43       1.0  0.38860  0.44680  0.42630  1.0000 0.1116214688
H   H44       1.0  0.55140  0.06260  0.46380  1.0000 0.1186083802
H   H45       1.0  0.57810  0.01450  0.53270  1.0000 0.1186083802
H   H46       1.0  0.51980  0.18940  0.59390  1.0000 0.0992591721
H   H47       1.0  0.35480  0.22440  0.40770  1.0000 0.1411453574
H   H48       1.0  0.38880  0.12560  0.33420  1.0000 0.1116214688
H   H49       1.0  0.65140  0.10800  0.35970  1.0000 0.1116214688
H   H50       1.0  0.62140  0.21120  0.43210  1.0000 0.1411453574
H   H51       1.0  0.27960  0.65720  0.16520  1.0000 0.0992591721
H   H52       1.0  0.25750  0.64050  0.23180  1.0000 0.1186083802
H   H53       1.0  0.36730  0.43230  0.22590  1.0000 0.1186083802
H   H54       1.0  0.59010  0.05610  0.10140  1.0000 0.1186083802
H   H55       1.0  0.62720  0.02360  0.02850  1.0000 0.1186083802
H   H56       1.0  0.55100  0.21040  0.02060  1.0000 0.0992591721
H   H57       1.0  0.66370  0.12910  0.19460  1.0000 0.1411453574
H   H58       1.0  0.69760  0.02340  0.23650  1.0000 0.0992591721
H   H59       1.0  0.37430  0.17050  0.21050  1.0000 0.0992591721
H   H60       1.0  0.32720  0.28460  0.16630  1.0000 0.1411453574
H   H61       1.0  0.25470  0.67930  0.62680  1.0000 0.0992591721
H   H62       1.0  0.28170  0.81770  0.68590  1.0000 0.1116214688
H   H63       1.0  0.49150  0.71570  0.70390  1.0000 0.1116214688
H   H64       1.0  0.85360  0.30400  0.63540  1.0000 0.1186083802
H   H65       1.0  0.87880  0.13240  0.57940  1.0000 0.1186083802
H   H66       1.0  0.68750  0.18190  0.55510  1.0000 0.0992591721
H   H67       1.0  0.63500  0.64860  0.65600  1.0000 0.1186083802
H   H68       1.0  0.75620  0.68580  0.70460  1.0000 0.0992591721
H   H69       1.0  0.91650  0.43990  0.76690  1.0000 0.0992591721
H   H70       1.0  0.79910  0.39430  0.72070  1.0000 0.1411453574
H   H71       1.0  0.63140  0.35260  0.05260  1.0000 0.0992591721
H   H72       1.0  0.63830  0.32250  0.97270  1.0000 0.1186083802
H   H73       1.0  0.44680  0.38860  0.92630  1.0000 0.1116214688
H   H74       1.0  0.06260  0.55140  0.96380  1.0000 0.1186083802
H   H75       1.0  0.01450  0.57810  0.03270  1.0000 0.1186083802
H   H76       1.0  0.18940  0.51980  0.09390  1.0000 0.0992591721
H   H77       1.0  0.22440  0.35480  0.90770  1.0000 0.1411453574
H   H78       1.0  0.12560  0.38880  0.83420  1.0000 0.1116214688
H   H79       1.0  0.10800  0.65140  0.85970  1.0000 0.1116214688
H   H80       1.0  0.21120  0.62140  0.93210  1.0000 0.1411453574
H   H81       1.0  0.65720  0.27960  0.66520  1.0000 0.0992591721
H   H82       1.0  0.64050  0.25750  0.73180  1.0000 0.1186083802
H   H83       1.0  0.43230  0.36730  0.72590  1.0000 0.1186083802
H   H84       1.0  0.05610  0.59010  0.60140  1.0000 0.1186083802
H   H85       1.0  0.02360  0.62720  0.52850  1.0000 0.1186083802
H   H86       1.0  0.21040  0.55100  0.52060  1.0000 0.0992591721
H   H87       1.0  0.12910  0.66370  0.69460  1.0000 0.1411453574
H   H88       1.0  0.02340  0.69760  0.73650  1.0000 0.0992591721
H   H89       1.0  0.17050  0.37430  0.71050  1.0000 0.0992591721
H   H90       1.0  0.28460  0.32720  0.66630  1.0000 0.1411453574
H   H91       1.0  0.32070  0.74530  0.87320  1.0000 0.0992591721
H   H92       1.0  0.18230  0.71830  0.81410  1.0000 0.1116214688
H   H93       1.0  0.28430  0.50850  0.79610  1.0000 0.1116214688
H   H94       1.0  0.69600  0.14640  0.86460  1.0000 0.1186083802
H   H95       1.0  0.86760  0.12120  0.92060  1.0000 0.1186083802
H   H96       1.0  0.81810  0.31250  0.94490  1.0000 0.0992591721
H   H97       1.0  0.35140  0.36500  0.84400  1.0000 0.1186083802
H   H98       1.0  0.31420  0.24380  0.79540  1.0000 0.0992591721
H   H99       1.0  0.56010  0.08350  0.73310  1.0000 0.0992591721
H   H100      1.0  0.60570  0.20090  0.77930  1.0000 0.1411453574
H   H101      1.0  0.64740  0.36860  0.44740  1.0000 0.0992591721
H   H102      1.0  0.67750  0.36170  0.52730  1.0000 0.1186083802
H   H103      1.0  0.61140  0.55320  0.57370  1.0000 0.1116214688
H   H104      1.0  0.44860  0.93740  0.53620  1.0000 0.1186083802
H   H105      1.0  0.42190  0.98550  0.46730  1.0000 0.1186083802
H   H106      1.0  0.48020  0.81060  0.40610  1.0000 0.0992591721
H   H107      1.0  0.64520  0.77560  0.59230  1.0000 0.1411453574
H   H108      1.0  0.61120  0.87440  0.66580  1.0000 0.1116214688
H   H109      1.0  0.34860  0.89200  0.64030  1.0000 0.1116214688
H   H110      1.0  0.37860  0.78880  0.56790  1.0000 0.1411453574
H   H111      1.0  0.72040  0.34280  0.83480  1.0000 0.0992591721
H   H112      1.0  0.74250  0.35950  0.76820  1.0000 0.1186083802
H   H113      1.0  0.63270  0.56770  0.77410  1.0000 0.1116214688
H   H114      1.0  0.40990  0.94390  0.89860  1.0000 0.1186083802
H   H115      1.0  0.37280  0.97640  0.97150  1.0000 0.1186083802
H   H116      1.0  0.44900  0.78960  0.97940  1.0000 0.0992591721
H   H117      1.0  0.33630  0.87090  0.80540  1.0000 0.1411453574
H   H118      1.0  0.30240  0.97660  0.76350  1.0000 0.0992591721
H   H119      1.0  0.62570  0.82950  0.78950  1.0000 0.0992591721
H   H120      1.0  0.67280  0.71540  0.83370  1.0000 0.1411453574
C   C1        1.0  0.67372  0.33672  0.36053  1.0000 0.0473810308
C   C2        1.0  0.65983  0.25823  0.32715  1.0000 -0.1701330798
C   C3        1.0  0.54522  0.31402  0.31768  1.0000 -0.2171368693
C   C4        1.0  0.49051  0.42431  0.34573  1.0000 0.1411453574
C   C5        1.0  0.37402  0.51002  0.34796  1.0000 -0.0660686214
C   C6        1.0  0.32033  0.61933  0.37556  1.0000 0.1411453574
C   C7        1.0  0.20425  0.70285  0.37988  1.0000 -0.2091820672
C   C8        1.0  0.19004  0.79744  0.41067  1.0000 -0.1701330798
C   C9        1.0  0.29754  0.76834  0.42396  1.0000 0.0418110154
C   C10       1.0  0.29703  0.48343  0.31750  1.0000 0.1186083802
C   C11       1.0  0.30742  0.39622  0.32135  1.0000 -0.1890686025
C   C12       1.0  0.23425  0.37505  0.29244  1.0000 0.0699995634
C   C13       1.0  0.14167  0.51767  0.25629  1.0000 0.0699995634
C   C14       1.0  0.21141  0.54561  0.28363  1.0000 -0.1846514662
C   C15       1.0  0.43063  0.62943  0.97223  1.0000 0.0418110154
C   C16       1.0  0.42566  0.64666  0.01702  1.0000 -0.130478086
C   C17       1.0  0.53019  0.61059  0.04219  1.0000 -0.200575001
C   C18       1.0  0.59946  0.57126  0.01300  1.0000 0.1411453574
C   C19       1.0  0.71129  0.53129  0.02416  1.0000 -0.0557684024
C   C20       1.0  0.77407  0.50547  0.99638  1.0000 0.1411453574
C   C21       1.0  0.88824  0.46364  0.00754  1.0000 -0.2091820672
C   C22       1.0  0.91502  0.44882  0.97002  1.0000 -0.1601886247
C   C23       1.0  0.81622  0.48182  0.93608  1.0000 0.0473810308
C   C24       1.0  0.77283  0.51403  0.07237  1.0000 0.1186083802
C   C25       1.0  0.79812  0.58392  0.10158  1.0000 -0.200575001
C   C26       1.0  0.85797  0.56237  0.14532  1.0000 0.0607662355
C   C27       1.0  0.86724  0.41044  0.13054  1.0000 0.075319616
C   C28       1.0  0.80667  0.42707  0.08722  1.0000 -0.1890686025
C   C29       1.0  0.41228  0.68948  0.32911  1.0000 0.0607662355
C   C30       1.0  0.42072  0.70152  0.29130  1.0000 -0.1601886247
C   C31       1.0  0.53442  0.64242  0.29492  1.0000 -0.2091820672
C   C32       1.0  0.59344  0.59864  0.33499  1.0000 0.1411453574
C   C33       1.0  0.71098  0.53438  0.35195  1.0000 -0.0424652827
C   C34       1.0  0.76969  0.49049  0.39174  1.0000 0.1334470007
C   C35       1.0  0.88781  0.43101  0.41108  1.0000 -0.200575001
C   C36       1.0  0.90582  0.41002  0.45072  1.0000 -0.1701330798
C   C37       1.0  0.80058  0.45378  0.45482  1.0000 0.0418110154
C   C38       1.0  0.78321  0.50841  0.32501  1.0000 0.1186083802
C   C39       1.0  0.86072  0.39812  0.30307  1.0000 -0.1846514662
C   C40       1.0  0.92280  0.37880  0.27797  1.0000 0.0607662355
C   C41       1.0  0.83785  0.56605  0.29289  1.0000 0.0925596188
C   C42       1.0  0.76911  0.59551  0.31982  1.0000 -0.200575001
C   C43       1.0  0.66328  0.32628  0.13947  1.0000 0.0473810308
C   C44       1.0  0.74177  0.34017  0.17285  1.0000 -0.1701330798
C   C45       1.0  0.68598  0.45478  0.18232  1.0000 -0.2171368693
C   C46       1.0  0.57569  0.50949  0.15427  1.0000 0.1411453574
C   C47       1.0  0.48998  0.62598  0.15204  1.0000 -0.0660686214
C   C48       1.0  0.38067  0.67967  0.12444  1.0000 0.1411453574
C   C49       1.0  0.29715  0.79575  0.12012  1.0000 -0.200575001
C   C50       1.0  0.20256  0.80996  0.08933  1.0000 -0.1701330798
C   C51       1.0  0.23166  0.70246  0.07604  1.0000 0.0418110154
C   C52       1.0  0.51657  0.70297  0.18250  1.0000 0.1186083802
C   C53       1.0  0.60378  0.69258  0.17865  1.0000 -0.1890686025
C   C54       1.0  0.62495  0.76575  0.20756  1.0000 0.0699995634
C   C55       1.0  0.48233  0.85833  0.24371  1.0000 0.0699995634
C   C56       1.0  0.45439  0.78859  0.21637  1.0000 -0.1846514662
C   C57       1.0  0.37057  0.56937  0.52777  1.0000 0.0418110154
C   C58       1.0  0.35334  0.57434  0.48298  1.0000 -0.130478086
C   C59       1.0  0.38941  0.46981  0.45781  1.0000 -0.200575001
C   C60       1.0  0.42874  0.40054  0.48700  1.0000 0.1411453574
C   C61       1.0  0.46871  0.28871  0.47584  1.0000 -0.0557684024
C   C62       1.0  0.49453  0.22593  0.50362  1.0000 0.1411453574
C   C63       1.0  0.53636  0.11176  0.49246  1.0000 -0.2091820672
C   C64       1.0  0.55118  0.08498  0.52998  1.0000 -0.1601886247
C   C65       1.0  0.51818  0.18378  0.56392  1.0000 0.0473810308
C   C66       1.0  0.48597  0.22717  0.42763  1.0000 0.1186083802
C   C67       1.0  0.41608  0.20188  0.39842  1.0000 -0.200575001
C   C68       1.0  0.43763  0.14203  0.35468  1.0000 0.0607662355
C   C69       1.0  0.58956  0.13276  0.36946  1.0000 0.075319616
C   C70       1.0  0.57293  0.19333  0.41278  1.0000 -0.1890686025
C   C71       1.0  0.31052  0.58772  0.17089  1.0000 0.0607662355
C   C72       1.0  0.29848  0.57928  0.20870  1.0000 -0.1601886247
C   C73       1.0  0.35758  0.46558  0.20508  1.0000 -0.2091820672
C   C74       1.0  0.40136  0.40656  0.16501  1.0000 0.1411453574
C   C75       1.0  0.46562  0.28902  0.14805  1.0000 -0.0424652827
C   C76       1.0  0.50951  0.23031  0.10826  1.0000 0.1334470007
C   C77       1.0  0.56899  0.11219  0.08892  1.0000 -0.200575001
C   C78       1.0  0.58998  0.09418  0.04928  1.0000 -0.1701330798
C   C79       1.0  0.54622  0.19942  0.04518  1.0000 0.0418110154
C   C80       1.0  0.49159  0.21679  0.17499  1.0000 0.1186083802
C   C81       1.0  0.60188  0.13928  0.19693  1.0000 -0.1846514662
C   C82       1.0  0.62120  0.07720  0.22203  1.0000 0.0607662355
C   C83       1.0  0.43395  0.16215  0.20711  1.0000 0.0925596188
C   C84       1.0  0.40449  0.23089  0.18018  1.0000 -0.200575001
C   C85       1.0  0.32628  0.66328  0.63947  1.0000 0.0473810308
C   C86       1.0  0.34017  0.74177  0.67285  1.0000 -0.1701330798
C   C87       1.0  0.45478  0.68598  0.68232  1.0000 -0.2171368693
C   C88       1.0  0.50949  0.57569  0.65427  1.0000 0.1411453574
C   C89       1.0  0.62598  0.48998  0.65204  1.0000 -0.0660686214
C   C90       1.0  0.67967  0.38067  0.62444  1.0000 0.1411453574
C   C91       1.0  0.79575  0.29715  0.62012  1.0000 -0.200575001
C   C92       1.0  0.80996  0.20256  0.58933  1.0000 -0.1701330798
C   C93       1.0  0.70246  0.23166  0.57604  1.0000 0.0418110154
C   C94       1.0  0.70297  0.51657  0.68250  1.0000 0.1186083802
C   C95       1.0  0.69258  0.60378  0.67865  1.0000 -0.1890686025
C   C96       1.0  0.76575  0.62495  0.70756  1.0000 0.0699995634
C   C97       1.0  0.85833  0.48233  0.74371  1.0000 0.0699995634
C   C98       1.0  0.78859  0.45439  0.71637  1.0000 -0.1846514662
C   C99       1.0  0.56937  0.37057  0.02777  1.0000 0.0418110154
C   C100      1.0  0.57434  0.35334  0.98298  1.0000 -0.130478086
C   C101      1.0  0.46981  0.38941  0.95781  1.0000 -0.200575001
C   C102      1.0  0.40054  0.42874  0.98700  1.0000 0.1411453574
C   C103      1.0  0.28871  0.46871  0.97584  1.0000 -0.0557684024
C   C104      1.0  0.22593  0.49453  0.00362  1.0000 0.1411453574
C   C105      1.0  0.11176  0.53636  0.99246  1.0000 -0.2091820672
C   C106      1.0  0.08498  0.55118  0.02998  1.0000 -0.1601886247
C   C107      1.0  0.18378  0.51818  0.06392  1.0000 0.0473810308
C   C108      1.0  0.22717  0.48597  0.92763  1.0000 0.1186083802
C   C109      1.0  0.20188  0.41608  0.89842  1.0000 -0.200575001
C   C110      1.0  0.14203  0.43763  0.85468  1.0000 0.0607662355
C   C111      1.0  0.13276  0.58956  0.86946  1.0000 0.075319616
C   C112      1.0  0.19333  0.57293  0.91278  1.0000 -0.1890686025
C   C113      1.0  0.58772  0.31052  0.67089  1.0000 0.0607662355
C   C114      1.0  0.57928  0.29848  0.70870  1.0000 -0.1601886247
C   C115      1.0  0.46558  0.35758  0.70508  1.0000 -0.2091820672
C   C116      1.0  0.40656  0.40136  0.66501  1.0000 0.1411453574
C   C117      1.0  0.28902  0.46562  0.64805  1.0000 -0.0424652827
C   C118      1.0  0.23031  0.50951  0.60826  1.0000 0.1334470007
C   C119      1.0  0.11219  0.56899  0.58892  1.0000 -0.200575001
C   C120      1.0  0.09418  0.58998  0.54928  1.0000 -0.1701330798
C   C121      1.0  0.19942  0.54622  0.54518  1.0000 0.0418110154
C   C122      1.0  0.21679  0.49159  0.67499  1.0000 0.1186083802
C   C123      1.0  0.13928  0.60188  0.69693  1.0000 -0.1890686025
C   C124      1.0  0.07720  0.62120  0.72203  1.0000 0.0607662355
C   C125      1.0  0.16215  0.43395  0.70711  1.0000 0.0925596188
C   C126      1.0  0.23089  0.40449  0.68018  1.0000 -0.200575001
C   C127      1.0  0.33672  0.67372  0.86053  1.0000 0.0473810308
C   C128      1.0  0.25823  0.65983  0.82715  1.0000 -0.1701330798
C   C129      1.0  0.31402  0.54522  0.81768  1.0000 -0.2171368693
C   C130      1.0  0.42431  0.49051  0.84573  1.0000 0.1411453574
C   C131      1.0  0.51002  0.37402  0.84796  1.0000 -0.0660686214
C   C132      1.0  0.61933  0.32033  0.87556  1.0000 0.1411453574
C   C133      1.0  0.70285  0.20425  0.87988  1.0000 -0.200575001
C   C134      1.0  0.79744  0.19004  0.91067  1.0000 -0.1701330798
C   C135      1.0  0.76834  0.29754  0.92396  1.0000 0.0418110154
C   C136      1.0  0.48343  0.29703  0.81750  1.0000 0.1186083802
C   C137      1.0  0.39622  0.30742  0.82135  1.0000 -0.1890686025
C   C138      1.0  0.37505  0.23425  0.79244  1.0000 0.0699995634
C   C139      1.0  0.51767  0.14167  0.75629  1.0000 0.0699995634
C   C140      1.0  0.54561  0.21141  0.78363  1.0000 -0.1846514662
C   C141      1.0  0.62943  0.43063  0.47223  1.0000 0.0418110154
C   C142      1.0  0.64666  0.42566  0.51702  1.0000 -0.130478086
C   C143      1.0  0.61059  0.53019  0.54219  1.0000 -0.200575001
C   C144      1.0  0.57126  0.59946  0.51300  1.0000 0.1411453574
C   C145      1.0  0.53129  0.71129  0.52416  1.0000 -0.0557684024
C   C146      1.0  0.50547  0.77407  0.49638  1.0000 0.1411453574
C   C147      1.0  0.46364  0.88824  0.50754  1.0000 -0.2091820672
C   C148      1.0  0.44882  0.91502  0.47002  1.0000 -0.1601886247
C   C149      1.0  0.48182  0.81622  0.43608  1.0000 0.0473810308
C   C150      1.0  0.51403  0.77283  0.57237  1.0000 0.1186083802
C   C151      1.0  0.58392  0.79812  0.60158  1.0000 -0.200575001
C   C152      1.0  0.56237  0.85797  0.64532  1.0000 0.0607662355
C   C153      1.0  0.41044  0.86724  0.63054  1.0000 0.075319616
C   C154      1.0  0.42707  0.80667  0.58722  1.0000 -0.1890686025
C   C155      1.0  0.68948  0.41228  0.82911  1.0000 0.0607662355
C   C156      1.0  0.70152  0.42072  0.79130  1.0000 -0.1601886247
C   C157      1.0  0.64242  0.53442  0.79492  1.0000 -0.2091820672
C   C158      1.0  0.59864  0.59344  0.83499  1.0000 0.1411453574
C   C159      1.0  0.53438  0.71098  0.85195  1.0000 -0.0424652827
C   C160      1.0  0.49049  0.76969  0.89174  1.0000 0.1334470007
C   C161      1.0  0.43101  0.88781  0.91108  1.0000 -0.200575001
C   C162      1.0  0.41002  0.90582  0.95072  1.0000 -0.1701330798
C   C163      1.0  0.45378  0.80058  0.95482  1.0000 0.0418110154
C   C164      1.0  0.50841  0.78321  0.82501  1.0000 0.1186083802
C   C165      1.0  0.39812  0.86072  0.80307  1.0000 -0.1890686025
C   C166      1.0  0.37880  0.92280  0.77797  1.0000 0.0607662355
C   C167      1.0  0.56605  0.83785  0.79289  1.0000 0.0925596188
C   C168      1.0  0.59551  0.76911  0.81982  1.0000 -0.200575001
N   N1        1.0  0.57416  0.43556  0.37191  1.0000 -0.3498875965
N   N2        1.0  0.37745  0.66245  0.40390  1.0000 -0.3582660575
N   N3        1.0  0.15145  0.43505  0.26070  1.0000 -0.200575001
N   N4        1.0  0.53343  0.58483  0.96922  1.0000 -0.3498875965
N   N5        1.0  0.73123  0.51583  0.95114  1.0000 -0.3416258861
N   N6        1.0  0.89253  0.47653  0.15933  1.0000 -0.200575001
N   N7        1.0  0.51471  0.62911  0.35542  1.0000 -0.3416258861
N   N8        1.0  0.71744  0.50304  0.42055  1.0000 -0.3416258861
N   N9        1.0  0.91121  0.46201  0.27285  1.0000 -0.2091820672
N   N10       1.0  0.56444  0.42584  0.12809  1.0000 -0.3498875965
N   N11       1.0  0.33755  0.62255  0.09610  1.0000 -0.3582660575
N   N12       1.0  0.56495  0.84855  0.23930  1.0000 -0.200575001
N   N13       1.0  0.41517  0.46657  0.53078  1.0000 -0.3498875965
N   N14       1.0  0.48417  0.26877  0.54886  1.0000 -0.3416258861
N   N15       1.0  0.52347  0.10747  0.34067  1.0000 -0.200575001
N   N16       1.0  0.37089  0.48529  0.14458  1.0000 -0.3416258861
N   N17       1.0  0.49696  0.28256  0.07945  1.0000 -0.3416258861
N   N18       1.0  0.53799  0.08879  0.22715  1.0000 -0.2091820672
N   N19       1.0  0.42584  0.56444  0.62809  1.0000 -0.3498875965
N   N20       1.0  0.62255  0.33755  0.59610  1.0000 -0.3582660575
N   N21       1.0  0.84855  0.56495  0.73930  1.0000 -0.200575001
N   N22       1.0  0.46657  0.41517  0.03078  1.0000 -0.3498875965
N   N23       1.0  0.26877  0.48417  0.04886  1.0000 -0.3416258861
N   N24       1.0  0.10747  0.52347  0.84067  1.0000 -0.200575001
N   N25       1.0  0.48529  0.37089  0.64458  1.0000 -0.3416258861
N   N26       1.0  0.28256  0.49696  0.57945  1.0000 -0.3416258861
N   N27       1.0  0.08879  0.53799  0.72715  1.0000 -0.2091820672
N   N28       1.0  0.43556  0.57416  0.87191  1.0000 -0.3498875965
N   N29       1.0  0.66245  0.37745  0.90390  1.0000 -0.3582660575
N   N30       1.0  0.43505  0.15145  0.76070  1.0000 -0.200575001
N   N31       1.0  0.58483  0.53343  0.46922  1.0000 -0.3498875965
N   N32       1.0  0.51583  0.73123  0.45114  1.0000 -0.3416258861
N   N33       1.0  0.47653  0.89253  0.65933  1.0000 -0.200575001
N   N34       1.0  0.62911  0.51471  0.85542  1.0000 -0.3416258861
N   N35       1.0  0.50304  0.71744  0.92055  1.0000 -0.3416258861
N   N36       1.0  0.46201  0.91121  0.77285  1.0000 -0.2091820672
F   F1        1.0  0.20015  0.03375  0.21176  1.0000 -0.4373345692
F   F2        1.0  0.27901  0.05201  0.18031  1.0000 -0.4373345692
F   F3        1.0  0.08420  0.22260  0.19716  1.0000 -0.4910749887
F   F4        1.0  0.26195  0.14155  0.25654  1.0000 -0.502539957
F   F5        1.0  0.96625  0.79985  0.28824  1.0000 -0.4373345692
F   F6        1.0  0.94799  0.72099  0.31969  1.0000 -0.4373345692
F   F7        1.0  0.77740  0.91580  0.30284  1.0000 -0.4910749887
F   F8        1.0  0.85845  0.73805  0.24346  1.0000 -0.502539957
F   F9        1.0  0.79985  0.96625  0.78824  1.0000 -0.4373345692
F   F10       1.0  0.72099  0.94799  0.81969  1.0000 -0.4373345692
F   F11       1.0  0.91580  0.77740  0.80284  1.0000 -0.4910749887
F   F12       1.0  0.73805  0.85845  0.74346  1.0000 -0.502539957
F   F13       1.0  0.03375  0.20015  0.71176  1.0000 -0.4373345692
F   F14       1.0  0.05201  0.27901  0.68031  1.0000 -0.4373345692
F   F15       1.0  0.22260  0.08420  0.69716  1.0000 -0.4910749887
F   F16       1.0  0.14155  0.26195  0.75654  1.0000 -0.502539957
