# DDEC6 charges by PACMAN v1.1 (https://github.com/mtap-research/PACMAN-charge/)
data_2007[MnV][nan]3[ION]1
_chemical_formula_sum              "Mn4 V32 H64 C80 N16 Cl2 O80"
_cell_length_a       17.266
_cell_length_b       17.266
_cell_length_c       14.916
_cell_angle_alpha    90
_cell_angle_beta     90
_cell_angle_gamma    90

_symmetry_space_group_name_H-M    "P 1"
_symmetry_Int_Tables_number       1

loop_
  _symmetry_equiv_pos_as_xyz
  'x, y, z'

loop_
  _atom_site_type_symbol
  _atom_site_label
  _atom_site_symmetry_multiplicity
  _atom_site_fract_x
  _atom_site_fract_y
  _atom_site_fract_z
  _atom_site_occupancy
  _atom_site_charge
Mn  Mn1       1.0  0.24275  0.25725  0.25000  1.0000 0.7965748087
Mn  Mn2       1.0  0.75725  0.74275  0.25000  1.0000 0.7965748087
Mn  Mn3       1.0  0.74275  0.24275  0.75000  1.0000 0.7965748087
Mn  Mn4       1.0  0.25725  0.75725  0.75000  1.0000 0.7965748087
V   V1        1.0  0.10937  0.12162  0.12577  1.0000 1.950003691
V   V2        1.0  0.89063  0.87838  0.12577  1.0000 1.950003691
V   V3        1.0  0.87838  0.10937  0.87423  1.0000 1.950003691
V   V4        1.0  0.12162  0.89063  0.87423  1.0000 1.950003691
V   V5        1.0  0.39063  0.62162  0.62577  1.0000 1.950003691
V   V6        1.0  0.60937  0.37838  0.62577  1.0000 1.950003691
V   V7        1.0  0.62162  0.60937  0.37423  1.0000 1.950003691
V   V8        1.0  0.37838  0.39063  0.37423  1.0000 1.950003691
V   V9        1.0  0.93030  0.06229  0.22768  1.0000 1.7274278924
V   V10       1.0  0.06970  0.93771  0.22768  1.0000 1.7274278924
V   V11       1.0  0.93771  0.93030  0.77232  1.0000 1.7274278924
V   V12       1.0  0.06229  0.06970  0.77232  1.0000 1.7274278924
V   V13       1.0  0.56970  0.56229  0.72768  1.0000 1.7274278924
V   V14       1.0  0.43030  0.43771  0.72768  1.0000 1.7274278924
V   V15       1.0  0.56229  0.43030  0.27232  1.0000 1.7274278924
V   V16       1.0  0.43771  0.56970  0.27232  1.0000 1.7274278924
V   V17       1.0  0.94895  0.18089  0.08636  1.0000 1.9314664975
V   V18       1.0  0.05105  0.81911  0.08636  1.0000 1.9314664975
V   V19       1.0  0.81911  0.94895  0.91364  1.0000 1.9314664975
V   V20       1.0  0.18089  0.05105  0.91364  1.0000 1.9314664975
V   V21       1.0  0.55105  0.68089  0.58636  1.0000 1.9314664975
V   V22       1.0  0.44895  0.31911  0.58636  1.0000 1.9314664975
V   V23       1.0  0.68089  0.44895  0.41364  1.0000 1.9314664975
V   V24       1.0  0.31911  0.55105  0.41364  1.0000 1.9314664975
V   V25       1.0  0.03002  0.18608  0.91494  1.0000 1.9314664975
V   V26       1.0  0.96998  0.81392  0.91494  1.0000 1.9314664975
V   V27       1.0  0.81392  0.03002  0.08506  1.0000 1.9314664975
V   V28       1.0  0.18608  0.96998  0.08506  1.0000 1.9314664975
V   V29       1.0  0.46998  0.68608  0.41494  1.0000 1.9314664975
V   V30       1.0  0.53002  0.31392  0.41494  1.0000 1.9314664975
V   V31       1.0  0.68608  0.53002  0.58506  1.0000 1.9314664975
V   V32       1.0  0.31392  0.46998  0.58506  1.0000 1.9314664975
H   H1        1.0  0.42230  0.25290  0.23830  1.0000 0.1096697178
H   H2        1.0  0.57770  0.74710  0.23830  1.0000 0.1096697178
H   H3        1.0  0.74710  0.42230  0.76170  1.0000 0.1096697178
H   H4        1.0  0.25290  0.57770  0.76170  1.0000 0.1096697178
H   H5        1.0  0.07770  0.75290  0.73830  1.0000 0.1096697178
H   H6        1.0  0.92230  0.24710  0.73830  1.0000 0.1096697178
H   H7        1.0  0.75290  0.92230  0.26170  1.0000 0.1096697178
H   H8        1.0  0.24710  0.07770  0.26170  1.0000 0.1096697178
H   H9        1.0  0.52390  0.24450  0.14050  1.0000 0.1387995246
H   H10       1.0  0.47610  0.75550  0.14050  1.0000 0.1387995246
H   H11       1.0  0.75550  0.52390  0.85950  1.0000 0.1387995246
H   H12       1.0  0.24450  0.47610  0.85950  1.0000 0.1387995246
H   H13       1.0  0.97610  0.74450  0.64050  1.0000 0.1387995246
H   H14       1.0  0.02390  0.25550  0.64050  1.0000 0.1387995246
H   H15       1.0  0.74450  0.02390  0.35950  1.0000 0.1387995246
H   H16       1.0  0.25550  0.97610  0.35950  1.0000 0.1387995246
H   H17       1.0  0.27690  0.18450  0.05730  1.0000 0.1096697178
H   H18       1.0  0.72310  0.81550  0.05730  1.0000 0.1096697178
H   H19       1.0  0.81550  0.27690  0.94270  1.0000 0.1096697178
H   H20       1.0  0.18450  0.72310  0.94270  1.0000 0.1096697178
H   H21       1.0  0.22310  0.68450  0.55730  1.0000 0.1096697178
H   H22       1.0  0.77690  0.31550  0.55730  1.0000 0.1096697178
H   H23       1.0  0.68450  0.77690  0.44270  1.0000 0.1096697178
H   H24       1.0  0.31550  0.22310  0.44270  1.0000 0.1096697178
H   H25       1.0  0.37510  0.16910  0.95490  1.0000 0.133823283
H   H26       1.0  0.62490  0.83090  0.95490  1.0000 0.133823283
H   H27       1.0  0.83090  0.37510  0.04510  1.0000 0.133823283
H   H28       1.0  0.16910  0.62490  0.04510  1.0000 0.133823283
H   H29       1.0  0.12490  0.66910  0.45490  1.0000 0.133823283
H   H30       1.0  0.87510  0.33090  0.45490  1.0000 0.133823283
H   H31       1.0  0.66910  0.87510  0.54510  1.0000 0.133823283
H   H32       1.0  0.33090  0.12490  0.54510  1.0000 0.133823283
H   H33       1.0  0.56290  0.24060  0.76060  1.0000 0.1096697178
H   H34       1.0  0.43710  0.75940  0.76060  1.0000 0.1096697178
H   H35       1.0  0.75940  0.56290  0.23940  1.0000 0.1096697178
H   H36       1.0  0.24060  0.43710  0.23940  1.0000 0.1096697178
H   H37       1.0  0.93710  0.74060  0.26060  1.0000 0.1096697178
H   H38       1.0  0.06290  0.25940  0.26060  1.0000 0.1096697178
H   H39       1.0  0.74060  0.06290  0.73940  1.0000 0.1096697178
H   H40       1.0  0.25940  0.93710  0.73940  1.0000 0.1096697178
H   H41       1.0  0.46120  0.23650  0.85860  1.0000 0.1387995246
H   H42       1.0  0.53880  0.76350  0.85860  1.0000 0.1387995246
H   H43       1.0  0.76350  0.46120  0.14140  1.0000 0.1387995246
H   H44       1.0  0.23650  0.53880  0.14140  1.0000 0.1387995246
H   H45       1.0  0.03880  0.73650  0.35860  1.0000 0.1387995246
H   H46       1.0  0.96120  0.26350  0.35860  1.0000 0.1387995246
H   H47       1.0  0.73650  0.96120  0.64140  1.0000 0.1387995246
H   H48       1.0  0.26350  0.03880  0.64140  1.0000 0.1387995246
H   H49       1.0  0.70700  0.16990  0.94490  1.0000 0.1174394339
H   H50       1.0  0.29300  0.83010  0.94490  1.0000 0.1174394339
H   H51       1.0  0.83010  0.70700  0.05510  1.0000 0.1174394339
H   H52       1.0  0.16990  0.29300  0.05510  1.0000 0.1174394339
H   H53       1.0  0.79300  0.66990  0.44490  1.0000 0.1174394339
H   H54       1.0  0.20700  0.33010  0.44490  1.0000 0.1174394339
H   H55       1.0  0.66990  0.20700  0.55510  1.0000 0.1174394339
H   H56       1.0  0.33010  0.79300  0.55510  1.0000 0.1174394339
H   H57       1.0  0.61200  0.17040  0.05050  1.0000 0.1387995246
H   H58       1.0  0.38800  0.82960  0.05050  1.0000 0.1387995246
H   H59       1.0  0.82960  0.61200  0.94950  1.0000 0.1387995246
H   H60       1.0  0.17040  0.38800  0.94950  1.0000 0.1387995246
H   H61       1.0  0.88800  0.67040  0.55050  1.0000 0.1387995246
H   H62       1.0  0.11200  0.32960  0.55050  1.0000 0.1387995246
H   H63       1.0  0.67040  0.11200  0.44950  1.0000 0.1387995246
H   H64       1.0  0.32960  0.88800  0.44950  1.0000 0.1387995246
C   C1        1.0  0.41250  0.23750  0.17970  1.0000 0.1096697178
C   C2        1.0  0.58750  0.76250  0.17970  1.0000 0.1096697178
C   C3        1.0  0.76250  0.41250  0.82030  1.0000 0.1096697178
C   C4        1.0  0.23750  0.58750  0.82030  1.0000 0.1096697178
C   C5        1.0  0.08750  0.73750  0.67970  1.0000 0.1096697178
C   C6        1.0  0.91250  0.26250  0.67970  1.0000 0.1096697178
C   C7        1.0  0.73750  0.91250  0.32030  1.0000 0.1096697178
C   C8        1.0  0.26250  0.08750  0.32030  1.0000 0.1096697178
C   C9        1.0  0.47410  0.23190  0.12160  1.0000 -0.1797414525
C   C10       1.0  0.52590  0.76810  0.12160  1.0000 -0.1797414525
C   C11       1.0  0.76810  0.47410  0.87840  1.0000 -0.1797414525
C   C12       1.0  0.23190  0.52590  0.87840  1.0000 -0.1797414525
C   C13       1.0  0.02590  0.73190  0.62160  1.0000 -0.1797414525
C   C14       1.0  0.97410  0.26810  0.62160  1.0000 -0.1797414525
C   C15       1.0  0.73190  0.97410  0.37840  1.0000 -0.1797414525
C   C16       1.0  0.26810  0.02590  0.37840  1.0000 -0.1797414525
C   C17       1.0  0.32730  0.19680  0.07390  1.0000 0.0924997826
C   C18       1.0  0.67270  0.80320  0.07390  1.0000 0.0924997826
C   C19       1.0  0.80320  0.32730  0.92610  1.0000 0.0924997826
C   C20       1.0  0.19680  0.67270  0.92610  1.0000 0.0924997826
C   C21       1.0  0.17270  0.69680  0.57390  1.0000 0.0924997826
C   C22       1.0  0.82730  0.30320  0.57390  1.0000 0.0924997826
C   C23       1.0  0.69680  0.82730  0.42610  1.0000 0.0924997826
C   C24       1.0  0.30320  0.17270  0.42610  1.0000 0.0924997826
C   C25       1.0  0.38600  0.18800  0.01200  1.0000 -0.1797414525
C   C26       1.0  0.61400  0.81200  0.01200  1.0000 -0.1797414525
C   C27       1.0  0.81200  0.38600  0.98800  1.0000 -0.1797414525
C   C28       1.0  0.18800  0.61400  0.98800  1.0000 -0.1797414525
C   C29       1.0  0.11400  0.68800  0.51200  1.0000 -0.1797414525
C   C30       1.0  0.88600  0.31200  0.51200  1.0000 -0.1797414525
C   C31       1.0  0.68800  0.88600  0.48800  1.0000 -0.1797414525
C   C32       1.0  0.31200  0.11400  0.48800  1.0000 -0.1797414525
C   C33       1.0  0.57230  0.22640  0.81980  1.0000 0.1009861976
C   C34       1.0  0.42770  0.77360  0.81980  1.0000 0.1009861976
C   C35       1.0  0.77360  0.57230  0.18020  1.0000 0.1009861976
C   C36       1.0  0.22640  0.42770  0.18020  1.0000 0.1009861976
C   C37       1.0  0.92770  0.72640  0.31980  1.0000 0.1009861976
C   C38       1.0  0.07230  0.27360  0.31980  1.0000 0.1009861976
C   C39       1.0  0.72640  0.07230  0.68020  1.0000 0.1009861976
C   C40       1.0  0.27360  0.92770  0.68020  1.0000 0.1009861976
C   C41       1.0  0.51090  0.22460  0.87810  1.0000 -0.1873780247
C   C42       1.0  0.48910  0.77540  0.87810  1.0000 -0.1873780247
C   C43       1.0  0.77540  0.51090  0.12190  1.0000 -0.1873780247
C   C44       1.0  0.22460  0.48910  0.12190  1.0000 -0.1873780247
C   C45       1.0  0.98910  0.72460  0.37810  1.0000 -0.1873780247
C   C46       1.0  0.01090  0.27540  0.37810  1.0000 -0.1873780247
C   C47       1.0  0.72460  0.01090  0.62190  1.0000 -0.1873780247
C   C48       1.0  0.27540  0.98910  0.62190  1.0000 -0.1873780247
C   C49       1.0  0.65750  0.18570  0.92860  1.0000 0.0924997826
C   C50       1.0  0.34250  0.81430  0.92860  1.0000 0.0924997826
C   C51       1.0  0.81430  0.65750  0.07140  1.0000 0.0924997826
C   C52       1.0  0.18570  0.34250  0.07140  1.0000 0.0924997826
C   C53       1.0  0.84250  0.68570  0.42860  1.0000 0.0924997826
C   C54       1.0  0.15750  0.31430  0.42860  1.0000 0.0924997826
C   C55       1.0  0.68570  0.15750  0.57140  1.0000 0.0924997826
C   C56       1.0  0.31430  0.84250  0.57140  1.0000 0.0924997826
C   C57       1.0  0.60040  0.18450  0.99180  1.0000 -0.1873780247
C   C58       1.0  0.39960  0.81550  0.99180  1.0000 -0.1873780247
C   C59       1.0  0.81550  0.60040  0.00820  1.0000 -0.1873780247
C   C60       1.0  0.18450  0.39960  0.00820  1.0000 -0.1873780247
C   C61       1.0  0.89960  0.68450  0.49180  1.0000 -0.1873780247
C   C62       1.0  0.10040  0.31550  0.49180  1.0000 -0.1873780247
C   C63       1.0  0.68450  0.10040  0.50820  1.0000 -0.1873780247
C   C64       1.0  0.31550  0.89960  0.50820  1.0000 -0.1873780247
C   C65       1.0  0.52460  0.20430  0.96820  1.0000 0.1096697178
C   C66       1.0  0.47540  0.79570  0.96820  1.0000 0.1096697178
C   C67       1.0  0.79570  0.52460  0.03180  1.0000 0.1096697178
C   C68       1.0  0.20430  0.47540  0.03180  1.0000 0.1096697178
C   C69       1.0  0.97540  0.70430  0.46820  1.0000 0.1096697178
C   C70       1.0  0.02460  0.29570  0.46820  1.0000 0.1096697178
C   C71       1.0  0.70430  0.02460  0.53180  1.0000 0.1096697178
C   C72       1.0  0.29570  0.97540  0.53180  1.0000 0.1096697178
C   C73       1.0  0.46130  0.20730  0.03500  1.0000 0.0924997826
C   C74       1.0  0.53870  0.79270  0.03500  1.0000 0.0924997826
C   C75       1.0  0.79270  0.46130  0.96500  1.0000 0.0924997826
C   C76       1.0  0.20730  0.53870  0.96500  1.0000 0.0924997826
C   C77       1.0  0.03870  0.70730  0.53500  1.0000 0.0924997826
C   C78       1.0  0.96130  0.29270  0.53500  1.0000 0.0924997826
C   C79       1.0  0.70730  0.96130  0.46500  1.0000 0.0924997826
C   C80       1.0  0.29270  0.03870  0.46500  1.0000 0.0924997826
N   N1        1.0  0.34040  0.22230  0.15680  1.0000 -0.2348256782
N   N2        1.0  0.65960  0.77770  0.15680  1.0000 -0.2348256782
N   N3        1.0  0.77770  0.34040  0.84320  1.0000 -0.2348256782
N   N4        1.0  0.22230  0.65960  0.84320  1.0000 -0.2348256782
N   N5        1.0  0.15960  0.72230  0.65680  1.0000 -0.2348256782
N   N6        1.0  0.84040  0.27770  0.65680  1.0000 -0.2348256782
N   N7        1.0  0.72230  0.84040  0.34320  1.0000 -0.2348256782
N   N8        1.0  0.27770  0.15960  0.34320  1.0000 -0.2348256782
N   N9        1.0  0.20870  0.35470  0.15630  1.0000 -0.2407335285
N   N10       1.0  0.79130  0.64530  0.15630  1.0000 -0.2407335285
N   N11       1.0  0.64530  0.20870  0.84370  1.0000 -0.2407335285
N   N12       1.0  0.35470  0.79130  0.84370  1.0000 -0.2407335285
N   N13       1.0  0.29130  0.85470  0.65630  1.0000 -0.2407335285
N   N14       1.0  0.70870  0.14530  0.65630  1.0000 -0.2407335285
N   N15       1.0  0.85470  0.70870  0.34370  1.0000 -0.2407335285
N   N16       1.0  0.14530  0.29130  0.34370  1.0000 -0.2407335285
Cl  Cl1       1.0  0.50000  0.50000  0.50000  1.0000 -0.7162831351
Cl  Cl2       1.0  0.00000  0.00000  0.00000  1.0000 -0.7162831351
O   O1        1.0  0.16520  0.18240  0.18030  1.0000 -0.7756680474
O   O2        1.0  0.83480  0.81760  0.18030  1.0000 -0.7756680474
O   O3        1.0  0.81760  0.16520  0.81970  1.0000 -0.7756680474
O   O4        1.0  0.18240  0.83480  0.81970  1.0000 -0.7756680474
O   O5        1.0  0.33480  0.68240  0.68030  1.0000 -0.7756680474
O   O6        1.0  0.66520  0.31760  0.68030  1.0000 -0.7756680474
O   O7        1.0  0.68240  0.66520  0.31970  1.0000 -0.7756680474
O   O8        1.0  0.31760  0.33480  0.31970  1.0000 -0.7756680474
O   O9        1.0  0.00660  0.12820  0.17920  1.0000 -1.0372012034
O   O10       1.0  0.99340  0.87180  0.17920  1.0000 -1.0372012034
O   O11       1.0  0.87180  0.00660  0.82080  1.0000 -1.0372012034
O   O12       1.0  0.12820  0.99340  0.82080  1.0000 -1.0372012034
O   O13       1.0  0.49340  0.62820  0.67920  1.0000 -1.0372012034
O   O14       1.0  0.50660  0.37180  0.67920  1.0000 -1.0372012034
O   O15       1.0  0.62820  0.50660  0.32080  1.0000 -1.0372012034
O   O16       1.0  0.37180  0.49340  0.32080  1.0000 -1.0372012034
O   O17       1.0  0.05570  0.18340  0.03720  1.0000 -1.0561080649
O   O18       1.0  0.94430  0.81660  0.03720  1.0000 -1.0561080649
O   O19       1.0  0.81660  0.05570  0.96280  1.0000 -1.0561080649
O   O20       1.0  0.18340  0.94430  0.96280  1.0000 -1.0561080649
O   O21       1.0  0.44430  0.68340  0.53720  1.0000 -1.0561080649
O   O22       1.0  0.55570  0.31660  0.53720  1.0000 -1.0561080649
O   O23       1.0  0.68340  0.55570  0.46280  1.0000 -1.0561080649
O   O24       1.0  0.31660  0.44430  0.46280  1.0000 -1.0561080649
O   O25       1.0  0.00000  0.00000  0.28090  1.0000 -0.255286932
O   O26       1.0  0.00000  0.00000  0.71910  1.0000 -0.255286932
O   O27       1.0  0.50000  0.50000  0.78090  1.0000 -0.255286932
O   O28       1.0  0.50000  0.50000  0.21910  1.0000 -0.255286932
O   O29       1.0  0.88680  0.09950  0.31350  1.0000 -0.6867492423
O   O30       1.0  0.11320  0.90050  0.31350  1.0000 -0.6867492423
O   O31       1.0  0.90050  0.88680  0.68650  1.0000 -0.6867492423
O   O32       1.0  0.09950  0.11320  0.68650  1.0000 -0.6867492423
O   O33       1.0  0.61320  0.59950  0.81350  1.0000 -0.6867492423
O   O34       1.0  0.38680  0.40050  0.81350  1.0000 -0.6867492423
O   O35       1.0  0.59950  0.38680  0.18650  1.0000 -0.6867492423
O   O36       1.0  0.40050  0.61320  0.18650  1.0000 -0.6867492423
O   O37       1.0  0.12610  0.02070  0.17820  1.0000 -1.0372012034
O   O38       1.0  0.87390  0.97930  0.17820  1.0000 -1.0372012034
O   O39       1.0  0.97930  0.12610  0.82180  1.0000 -1.0372012034
O   O40       1.0  0.02070  0.87390  0.82180  1.0000 -1.0372012034
O   O41       1.0  0.37390  0.52070  0.67820  1.0000 -1.0372012034
O   O42       1.0  0.62610  0.47930  0.67820  1.0000 -1.0372012034
O   O43       1.0  0.52070  0.62610  0.32180  1.0000 -1.0372012034
O   O44       1.0  0.47930  0.37390  0.32180  1.0000 -1.0372012034
O   O45       1.0  0.86710  0.11830  0.11970  1.0000 -0.9889263659
O   O46       1.0  0.13290  0.88170  0.11970  1.0000 -0.9889263659
O   O47       1.0  0.88170  0.86710  0.88030  1.0000 -0.9889263659
O   O48       1.0  0.11830  0.13290  0.88030  1.0000 -0.9889263659
O   O49       1.0  0.63290  0.61830  0.61970  1.0000 -0.9889263659
O   O50       1.0  0.36710  0.38170  0.61970  1.0000 -0.9889263659
O   O51       1.0  0.61830  0.36710  0.38030  1.0000 -0.9889263659
O   O52       1.0  0.38170  0.63290  0.38030  1.0000 -0.9889263659
O   O53       1.0  0.17580  0.07550  0.03650  1.0000 -1.0561080649
O   O54       1.0  0.82420  0.92450  0.03650  1.0000 -1.0561080649
O   O55       1.0  0.92450  0.17580  0.96350  1.0000 -1.0561080649
O   O56       1.0  0.07550  0.82420  0.96350  1.0000 -1.0561080649
O   O57       1.0  0.32420  0.57550  0.53650  1.0000 -1.0561080649
O   O58       1.0  0.67580  0.42450  0.53650  1.0000 -1.0561080649
O   O59       1.0  0.57550  0.67580  0.46350  1.0000 -1.0561080649
O   O60       1.0  0.42450  0.32420  0.46350  1.0000 -1.0561080649
O   O61       1.0  0.92820  0.26600  0.12180  1.0000 -0.6625520364
O   O62       1.0  0.07180  0.73400  0.12180  1.0000 -0.6625520364
O   O63       1.0  0.73400  0.92820  0.87820  1.0000 -0.6625520364
O   O64       1.0  0.26600  0.07180  0.87820  1.0000 -0.6625520364
O   O65       1.0  0.57180  0.76600  0.62180  1.0000 -0.6625520364
O   O66       1.0  0.42820  0.23400  0.62180  1.0000 -0.6625520364
O   O67       1.0  0.76600  0.42820  0.37820  1.0000 -0.6625520364
O   O68       1.0  0.23400  0.57180  0.37820  1.0000 -0.6625520364
O   O69       1.0  0.03840  0.27340  0.88050  1.0000 -0.6625520364
O   O70       1.0  0.96160  0.72660  0.88050  1.0000 -0.6625520364
O   O71       1.0  0.72660  0.03840  0.11950  1.0000 -0.6625520364
O   O72       1.0  0.27340  0.96160  0.11950  1.0000 -0.6625520364
O   O73       1.0  0.46160  0.77340  0.38050  1.0000 -0.6625520364
O   O74       1.0  0.53840  0.22660  0.38050  1.0000 -0.6625520364
O   O75       1.0  0.77340  0.53840  0.61950  1.0000 -0.6625520364
O   O76       1.0  0.22660  0.46160  0.61950  1.0000 -0.6625520364
O   O77       1.0  0.00000  0.00000  0.19930  1.0000 -0.107137464
O   O78       1.0  0.00000  0.00000  0.80070  1.0000 -0.107137464
O   O79       1.0  0.50000  0.50000  0.69930  1.0000 -0.107137464
O   O80       1.0  0.50000  0.50000  0.30070  1.0000 -0.107137464
