# DDEC6 charges by PACMAN v1.1 (https://github.com/mtap-research/PACMAN-charge/)
data_2008[In][dia]3[ION]1
_chemical_formula_sum              "In4 H64 C64 S8 N4 O32"
_cell_length_a       13.5065
_cell_length_b       13.5065
_cell_length_c       15.9076
_cell_angle_alpha    90
_cell_angle_beta     90
_cell_angle_gamma    90

_symmetry_space_group_name_H-M    "P 1"
_symmetry_Int_Tables_number       1

loop_
  _symmetry_equiv_pos_as_xyz
  'x, y, z'

loop_
  _atom_site_type_symbol
  _atom_site_label
  _atom_site_symmetry_multiplicity
  _atom_site_fract_x
  _atom_site_fract_y
  _atom_site_fract_z
  _atom_site_occupancy
  _atom_site_charge
In  In1       1.0  0.97373  0.61524  0.50459  1.0000 1.3264693983
In  In2       1.0  0.97082  0.38414  0.99962  1.0000 1.3222301967
In  In3       1.0  0.35661  0.99806  0.25234  1.0000 1.2956552274
In  In4       1.0  0.58844  0.00143  0.75341  1.0000 1.2686207063
H   H1        1.0  0.06069  0.41702  0.27743  1.0000 0.1394659348
H   H2        1.0  0.14816  0.27437  0.20005  1.0000 0.146475603
H   H3        1.0  0.88516  0.58400  0.77166  1.0000 0.1394659348
H   H4        1.0  0.80115  0.73081  0.69731  1.0000 0.1394659348
H   H5        1.0  0.55383  0.08564  0.02442  1.0000 0.1394659348
H   H6        1.0  0.69579  0.17428  0.94697  1.0000 0.1394659348
H   H7        1.0  0.38845  0.91502  0.52992  1.0000 0.1304710478
H   H8        1.0  0.24663  0.82633  0.45279  1.0000 0.146475603
H   H9        1.0  0.89526  0.41035  0.73259  1.0000 0.146475603
H   H10       1.0  0.81333  0.26134  0.80534  1.0000 0.1394659348
H   H11       1.0  0.05349  0.58598  0.22450  1.0000 0.1304710478
H   H12       1.0  0.14175  0.72800  0.30178  1.0000 0.146475603
H   H13       1.0  0.37999  0.07713  0.97861  1.0000 0.1394659348
H   H14       1.0  0.23157  0.15964  0.05184  1.0000 0.146475603
H   H15       1.0  0.56294  0.92203  0.48166  1.0000 0.1304710478
H   H16       1.0  0.71154  0.84033  0.55549  1.0000 0.1394659348
H   H17       1.0  0.55493  0.16140  0.49385  1.0000 0.0882648619
H   H18       1.0  0.52650  0.26399  0.56096  1.0000 0.0611269051
H   H19       1.0  0.42351  0.11563  0.59115  1.0000 0.1571951029
H   H20       1.0  0.37406  0.11804  0.48694  1.0000 0.1304710478
H   H21       1.0  0.34795  0.21859  0.55931  1.0000 0.1208187285
H   H22       1.0  0.41287  0.85627  0.02042  1.0000 0.0882648619
H   H23       1.0  0.43250  0.75654  0.09244  1.0000 0.0684966525
H   H24       1.0  0.59645  0.87272  0.99875  1.0000 0.1208187285
H   H25       1.0  0.61648  0.77680  0.07679  1.0000 0.1104762273
H   H26       1.0  0.55930  0.89176  0.10523  1.0000 0.1571951029
H   H27       1.0  0.83127  0.56019  0.27015  1.0000 0.0882648619
H   H28       1.0  0.72384  0.53838  0.33327  1.0000 0.0611269051
H   H29       1.0  0.86055  0.41492  0.35702  1.0000 0.1571951029
H   H30       1.0  0.85243  0.37608  0.24983  1.0000 0.1304710478
H   H31       1.0  0.74937  0.35579  0.32105  1.0000 0.1104762273
H   H32       1.0  0.48756  0.66758  0.75364  1.0000 0.0684966525
H   H33       1.0  0.59929  0.60111  0.77340  1.0000 0.0611269051
H   H34       1.0  0.51147  0.65178  0.59881  1.0000 0.1208187285
H   H35       1.0  0.62570  0.58409  0.61624  1.0000 0.1304710478
H   H36       1.0  0.61477  0.71104  0.64876  1.0000 0.1394659348
H   H37       1.0  0.40414  0.40919  0.39550  1.0000 0.0684966525
H   H38       1.0  0.38662  0.37663  0.50342  1.0000 0.0684966525
H   H39       1.0  0.49396  0.52652  0.48385  1.0000 0.1304710478
H   H40       1.0  0.58209  0.45421  0.42525  1.0000 0.1304710478
H   H41       1.0  0.56129  0.42879  0.53526  1.0000 0.1104762273
H   H42       1.0  0.52497  0.58648  0.92706  1.0000 0.0519808449
H   H43       1.0  0.56260  0.62653  0.02897  1.0000 0.0611269051
H   H44       1.0  0.35256  0.55521  0.97952  1.0000 0.1304710478
H   H45       1.0  0.39128  0.59082  0.08423  1.0000 0.1208187285
H   H46       1.0  0.44503  0.48414  0.03439  1.0000 0.1304710478
H   H47       1.0  0.50186  0.36223  0.70007  1.0000 0.0684966525
H   H48       1.0  0.61148  0.43569  0.69272  1.0000 0.0611269051
H   H49       1.0  0.61519  0.45430  0.84930  1.0000 0.1304710478
H   H50       1.0  0.60829  0.32588  0.82036  1.0000 0.146475603
H   H51       1.0  0.49904  0.38778  0.85768  1.0000 0.1208187285
H   H52       1.0  0.57535  0.44305  0.15528  1.0000 0.0684966525
H   H53       1.0  0.60237  0.41044  0.26163  1.0000 0.0611269051
H   H54       1.0  0.53815  0.61790  0.19892  1.0000 0.1304710478
H   H55       1.0  0.56000  0.58387  0.30742  1.0000 0.1208187285
H   H56       1.0  0.46012  0.52787  0.24982  1.0000 0.1304710478
H   H57       1.0  0.42980  0.24343  0.39304  1.0000 0.2681133218
H   H58       1.0  0.39262  0.72027  0.93770  1.0000 0.2611259587
H   H59       1.0  0.70731  0.57700  0.17497  1.0000 0.2681133218
H   H60       1.0  0.43809  0.51268  0.66869  1.0000 0.2611259587
H   H61       1.0  0.74202  0.45937  0.15814  1.0000 0.2681133218
H   H62       1.0  0.54664  0.28531  0.39885  1.0000 0.2681133218
H   H63       1.0  0.42729  0.51360  0.77380  1.0000 0.2541262574
H   H64       1.0  0.50960  0.75320  0.91582  1.0000 0.2611259587
C   C1        1.0  0.20631  0.22711  0.32166  1.0000 -0.1199587676
C   C2        1.0  0.12569  0.36092  0.39380  1.0000 -0.109226549
C   C3        1.0  0.08871  0.43642  0.45315  1.0000 0.5609649666
C   C4        1.0  0.26389  0.13985  0.29471  1.0000 0.4986215797
C   C5        1.0  0.10621  0.36228  0.30856  1.0000 -0.109226549
C   C6        1.0  0.15309  0.28628  0.26720  1.0000 -0.101766608
C   C7        1.0  0.49795  0.21848  0.50826  1.0000 0.037434751
C   C8        1.0  0.40467  0.16478  0.53790  1.0000 -0.3974838041
C   C9        1.0  0.73535  0.76961  0.81817  1.0000 -0.1199587676
C   C10       1.0  0.81249  0.63234  0.88736  1.0000 -0.109226549
C   C11       1.0  0.84853  0.55553  0.94550  1.0000 0.5673539606
C   C12       1.0  0.67905  0.85813  0.79305  1.0000 0.4780101545
C   C13       1.0  0.83705  0.63619  0.80316  1.0000 -0.109226549
C   C14       1.0  0.79227  0.71447  0.76342  1.0000 -0.101766608
C   C15       1.0  0.46266  0.79303  0.03534  1.0000 0.037434751
C   C16       1.0  0.56524  0.83553  0.05488  1.0000 -0.3974838041
C   C17       1.0  0.74266  0.23273  0.06848  1.0000 -0.1199587676
C   C18       1.0  0.60964  0.15113  0.14074  1.0000 -0.109226549
C   C19       1.0  0.53512  0.11320  0.20048  1.0000 0.5673539606
C   C20       1.0  0.82969  0.29069  0.04166  1.0000 0.4913076677
C   C21       1.0  0.60821  0.13166  0.05549  1.0000 -0.109226549
C   C22       1.0  0.68388  0.17902  0.01408  1.0000 -0.101766608
C   C23       1.0  0.76758  0.50911  0.27962  1.0000 0.037434751
C   C24       1.0  0.80952  0.40747  0.30294  1.0000 -0.3927756183
C   C25       1.0  0.20539  0.76080  0.57331  1.0000 -0.101766608
C   C26       1.0  0.33827  0.84266  0.64516  1.0000 -0.1199587676
C   C27       1.0  0.41176  0.88323  0.70442  1.0000 0.5609649666
C   C28       1.0  0.11727  0.70459  0.54669  1.0000 0.5161802538
C   C29       1.0  0.33679  0.86556  0.56054  1.0000 -0.109226549
C   C30       1.0  0.26119  0.81815  0.51931  1.0000 -0.101766608
C   C31       1.0  0.53606  0.60770  0.72910  1.0000 0.037434751
C   C32       1.0  0.57432  0.64006  0.64273  1.0000 -0.3787053518
C   C33       1.0  0.73888  0.23014  0.68649  1.0000 -0.109226549
C   C34       1.0  0.81396  0.36956  0.61899  1.0000 -0.1199587676
C   C35       1.0  0.84552  0.45050  0.56327  1.0000 0.5609649666
C   C36       1.0  0.68110  0.14275  0.71201  1.0000 0.4913076677
C   C37       1.0  0.84444  0.36050  0.70145  1.0000 -0.109226549
C   C38       1.0  0.80069  0.28113  0.74033  1.0000 -0.109226549
C   C39       1.0  0.44233  0.37909  0.45199  1.0000 0.037434751
C   C40       1.0  0.52537  0.45115  0.47563  1.0000 -0.3787053518
C   C41       1.0  0.20669  0.76996  0.18125  1.0000 -0.109226549
C   C42       1.0  0.12551  0.63670  0.10927  1.0000 -0.109226549
C   C43       1.0  0.08782  0.56119  0.05039  1.0000 0.5673539606
C   C44       1.0  0.26441  0.85679  0.20858  1.0000 0.4986215797
C   C45       1.0  0.10228  0.63822  0.19380  1.0000 -0.109226549
C   C46       1.0  0.14949  0.71389  0.23512  1.0000 -0.101766608
C   C47       1.0  0.49870  0.62402  0.98509  1.0000 0.0297493564
C   C48       1.0  0.41650  0.56012  0.02323  1.0000 -0.3787053518
C   C49       1.0  0.20437  0.23967  0.93483  1.0000 -0.101766608
C   C50       1.0  0.34340  0.16394  0.86691  1.0000 -0.1199587676
C   C51       1.0  0.42269  0.12965  0.81037  1.0000 0.5609649666
C   C52       1.0  0.11520  0.29508  0.95969  1.0000 0.5097223289
C   C53       1.0  0.33241  0.13100  0.94856  1.0000 -0.109226549
C   C54       1.0  0.25340  0.17516  0.98773  1.0000 -0.101766608
C   C55       1.0  0.54195  0.42554  0.72908  1.0000 0.037434751
C   C56       1.0  0.56748  0.39716  0.81982  1.0000 -0.3787053518
C   C57       1.0  0.74373  0.76515  0.43718  1.0000 -0.101766608
C   C58       1.0  0.60449  0.84038  0.36843  1.0000 -0.1199587676
C   C59       1.0  0.52387  0.87208  0.31192  1.0000 0.5609649666
C   C60       1.0  0.83184  0.70819  0.46307  1.0000 0.4986215797
C   C61       1.0  0.61298  0.87095  0.45096  1.0000 -0.101766608
C   C62       1.0  0.69207  0.82711  0.49049  1.0000 -0.101766608
C   C63       1.0  0.60537  0.47219  0.21554  1.0000 0.0297493564
C   C64       1.0  0.53717  0.55596  0.24483  1.0000 -0.3787053518
S   S1        1.0  0.19977  0.26432  0.42451  1.0000 0.146475603
S   S2        1.0  0.73562  0.72592  0.91912  1.0000 0.1394659348
S   S3        1.0  0.70550  0.22613  0.17128  1.0000 0.1394659348
S   S4        1.0  0.24598  0.76289  0.67543  1.0000 0.1304710478
S   S5        1.0  0.73375  0.27874  0.58718  1.0000 0.1394659348
S   S6        1.0  0.20407  0.73002  0.07898  1.0000 0.1394659348
S   S7        1.0  0.25563  0.24865  0.83659  1.0000 0.1394659348
S   S8        1.0  0.69548  0.75937  0.33764  1.0000 0.146475603
N   N1        1.0  0.48032  0.27924  0.43256  1.0000 -0.2529206581
N   N2        1.0  0.46402  0.72442  0.96312  1.0000 -0.2529206581
N   N3        1.0  0.70800  0.50622  0.20184  1.0000 -0.2529206581
N   N4        1.0  0.47888  0.51468  0.72467  1.0000 -0.2529206581
O   O1        1.0  0.12432  0.44142  0.52348  1.0000 -0.4990525774
O   O2        1.0  0.01301  0.50120  0.42841  1.0000 -0.6168301337
O   O3        1.0  0.28308  0.11954  0.21921  1.0000 -0.4402120866
O   O4        1.0  0.29951  0.07759  0.34507  1.0000 -0.4666988634
O   O5        1.0  0.80937  0.54624  0.01411  1.0000 -0.5308104388
O   O6        1.0  0.92810  0.49511  0.92197  1.0000 -0.5815287761
O   O7        1.0  0.66532  0.88372  0.71784  1.0000 -0.4402120866
O   O8        1.0  0.63937  0.91631  0.84481  1.0000 -0.4489782137
O   O9        1.0  0.53126  0.14777  0.27117  1.0000 -0.538213753
O   O10       1.0  0.47028  0.03757  0.17592  1.0000 -0.6007010572
O   O11       1.0  0.85275  0.30583  0.96603  1.0000 -0.4489782137
O   O12       1.0  0.88903  0.33060  0.09233  1.0000 -0.4666988634
O   O13       1.0  0.41626  0.85044  0.77575  1.0000 -0.5308104388
O   O14       1.0  0.47448  0.96005  0.67855  1.0000 -0.6007010572
O   O15       1.0  0.09354  0.69055  0.47105  1.0000 -0.458451165
O   O16       1.0  0.05725  0.66594  0.59750  1.0000 -0.4489782137
O   O17       1.0  0.79587  0.47053  0.50159  1.0000 -0.4990525774
O   O18       1.0  0.93203  0.50334  0.58161  1.0000 -0.5815287761
O   O19       1.0  0.66889  0.11717  0.78741  1.0000 -0.4402120866
O   O20       1.0  0.63838  0.08597  0.66077  1.0000 -0.4402120866
O   O21       1.0  0.12464  0.55402  0.98064  1.0000 -0.4920390181
O   O22       1.0  0.00990  0.49896  0.07495  1.0000 -0.6100347869
O   O23       1.0  0.28105  0.87774  0.28439  1.0000 -0.434803807
O   O24       1.0  0.30231  0.91808  0.15849  1.0000 -0.458451165
O   O25       1.0  0.43940  0.17529  0.74582  1.0000 -0.4990525774
O   O26       1.0  0.47727  0.04475  0.83088  1.0000 -0.6007010572
O   O27       1.0  0.08960  0.30862  0.03490  1.0000 -0.4489782137
O   O28       1.0  0.05635  0.33375  0.90784  1.0000 -0.4489782137
O   O29       1.0  0.50522  0.82268  0.24980  1.0000 -0.4990525774
O   O30       1.0  0.46965  0.95807  0.32989  1.0000 -0.6100347869
O   O31       1.0  0.85635  0.69428  0.53852  1.0000 -0.4489782137
O   O32       1.0  0.89038  0.66771  0.41199  1.0000 -0.458451165
