# DDEC6 charges by PACMAN v1.1 (https://github.com/mtap-research/PACMAN-charge/)
data_2008[Mn][etd]3[ION]1
_chemical_formula_sum              "Mn6 H24 C24 N24 O24"
_cell_length_a       14.3295
_cell_length_b       14.3295
_cell_length_c       10.0523
_cell_angle_alpha    90
_cell_angle_beta     90
_cell_angle_gamma    120

_symmetry_space_group_name_H-M    "P 1"
_symmetry_Int_Tables_number       1

loop_
  _symmetry_equiv_pos_as_xyz
  'x, y, z'

loop_
  _atom_site_type_symbol
  _atom_site_label
  _atom_site_symmetry_multiplicity
  _atom_site_fract_x
  _atom_site_fract_y
  _atom_site_fract_z
  _atom_site_occupancy
  _atom_site_charge
Mn  Mn1       1.0  0.66040  0.53523  0.39572  1.0000 0.9271720349
Mn  Mn2       1.0  0.46477  0.12517  0.72905  1.0000 0.9271720349
Mn  Mn3       1.0  0.87483  0.33960  0.06239  1.0000 0.9271720349
Mn  Mn4       1.0  0.33960  0.46477  0.89572  1.0000 0.9271720349
Mn  Mn5       1.0  0.53523  0.87483  0.22905  1.0000 0.9271720349
Mn  Mn6       1.0  0.12517  0.66040  0.56239  1.0000 0.9271720349
H   H1        1.0  0.49350  0.24190  0.02767  1.0000 0.1728801329
H   H2        1.0  0.49480  0.33110  0.09707  1.0000 0.2191398739
H   H3        1.0  0.58770  0.31680  0.08417  1.0000 0.200293973
H   H4        1.0  0.50520  0.23760  0.17077  1.0000 0.244743511
H   H5        1.0  0.74840  0.50650  0.69433  1.0000 0.1728801329
H   H6        1.0  0.83630  0.50520  0.76373  1.0000 0.2191398739
H   H7        1.0  0.72910  0.41230  0.75083  1.0000 0.200293973
H   H8        1.0  0.73240  0.49480  0.83743  1.0000 0.244743511
H   H9        1.0  0.75810  0.25160  0.36100  1.0000 0.1728801329
H   H10       1.0  0.66890  0.16370  0.43040  1.0000 0.2191398739
H   H11       1.0  0.68320  0.27090  0.41750  1.0000 0.200293973
H   H12       1.0  0.76240  0.26760  0.50410  1.0000 0.244743511
H   H13       1.0  0.50650  0.75810  0.52767  1.0000 0.1728801329
H   H14       1.0  0.50520  0.66890  0.59707  1.0000 0.2191398739
H   H15       1.0  0.41230  0.68320  0.58417  1.0000 0.200293973
H   H16       1.0  0.49480  0.76240  0.67077  1.0000 0.2453435361
H   H17       1.0  0.25160  0.49350  0.19433  1.0000 0.1728801329
H   H18       1.0  0.16370  0.49480  0.26373  1.0000 0.2191398739
H   H19       1.0  0.27090  0.58770  0.25083  1.0000 0.200293973
H   H20       1.0  0.26760  0.50520  0.33743  1.0000 0.244743511
H   H21       1.0  0.24190  0.74840  0.86100  1.0000 0.1728801329
H   H22       1.0  0.33110  0.83630  0.93040  1.0000 0.2191398739
H   H23       1.0  0.31680  0.72910  0.91750  1.0000 0.200293973
H   H24       1.0  0.23760  0.73240  0.00410  1.0000 0.244743511
C   C1        1.0  0.77970  0.46100  0.19820  1.0000 0.5766347646
C   C2        1.0  0.53900  0.31870  0.53153  1.0000 0.5766347646
C   C3        1.0  0.68130  0.22030  0.86487  1.0000 0.5766347646
C   C4        1.0  0.22030  0.53900  0.69820  1.0000 0.5766347646
C   C5        1.0  0.46100  0.68130  0.03153  1.0000 0.5766347646
C   C6        1.0  0.31870  0.77970  0.36487  1.0000 0.5766347646
C   C7        1.0  0.87150  0.48090  0.28530  1.0000 -0.0031440404
C   C8        1.0  0.51910  0.39060  0.61863  1.0000 -0.0031440404
C   C9        1.0  0.60940  0.12850  0.95197  1.0000 -0.0031440404
C   C10       1.0  0.12850  0.51910  0.78530  1.0000 -0.0031440404
C   C11       1.0  0.48090  0.60940  0.11863  1.0000 -0.0031440404
C   C12       1.0  0.39060  0.87150  0.45197  1.0000 -0.0031440404
C   C13       1.0  0.92070  0.54410  0.39590  1.0000 0.0023886343
C   C14       1.0  0.45590  0.37660  0.72923  1.0000 0.0023886343
C   C15       1.0  0.62340  0.07930  0.06257  1.0000 0.0023886343
C   C16       1.0  0.07930  0.45590  0.89590  1.0000 0.0023886343
C   C17       1.0  0.54410  0.62340  0.22923  1.0000 0.0023886343
C   C18       1.0  0.37660  0.92070  0.56257  1.0000 0.0023886343
C   C19       1.0  0.90270  0.61690  0.48580  1.0000 0.5766347646
C   C20       1.0  0.38310  0.28580  0.81913  1.0000 0.5766347646
C   C21       1.0  0.71420  0.09730  0.15247  1.0000 0.5766347646
C   C22       1.0  0.09730  0.38310  0.98580  1.0000 0.5766347646
C   C23       1.0  0.61690  0.71420  0.31913  1.0000 0.5766347646
C   C24       1.0  0.28580  0.90270  0.65247  1.0000 0.5766347646
N   N1        1.0  0.92970  0.43470  0.25000  1.0000 -0.1871912927
N   N2        1.0  0.56530  0.49500  0.58333  1.0000 -0.1871912927
N   N3        1.0  0.50500  0.07030  0.91667  1.0000 -0.1871912927
N   N4        1.0  0.07030  0.56530  0.75000  1.0000 -0.1871912927
N   N5        1.0  0.43470  0.50500  0.08333  1.0000 -0.1871912927
N   N6        1.0  0.49500  0.92970  0.41667  1.0000 -0.1871912927
N   N7        1.0  0.01180  0.46810  0.33380  1.0000 -0.0031440404
N   N8        1.0  0.53190  0.54370  0.66713  1.0000 -0.0031440404
N   N9        1.0  0.45630  0.98820  0.00047  1.0000 -0.0031440404
N   N10       1.0  0.98820  0.53190  0.83380  1.0000 -0.0031440404
N   N11       1.0  0.46810  0.45630  0.16713  1.0000 -0.0031440404
N   N12       1.0  0.54370  0.01180  0.50047  1.0000 -0.0031440404
N   N13       1.0  0.00830  0.53460  0.42220  1.0000 -0.1871912927
N   N14       1.0  0.46540  0.47370  0.75553  1.0000 -0.1871912927
N   N15       1.0  0.52630  0.99170  0.08887  1.0000 -0.1871912927
N   N16       1.0  0.99170  0.46540  0.92220  1.0000 -0.1871912927
N   N17       1.0  0.53460  0.52630  0.25553  1.0000 -0.1871912927
N   N18       1.0  0.47370  0.00830  0.58887  1.0000 -0.1871912927
N   N19       1.0  0.51660  0.28220  0.10197  1.0000 -0.6811995209
N   N20       1.0  0.76560  0.48340  0.76863  1.0000 -0.6811995209
N   N21       1.0  0.71780  0.23440  0.43530  1.0000 -0.6811995209
N   N22       1.0  0.48340  0.71780  0.60197  1.0000 -0.6811995209
N   N23       1.0  0.23440  0.51660  0.26863  1.0000 -0.6811995209
N   N24       1.0  0.28220  0.76560  0.93530  1.0000 -0.6811995209
O   O1        1.0  0.76010  0.39630  0.10310  1.0000 -0.4606000616
O   O2        1.0  0.60370  0.36380  0.43643  1.0000 -0.4606000616
O   O3        1.0  0.63620  0.23990  0.76977  1.0000 -0.4606000616
O   O4        1.0  0.23990  0.60370  0.60310  1.0000 -0.4650191964
O   O5        1.0  0.39630  0.63620  0.93643  1.0000 -0.4650191964
O   O6        1.0  0.36380  0.76010  0.26977  1.0000 -0.4650191964
O   O7        1.0  0.72840  0.50990  0.21840  1.0000 -0.4606000616
O   O8        1.0  0.49010  0.21850  0.55173  1.0000 -0.4606000616
O   O9        1.0  0.78150  0.27160  0.88507  1.0000 -0.4606000616
O   O10       1.0  0.27160  0.49010  0.71840  1.0000 -0.4606000616
O   O11       1.0  0.50990  0.78150  0.05173  1.0000 -0.4606000616
O   O12       1.0  0.21850  0.72840  0.38507  1.0000 -0.4606000616
O   O13       1.0  0.81250  0.61000  0.49110  1.0000 -0.4825239431
O   O14       1.0  0.39000  0.20250  0.82443  1.0000 -0.4825239431
O   O15       1.0  0.79750  0.18750  0.15777  1.0000 -0.4825239431
O   O16       1.0  0.18750  0.39000  0.99110  1.0000 -0.4825239431
O   O17       1.0  0.61000  0.79750  0.32443  1.0000 -0.4825239431
O   O18       1.0  0.20250  0.81250  0.65777  1.0000 -0.4825239431
O   O19       1.0  0.98150  0.67850  0.55680  1.0000 -0.4521838725
O   O20       1.0  0.32150  0.30300  0.89013  1.0000 -0.4521838725
O   O21       1.0  0.69700  0.01850  0.22347  1.0000 -0.4521838725
O   O22       1.0  0.01850  0.32150  0.05680  1.0000 -0.4521838725
O   O23       1.0  0.67850  0.69700  0.39013  1.0000 -0.4521838725
O   O24       1.0  0.30300  0.98150  0.72347  1.0000 -0.4521838725
