# DDEC6 charges by PACMAN v1.1 (https://github.com/mtap-research/PACMAN-charge/)
data_2008[Zn][gis]3[ION]1
_chemical_formula_sum              "Zn4 P4 H48 C36 N4 O20"
_cell_length_a       10.075
_cell_length_b       13.051
_cell_length_c       13.24
_cell_angle_alpha    70.79
_cell_angle_beta     68.85
_cell_angle_gamma    70.61

_symmetry_space_group_name_H-M    "P 1"
_symmetry_Int_Tables_number       1

loop_
  _symmetry_equiv_pos_as_xyz
  'x, y, z'

loop_
  _atom_site_type_symbol
  _atom_site_label
  _atom_site_symmetry_multiplicity
  _atom_site_fract_x
  _atom_site_fract_y
  _atom_site_fract_z
  _atom_site_occupancy
  _atom_site_charge
Zn  Zn1       1.0  0.43318  0.83363  0.55285  1.0000 0.9994528599
Zn  Zn2       1.0  0.56682  0.16637  0.44715  1.0000 0.9994528599
Zn  Zn3       1.0  0.83744  0.94549  0.66517  1.0000 0.9994528599
Zn  Zn4       1.0  0.16256  0.05451  0.33483  1.0000 0.9994528599
P   P1        1.0  0.12993  0.83589  0.52661  1.0000 1.246588052
P   P2        1.0  0.87007  0.16411  0.47339  1.0000 1.246588052
P   P3        1.0  0.50792  0.96900  0.66402  1.0000 1.2299993641
P   P4        1.0  0.49208  0.03100  0.33598  1.0000 1.2299993641
H   H1        1.0  0.17140  0.60770  0.64740  1.0000 0.1280003853
H   H2        1.0  0.82860  0.39230  0.35260  1.0000 0.1280003853
H   H3        1.0  0.29370  0.43700  0.59950  1.0000 0.1280003853
H   H4        1.0  0.70630  0.56300  0.40050  1.0000 0.1280003853
H   H5        1.0  0.41070  0.59460  0.28060  1.0000 0.121480555
H   H6        1.0  0.58930  0.40540  0.71940  1.0000 0.121480555
H   H7        1.0  0.28780  0.76400  0.32600  1.0000 0.1280003853
H   H8        1.0  0.71220  0.23600  0.67400  1.0000 0.1280003853
H   H9        1.0  0.38030  0.86670  0.89190  1.0000 0.121480555
H   H10       1.0  0.61970  0.13330  0.10810  1.0000 0.121480555
H   H11       1.0  0.27960  0.92180  0.05400  1.0000 0.1280003853
H   H12       1.0  0.72040  0.07820  0.94600  1.0000 0.1280003853
H   H13       1.0  0.36900  0.21900  0.89930  1.0000 0.121480555
H   H14       1.0  0.63100  0.78100  0.10070  1.0000 0.121480555
H   H15       1.0  0.46520  0.16550  0.73330  1.0000 0.121480555
H   H16       1.0  0.53480  0.83450  0.26670  1.0000 0.121480555
H   H17       1.0  0.89100  0.90250  0.42820  1.0000 0.2625598617
H   H18       1.0  0.75060  0.91360  0.41350  1.0000 0.2677214103
H   H19       1.0  0.87500  0.02000  0.26600  1.0000 0.1386233128
H   H20       1.0  0.00210  0.91340  0.24630  1.0000 0.1280003853
H   H21       1.0  0.85010  0.92590  0.23060  1.0000 0.121480555
H   H22       1.0  0.83900  0.73650  0.49140  1.0000 0.121480555
H   H23       1.0  0.82720  0.74610  0.37360  1.0000 0.1280003853
H   H24       1.0  0.97930  0.73410  0.38880  1.0000 0.121480555
H   H25       1.0  0.10900  0.09750  0.57180  1.0000 0.2625598617
H   H26       1.0  0.24940  0.08640  0.58650  1.0000 0.2677214103
H   H27       1.0  0.12500  0.98000  0.73400  1.0000 0.1386233128
H   H28       1.0  0.99790  0.08660  0.75370  1.0000 0.1280003853
H   H29       1.0  0.14990  0.07410  0.76940  1.0000 0.121480555
H   H30       1.0  0.16100  0.26350  0.50860  1.0000 0.121480555
H   H31       1.0  0.17280  0.25390  0.62640  1.0000 0.1280003853
H   H32       1.0  0.02070  0.26590  0.61120  1.0000 0.121480555
H   H33       1.0  0.67130  0.73690  0.81640  1.0000 0.2677214103
H   H34       1.0  0.59960  0.71480  0.75090  1.0000 0.2677214103
H   H35       1.0  0.84070  0.67050  0.67520  1.0000 0.1280003853
H   H36       1.0  0.85720  0.58740  0.78900  1.0000 0.1386233128
H   H37       1.0  0.77980  0.56310  0.71860  1.0000 0.121480555
H   H38       1.0  0.48600  0.65800  0.93290  1.0000 0.1280003853
H   H39       1.0  0.55930  0.55480  0.87910  1.0000 0.1280003853
H   H40       1.0  0.63600  0.57900  0.95000  1.0000 0.1280003853
H   H41       1.0  0.32870  0.26310  0.18360  1.0000 0.2677214103
H   H42       1.0  0.40040  0.28520  0.24910  1.0000 0.2677214103
H   H43       1.0  0.15930  0.32950  0.32480  1.0000 0.1280003853
H   H44       1.0  0.14280  0.41260  0.21100  1.0000 0.1386233128
H   H45       1.0  0.22020  0.43690  0.28140  1.0000 0.121480555
H   H46       1.0  0.51400  0.34200  0.06710  1.0000 0.1280003853
H   H47       1.0  0.44070  0.44520  0.12090  1.0000 0.1280003853
H   H48       1.0  0.36400  0.42100  0.05000  1.0000 0.1280003853
C   C1        1.0  0.21770  0.70350  0.49160  1.0000 -0.1755357527
C   C2        1.0  0.78230  0.29650  0.50840  1.0000 -0.1755357527
C   C3        1.0  0.21930  0.60580  0.57320  1.0000 -0.0704224177
C   C4        1.0  0.78070  0.39420  0.42680  1.0000 -0.0704224177
C   C5        1.0  0.29330  0.50320  0.54420  1.0000 -0.0995390162
C   C6        1.0  0.70670  0.49680  0.45580  1.0000 -0.0995390162
C   C7        1.0  0.36380  0.49970  0.43710  1.0000 -0.0211609409
C   C8        1.0  0.63620  0.50030  0.56290  1.0000 -0.0211609409
C   C9        1.0  0.36240  0.59710  0.35460  1.0000 -0.0995390162
C   C10       1.0  0.63760  0.40290  0.64540  1.0000 -0.0995390162
C   C11       1.0  0.28920  0.69840  0.38200  1.0000 -0.0898935639
C   C12       1.0  0.71080  0.30160  0.61800  1.0000 -0.0898935639
C   C13       1.0  0.44740  0.39040  0.40670  1.0000 0.5497866876
C   C14       1.0  0.55260  0.60960  0.59330  1.0000 0.5497866876
C   C15       1.0  0.43300  0.00940  0.79540  1.0000 -0.1717493229
C   C16       1.0  0.56700  0.99060  0.20460  1.0000 -0.1717493229
C   C17       1.0  0.37760  0.93840  0.89250  1.0000 -0.0806540244
C   C18       1.0  0.62240  0.06160  0.10750  1.0000 -0.0806540244
C   C19       1.0  0.31900  0.97100  0.98940  1.0000 -0.0898935639
C   C20       1.0  0.68100  0.02900  0.01060  1.0000 -0.0898935639
C   C21       1.0  0.31600  0.07530  0.99530  1.0000 -0.0211609409
C   C22       1.0  0.68400  0.92470  0.00470  1.0000 -0.0211609409
C   C23       1.0  0.37100  0.14770  0.89790  1.0000 -0.0995390162
C   C24       1.0  0.62900  0.85230  0.10210  1.0000 -0.0995390162
C   C25       1.0  0.42880  0.11570  0.79860  1.0000 -0.0898935639
C   C26       1.0  0.57120  0.88430  0.20140  1.0000 -0.0898935639
C   C27       1.0  0.25890  0.10820  0.10280  1.0000 0.5627727515
C   C28       1.0  0.74110  0.89180  0.89720  1.0000 0.5627727515
C   C29       1.0  0.89800  0.94090  0.27330  1.0000 -0.2780884796
C   C30       1.0  0.87570  0.76560  0.41270  1.0000 -0.2877334945
C   C31       1.0  0.10200  0.05910  0.72670  1.0000 -0.2780884796
C   C32       1.0  0.12430  0.23440  0.58730  1.0000 -0.2877334945
C   C33       1.0  0.79500  0.62070  0.74030  1.0000 -0.2780884796
C   C34       1.0  0.57760  0.61240  0.89870  1.0000 -0.2780884796
C   C35       1.0  0.20500  0.37930  0.25970  1.0000 -0.2780884796
C   C36       1.0  0.42240  0.38760  0.10130  1.0000 -0.2780884796
N   N1        1.0  0.84780  0.88560  0.38890  1.0000 -0.0995390162
N   N2        1.0  0.15220  0.11440  0.61110  1.0000 -0.0995390162
N   N3        1.0  0.65630  0.68220  0.79760  1.0000 -0.0995390162
N   N4        1.0  0.34370  0.31780  0.20240  1.0000 -0.0995390162
O   O1        1.0  0.22880  0.86730  0.56790  1.0000 -0.7594519549
O   O2        1.0  0.77120  0.13270  0.43210  1.0000 -0.7594519549
O   O3        1.0  0.98810  0.82200  0.61600  1.0000 -0.753270685
O   O4        1.0  0.01190  0.17800  0.38400  1.0000 -0.753270685
O   O5        1.0  0.10100  0.91670  0.42060  1.0000 -0.7690863404
O   O6        1.0  0.89900  0.08330  0.57940  1.0000 -0.7755159729
O   O7        1.0  0.44670  0.30530  0.48550  1.0000 -0.5353088968
O   O8        1.0  0.55330  0.69470  0.51450  1.0000 -0.5348767631
O   O9        1.0  0.50960  0.38770  0.30720  1.0000 -0.5502959582
O   O10       1.0  0.49040  0.61230  0.69280  1.0000 -0.5502959582
O   O11       1.0  0.67200  0.92880  0.63790  1.0000 -0.7690863404
O   O12       1.0  0.32800  0.07120  0.36210  1.0000 -0.7690863404
O   O13       1.0  0.44140  0.87440  0.67930  1.0000 -0.753270685
O   O14       1.0  0.55860  0.12560  0.32070  1.0000 -0.753270685
O   O15       1.0  0.45840  0.07130  0.57980  1.0000 -0.7594519549
O   O16       1.0  0.54160  0.92870  0.42020  1.0000 -0.7594519549
O   O17       1.0  0.20300  0.03760  0.18650  1.0000 -0.5502959582
O   O18       1.0  0.79700  0.96240  0.81350  1.0000 -0.5502959582
O   O19       1.0  0.26970  0.19800  0.10760  1.0000 -0.5502959582
O   O20       1.0  0.73030  0.80200  0.89240  1.0000 -0.5502959582
