# DDEC6 charges by PACMAN v1.1 (https://github.com/mtap-research/PACMAN-charge/)
data_2008[In][cds]3[ION]1
_chemical_formula_sum              "In2 H98 C92 N12 O20"
_cell_length_a       13.8617
_cell_length_b       13.8617
_cell_length_c       15.1126
_cell_angle_alpha    90
_cell_angle_beta     90
_cell_angle_gamma    110.277

_symmetry_space_group_name_H-M    "P 1"
_symmetry_Int_Tables_number       1

loop_
  _symmetry_equiv_pos_as_xyz
  'x, y, z'

loop_
  _atom_site_type_symbol
  _atom_site_label
  _atom_site_symmetry_multiplicity
  _atom_site_fract_x
  _atom_site_fract_y
  _atom_site_fract_z
  _atom_site_occupancy
  _atom_site_charge
In  In1       1.0  0.77304  0.43102  0.13308  1.0000 1.3052277175
In  In2       1.0  0.56898  0.22696  0.63308  1.0000 1.3052277175
H   H1        1.0  0.71270  0.98070  0.73860  1.0000 0.1076823277
H   H2        1.0  0.01930  0.28730  0.23860  1.0000 0.1076823277
H   H3        1.0  0.86750  0.70830  0.34540  1.0000 0.1031547216
H   H4        1.0  0.29170  0.13250  0.84540  1.0000 0.1031547216
H   H5        1.0  0.78400  0.73880  0.98960  1.0000 0.1076823277
H   H6        1.0  0.26120  0.21600  0.48960  1.0000 0.1076823277
H   H7        1.0  0.64000  0.52360  0.56070  1.0000 0.1397362339
H   H8        1.0  0.47640  0.36000  0.06070  1.0000 0.1397362339
H   H9        1.0  0.84640  0.78860  0.47480  1.0000 0.1203830076
H   H10       1.0  0.21140  0.15360  0.97480  1.0000 0.1203830076
H   H11       1.0  0.65940  0.44220  0.42860  1.0000 0.1203830076
H   H12       1.0  0.55780  0.34060  0.92860  1.0000 0.1203830076
H   H13       1.0  0.49600  0.54480  0.03040  1.0000 0.1203830076
H   H14       1.0  0.45520  0.50400  0.53040  1.0000 0.1203830076
H   H15       1.0  0.55370  0.90190  0.51310  1.0000 0.1031547216
H   H16       1.0  0.09810  0.44630  0.01310  1.0000 0.1031547216
H   H17       1.0  0.43220  0.66667  0.97430  1.0000 0.1397362339
H   H18       1.0  0.33340  0.56780  0.47430  1.0000 0.1397362339
H   H19       1.0  0.61360  0.06360  0.14110  1.0000 0.1031547216
H   H20       1.0  0.93640  0.38640  0.64110  1.0000 0.1031547216
H   H21       1.0  0.72150  0.85870  0.93310  1.0000 0.1397362339
H   H22       1.0  0.14130  0.27850  0.43310  1.0000 0.1397362339
H   H23       1.0  0.56250  0.90030  0.08410  1.0000 0.1290477803
H   H24       1.0  0.09970  0.43750  0.58410  1.0000 0.1290477803
H   H25       1.0  0.61210  0.76330  0.49640  1.0000 0.1290477803
H   H26       1.0  0.23670  0.38790  0.99640  1.0000 0.1290477803
H   H27       1.0  0.76700  0.84180  0.72600  1.0000 0.1397362339
H   H28       1.0  0.15820  0.23300  0.22600  1.0000 0.1397362339
H   H29       1.0  0.58490  0.01870  0.83820  1.0000 0.1397362339
H   H30       1.0  0.98130  0.41510  0.33820  1.0000 0.1397362339
H   H31       1.0  0.64450  0.18330  0.89650  1.0000 0.1203830076
H   H32       1.0  0.81670  0.35550  0.39650  1.0000 0.1203830076
H   H33       1.0  0.73630  0.52970  0.86590  1.0000 0.1076823277
H   H34       1.0  0.70920  0.45860  0.78240  1.0000 0.1203830076
H   H35       1.0  0.96920  0.59180  0.55010  1.0000 0.1397362339
H   H36       1.0  0.06510  0.66850  0.59870  1.0000 0.1290477803
H   H37       1.0  0.99480  0.71060  0.54060  1.0000 0.1397362339
H   H38       1.0  0.99010  0.79670  0.71640  1.0000 0.1203830076
H   H39       1.0  0.85600  0.73100  0.82860  1.0000 0.1203830076
H   H40       1.0  0.57320  0.50580  0.82070  1.0000 0.1290477803
H   H41       1.0  0.61370  0.55050  0.72710  1.0000 0.1397362339
H   H42       1.0  0.64100  0.62220  0.81050  1.0000 0.1203830076
H   H43       1.0  0.82850  0.51130  0.65600  1.0000 0.1203830076
H   H44       1.0  0.47030  0.26370  0.36590  1.0000 0.1076823277
H   H45       1.0  0.54140  0.29080  0.28240  1.0000 0.1203830076
H   H46       1.0  0.40820  0.03080  0.05010  1.0000 0.1397362339
H   H47       1.0  0.33150  0.93490  0.09870  1.0000 0.1290477803
H   H48       1.0  0.28940  0.00520  0.04060  1.0000 0.1397362339
H   H49       1.0  0.20330  0.00990  0.21640  1.0000 0.1203830076
H   H50       1.0  0.26900  0.14400  0.32860  1.0000 0.1203830076
H   H51       1.0  0.49420  0.42680  0.32070  1.0000 0.1290477803
H   H52       1.0  0.44950  0.38630  0.22710  1.0000 0.1397362339
H   H53       1.0  0.37780  0.35900  0.31050  1.0000 0.1203830076
H   H54       1.0  0.48870  0.17150  0.15600  1.0000 0.1203830076
H   H55       1.0  0.94760  0.64520  0.95070  1.0000 0.1486122814
H   H56       1.0  0.02230  0.58790  0.92210  1.0000 0.1397362339
H   H57       1.0  0.04750  0.70390  0.89710  1.0000 0.1203830076
H   H58       1.0  0.03970  0.77730  0.25790  1.0000 0.1031547216
H   H59       1.0  0.15880  0.80800  0.27180  1.0000 0.0816325491
H   H60       1.0  0.26060  0.74200  0.14790  1.0000 0.1203830076
H   H61       1.0  0.22310  0.69490  0.99200  1.0000 0.1290477803
H   H62       1.0  0.96750  0.69050  0.10950  1.0000 0.1397362339
H   H63       1.0  0.07100  0.67800  0.37200  1.0000 0.1203830076
H   H64       1.0  0.13680  0.63680  0.30790  1.0000 0.1290477803
H   H65       1.0  0.01790  0.60550  0.29320  1.0000 0.1397362339
H   H66       1.0  0.35480  0.05240  0.45070  1.0000 0.1486122814
H   H67       1.0  0.41210  0.97770  0.42210  1.0000 0.1397362339
H   H68       1.0  0.29610  0.95250  0.39710  1.0000 0.1203830076
H   H69       1.0  0.22270  0.96030  0.75790  1.0000 0.1031547216
H   H70       1.0  0.19200  0.84120  0.77180  1.0000 0.0816325491
H   H71       1.0  0.25800  0.73940  0.64790  1.0000 0.1203830076
H   H72       1.0  0.30510  0.77690  0.49200  1.0000 0.1290477803
H   H73       1.0  0.30950  0.03250  0.60950  1.0000 0.1397362339
H   H74       1.0  0.32200  0.92900  0.87200  1.0000 0.1203830076
H   H75       1.0  0.36320  0.86320  0.80790  1.0000 0.1290477803
H   H76       1.0  0.39450  0.98210  0.79320  1.0000 0.1397362339
H   H77       1.0  0.82820  0.20180  0.25190  1.0000 0.1397362339
H   H78       1.0  0.85160  0.87360  0.29780  1.0000 0.1076823277
H   H79       1.0  0.73860  0.82480  0.33260  1.0000 0.1031547216
H   H80       1.0  0.63500  0.93980  0.34520  1.0000 0.1076823277
H   H81       1.0  0.90230  0.06890  0.22190  1.0000 0.1397362339
H   H82       1.0  0.57760  0.08200  0.36600  1.0000 0.1290477803
H   H83       1.0  0.61110  0.16170  0.28840  1.0000 0.1397362339
H   H84       1.0  0.66700  0.18720  0.38010  1.0000 0.1623005179
H   H85       1.0  0.75820  0.74540  0.20630  1.0000 0.1397362339
H   H86       1.0  0.79290  0.85050  0.15550  1.0000 0.1290477803
H   H87       1.0  0.67970  0.80210  0.19020  1.0000 0.1290477803
H   H88       1.0  0.79820  0.17180  0.75190  1.0000 0.1397362339
H   H89       1.0  0.12640  0.14840  0.79780  1.0000 0.1076823277
H   H90       1.0  0.17520  0.26140  0.83260  1.0000 0.1031547216
H   H91       1.0  0.06020  0.36500  0.84520  1.0000 0.1076823277
H   H92       1.0  0.93110  0.09770  0.72190  1.0000 0.1397362339
H   H93       1.0  0.91800  0.42240  0.86600  1.0000 0.1290477803
H   H94       1.0  0.83830  0.38890  0.78840  1.0000 0.1397362339
H   H95       1.0  0.81280  0.33300  0.88010  1.0000 0.1623005179
H   H96       1.0  0.25460  0.24180  0.70630  1.0000 0.1397362339
H   H97       1.0  0.14950  0.20710  0.65550  1.0000 0.1290477803
H   H98       1.0  0.19790  0.32030  0.69020  1.0000 0.1290477803
C   C1        1.0  0.64670  0.62830  0.01720  1.0000 -0.0492484935
C   C2        1.0  0.37170  0.35330  0.51720  1.0000 -0.0492484935
C   C3        1.0  0.62730  0.95530  0.62580  1.0000 -0.0492484935
C   C4        1.0  0.04470  0.37270  0.12580  1.0000 -0.0492484935
C   C5        1.0  0.69200  0.93680  0.69030  1.0000 -0.100340288
C   C6        1.0  0.06320  0.30800  0.19030  1.0000 -0.100340288
C   C7        1.0  0.59940  0.04860  0.63130  1.0000 0.5198446122
C   C8        1.0  0.95140  0.40060  0.13130  1.0000 0.5198446122
C   C9        1.0  0.76420  0.56880  0.37270  1.0000 -0.0492484935
C   C10       1.0  0.43120  0.23580  0.87270  1.0000 -0.0492484935
C   C11       1.0  0.82060  0.67120  0.38780  1.0000 -0.1119392215
C   C12       1.0  0.32880  0.17940  0.88780  1.0000 -0.1119392215
C   C13       1.0  0.73850  0.66270  0.52790  1.0000 0.225201538
C   C14       1.0  0.33730  0.26150  0.02790  1.0000 0.225201538
C   C15       1.0  0.71330  0.72410  0.98690  1.0000 -0.100340288
C   C16       1.0  0.27590  0.28670  0.48690  1.0000 -0.100340288
C   C17       1.0  0.68440  0.56060  0.51670  1.0000 -0.2213480341
C   C18       1.0  0.43940  0.31560  0.01670  1.0000 -0.2213480341
C   C19       1.0  0.80850  0.71950  0.46510  1.0000 -0.2413921448
C   C20       1.0  0.28050  0.19150  0.96510  1.0000 -0.2413921448
C   C21       1.0  0.69630  0.51170  0.43750  1.0000 -0.0794374923
C   C22       1.0  0.48830  0.30370  0.93750  1.0000 -0.0794374923
C   C23       1.0  0.69560  0.78920  0.61030  1.0000 0.2613063065
C   C24       1.0  0.21080  0.30440  0.11030  1.0000 0.2613063065
C   C25       1.0  0.54130  0.60810  0.01150  1.0000 -0.0879121055
C   C26       1.0  0.39190  0.45870  0.51150  1.0000 -0.0879121055
C   C27       1.0  0.77230  0.51930  0.28720  1.0000 0.5198446122
C   C28       1.0  0.48070  0.22770  0.78720  1.0000 0.5198446122
C   C29       1.0  0.59740  0.89060  0.55530  1.0000 -0.100340288
C   C30       1.0  0.10940  0.40260  0.05530  1.0000 -0.100340288
C   C31       1.0  0.57090  0.77490  0.95050  1.0000 0.2400754598
C   C32       1.0  0.22510  0.42910  0.45050  1.0000 0.2400754598
C   C33       1.0  0.50270  0.68090  0.97810  1.0000 -0.2213480341
C   C34       1.0  0.31910  0.49730  0.47810  1.0000 -0.2213480341
C   C35       1.0  0.63740  0.14040  0.02650  1.0000 -0.0581568124
C   C36       1.0  0.85960  0.36260  0.52650  1.0000 -0.0581568124
C   C37       1.0  0.61010  0.05470  0.08010  1.0000 -0.1119392215
C   C38       1.0  0.94530  0.38990  0.58010  1.0000 -0.1119392215
C   C39       1.0  0.67640  0.79600  0.95360  1.0000 -0.2213480341
C   C40       1.0  0.20400  0.32360  0.45360  1.0000 -0.2213480341
C   C41       1.0  0.57790  0.95690  0.04660  1.0000 -0.2413921448
C   C42       1.0  0.04310  0.42210  0.54660  1.0000 -0.2413921448
C   C43       1.0  0.63170  0.80650  0.54530  1.0000 -0.2601222935
C   C44       1.0  0.19350  0.36830  0.04530  1.0000 -0.2601222935
C   C45       1.0  0.72500  0.85400  0.68270  1.0000 -0.2213480341
C   C46       1.0  0.14600  0.27500  0.18270  1.0000 -0.2213480341
C   C47       1.0  0.59250  0.02810  0.89900  1.0000 -0.2141548636
C   C48       1.0  0.97190  0.40750  0.39900  1.0000 -0.2141548636
C   C49       1.0  0.56880  0.94400  0.95470  1.0000 0.2461016384
C   C50       1.0  0.05600  0.43120  0.45470  1.0000 0.2461016384
C   C51       1.0  0.62750  0.12650  0.93390  1.0000 -0.0879121055
C   C52       1.0  0.87350  0.37250  0.43390  1.0000 -0.0879121055
C   C53       1.0  0.67860  0.24580  0.06340  1.0000 0.5198446122
C   C54       1.0  0.75420  0.32140  0.56340  1.0000 0.5198446122
C   C55       1.0  0.68840  0.55240  0.05560  1.0000 0.5198446122
C   C56       1.0  0.44760  0.31160  0.55560  1.0000 0.5198446122
C   C57       1.0  0.72260  0.52840  0.80280  1.0000 -0.0794374923
C   C58       1.0  0.99570  0.65670  0.58010  1.0000 -0.3574487659
C   C59       1.0  0.94100  0.73100  0.71810  1.0000 -0.1281396242
C   C60       1.0  0.86790  0.69510  0.78030  1.0000 -0.100340288
C   C61       1.0  0.62950  0.55390  0.78910  1.0000 -0.3976916018
C   C62       1.0  0.85290  0.57430  0.68510  1.0000 0.027077621
C   C63       1.0  0.47160  0.27740  0.30280  1.0000 -0.0794374923
C   C64       1.0  0.34330  0.00430  0.08010  1.0000 -0.3574487659
C   C65       1.0  0.26900  0.05900  0.21810  1.0000 -0.1281396242
C   C66       1.0  0.30490  0.13210  0.28030  1.0000 -0.100340288
C   C67       1.0  0.44610  0.37050  0.28910  1.0000 -0.3976916018
C   C68       1.0  0.42570  0.14710  0.18510  1.0000 0.027077621
C   C69       1.0  0.01820  0.65240  0.94140  1.0000 -0.3480732831
C   C70       1.0  0.09720  0.75300  0.25280  1.0000 -0.0794374923
C   C71       1.0  0.19710  0.72650  0.12010  1.0000 -0.1173539775
C   C72       1.0  0.17680  0.70020  0.03470  1.0000 -0.1479492726
C   C73       1.0  0.03600  0.69840  0.09950  1.0000 0.0377103501
C   C74       1.0  0.07900  0.65980  0.31190  1.0000 -0.4092644843
C   C75       1.0  0.34760  0.98180  0.44140  1.0000 -0.3480732831
C   C76       1.0  0.24700  0.90280  0.75280  1.0000 -0.0794374923
C   C77       1.0  0.27350  0.80290  0.62010  1.0000 -0.1173539775
C   C78       1.0  0.29980  0.82320  0.53470  1.0000 -0.1479492726
C   C79       1.0  0.30160  0.96400  0.59950  1.0000 0.0377103501
C   C80       1.0  0.34020  0.92100  0.81190  1.0000 -0.4092644843
C   C81       1.0  0.79980  0.13260  0.26680  1.0000 -0.0794374923
C   C82       1.0  0.78070  0.86590  0.28550  1.0000 -0.0879121055
C   C83       1.0  0.69250  0.98770  0.31920  1.0000 -0.0291823288
C   C84       1.0  0.84060  0.06060  0.25070  1.0000 -0.1424471306
C   C85       1.0  0.63470  0.13350  0.33840  1.0000 -0.3574487659
C   C86       1.0  0.75030  0.81130  0.20230  1.0000 -0.3976916018
C   C87       1.0  0.86740  0.20020  0.76680  1.0000 -0.0794374923
C   C88       1.0  0.13410  0.21930  0.78550  1.0000 -0.0879121055
C   C89       1.0  0.01230  0.30750  0.81920  1.0000 -0.0291823288
C   C90       1.0  0.93940  0.15940  0.75070  1.0000 -0.1424471306
C   C91       1.0  0.86650  0.36530  0.83840  1.0000 -0.3574487659
C   C92       1.0  0.18870  0.24970  0.70230  1.0000 -0.3976916018
N   N1        1.0  0.93110  0.65550  0.65830  1.0000 0.0721824077
N   N2        1.0  0.81510  0.59610  0.75840  1.0000 0.0377103501
N   N3        1.0  0.34450  0.06890  0.15830  1.0000 0.0721824077
N   N4        1.0  0.40390  0.18490  0.25840  1.0000 0.0377103501
N   N5        1.0  0.10900  0.72660  0.15850  1.0000 0.027077621
N   N6        1.0  0.07460  0.68300  0.02340  1.0000 0.0816325491
N   N7        1.0  0.27340  0.89100  0.65850  1.0000 0.027077621
N   N8        1.0  0.31700  0.92540  0.52340  1.0000 0.0816325491
N   N9        1.0  0.77080  0.96900  0.28640  1.0000 0.0237310605
N   N10       1.0  0.70930  0.08690  0.30880  1.0000 0.094331598
N   N11       1.0  0.03100  0.22920  0.78640  1.0000 0.0237310605
N   N12       1.0  0.91310  0.29070  0.80880  1.0000 0.094331598
O   O1        1.0  0.83320  0.56980  0.22690  1.0000 -0.568531284
O   O2        1.0  0.43020  0.16680  0.72690  1.0000 -0.568531284
O   O3        1.0  0.78164  0.56116  0.03850  1.0000 -0.568531284
O   O4        1.0  0.43884  0.21836  0.53850  1.0000 -0.568531284
O   O5        1.0  0.66139  0.25901  0.14490  1.0000 -0.568531284
O   O6        1.0  0.74099  0.33861  0.64490  1.0000 -0.568531284
O   O7        1.0  0.53872  0.06528  0.57640  1.0000 -0.5350851806
O   O8        1.0  0.93472  0.46128  0.07640  1.0000 -0.5350851806
O   O9        1.0  0.71825  0.42555  0.27430  1.0000 -0.5287203881
O   O10       1.0  0.57445  0.28175  0.77430  1.0000 -0.5287203881
O   O11       1.0  0.63545  0.48235  0.10570  1.0000 -0.5223321709
O   O12       1.0  0.51765  0.36455  0.60570  1.0000 -0.5223321709
O   O13       1.0  0.63650  0.11470  0.69110  1.0000 -0.5287203881
O   O14       1.0  0.88530  0.36350  0.19110  1.0000 -0.5287203881
O   O15       1.0  0.72984  0.32156  0.01660  1.0000 -0.5350851806
O   O16       1.0  0.67844  0.27016  0.51660  1.0000 -0.5350851806
O   O17       1.0  0.72945  0.70695  0.60850  1.0000 -0.2321175652
O   O18       1.0  0.29305  0.27055  0.10850  1.0000 -0.2321175652
O   O19       1.0  0.53286  0.84754  0.91680  1.0000 -0.2321175652
O   O20       1.0  0.15246  0.46714  0.41680  1.0000 -0.2321175652
