# DDEC6 charges by PACMAN v1.1 (https://github.com/mtap-research/PACMAN-charge/)
data_2008[Bi][dia]3[ION]1
_chemical_formula_sum              "Bi4 H32 C16 N4 O32"
_cell_length_a       11.7026
_cell_length_b       11.7026
_cell_length_c       9.2233
_cell_angle_alpha    90
_cell_angle_beta     90
_cell_angle_gamma    90

_symmetry_space_group_name_H-M    "P 1"
_symmetry_Int_Tables_number       1

loop_
  _symmetry_equiv_pos_as_xyz
  'x, y, z'

loop_
  _atom_site_type_symbol
  _atom_site_label
  _atom_site_symmetry_multiplicity
  _atom_site_fract_x
  _atom_site_fract_y
  _atom_site_fract_z
  _atom_site_occupancy
  _atom_site_charge
Bi  Bi1       1.0  0.49989  0.25007  0.62497  1.0000 1.4474003684
Bi  Bi2       1.0  0.00010  0.75000  0.12501  1.0000 1.4474003684
Bi  Bi3       1.0  0.00011  0.25000  0.87500  1.0000 1.4474003684
Bi  Bi4       1.0  0.49990  0.74994  0.37498  1.0000 1.4474003684
H   H1        1.0  0.00361  0.32265  0.30696  1.0000 0.2488089235
H   H2        1.0  0.49622  0.67738  0.80744  1.0000 0.2488089235
H   H3        1.0  0.92718  0.75344  0.55660  1.0000 0.2488089235
H   H4        1.0  0.57281  0.24657  0.05657  1.0000 0.2488089235
H   H5        1.0  0.49638  0.32265  0.19301  1.0000 0.2488089235
H   H6        1.0  0.00361  0.67735  0.69304  1.0000 0.2488089235
H   H7        1.0  0.56960  0.75296  0.94568  1.0000 0.2488089235
H   H8        1.0  0.92719  0.24656  0.44340  1.0000 0.2552555573
H   H9        1.0  0.99647  0.68062  0.69537  1.0000 0.2414291433
H   H10       1.0  0.50352  0.31938  0.19535  1.0000 0.2414291433
H   H11       1.0  0.06925  0.24637  0.44507  1.0000 0.2414291433
H   H12       1.0  0.43067  0.75335  0.94495  1.0000 0.2414291433
H   H13       1.0  0.50335  0.68068  0.80504  1.0000 0.2414291433
H   H14       1.0  0.99647  0.31938  0.30464  1.0000 0.2414291433
H   H15       1.0  0.43074  0.24636  0.05495  1.0000 0.2414291433
H   H16       1.0  0.06925  0.75362  0.55494  1.0000 0.2414291433
H   H17       1.0  0.50296  0.81960  0.80431  1.0000 0.2488089235
H   H18       1.0  0.99722  0.18057  0.30477  1.0000 0.2414291433
H   H19       1.0  0.42734  0.25342  0.05744  1.0000 0.2414291433
H   H20       1.0  0.07265  0.74655  0.55742  1.0000 0.2414291433
H   H21       1.0  0.99722  0.81944  0.69522  1.0000 0.2414291433
H   H22       1.0  0.50279  0.18056  0.19522  1.0000 0.2414291433
H   H23       1.0  0.07265  0.25344  0.44258  1.0000 0.2488089235
H   H24       1.0  0.42738  0.74622  0.94256  1.0000 0.2488089235
H   H25       1.0  0.49561  0.17737  0.19292  1.0000 0.2488089235
H   H26       1.0  0.00440  0.82263  0.69293  1.0000 0.2488089235
H   H27       1.0  0.57275  0.74577  0.94344  1.0000 0.2488089235
H   H28       1.0  0.93046  0.25368  0.44576  1.0000 0.2488089235
H   H29       1.0  0.00440  0.17738  0.30706  1.0000 0.2488089235
H   H30       1.0  0.49576  0.82274  0.80655  1.0000 0.2552555573
H   H31       1.0  0.93046  0.74632  0.55424  1.0000 0.2414291433
H   H32       1.0  0.56953  0.25369  0.05421  1.0000 0.2414291433
C   C1        1.0  0.50002  0.02229  0.41963  1.0000 0.4338466596
C   C2        1.0  0.99998  0.97768  0.91961  1.0000 0.4338466596
C   C3        1.0  0.22768  0.24998  0.66962  1.0000 0.4338466596
C   C4        1.0  0.27231  0.75002  0.16961  1.0000 0.4338466596
C   C5        1.0  0.99998  0.02231  0.08040  1.0000 0.4338466596
C   C6        1.0  0.50002  0.97764  0.58047  1.0000 0.4338466596
C   C7        1.0  0.27232  0.24998  0.83039  1.0000 0.4338466596
C   C8        1.0  0.22769  0.75002  0.33038  1.0000 0.4338466596
C   C9        1.0  0.77233  0.74998  0.33044  1.0000 0.4338466596
C   C10       1.0  0.72766  0.25002  0.83046  1.0000 0.4338466596
C   C11       1.0  0.72766  0.75002  0.16956  1.0000 0.4338466596
C   C12       1.0  0.77232  0.25002  0.66959  1.0000 0.4338466596
C   C13       1.0  0.99998  0.52232  0.91960  1.0000 0.4338466596
C   C14       1.0  0.50002  0.47769  0.41963  1.0000 0.4338466596
C   C15       1.0  0.50002  0.52231  0.58041  1.0000 0.4338466596
C   C16       1.0  0.99998  0.47769  0.08038  1.0000 0.4338466596
N   N1        1.0  0.50100  0.25003  0.12495  1.0000 -0.5804930953
N   N2        1.0  0.99906  0.74996  0.62494  1.0000 -0.5804930953
N   N3        1.0  0.99906  0.25004  0.37505  1.0000 -0.5870434273
N   N4        1.0  0.50100  0.75101  0.87500  1.0000 -0.5870434273
O   O1        1.0  0.50018  0.13074  0.39847  1.0000 -0.5804930953
O   O2        1.0  0.99980  0.86924  0.89849  1.0000 -0.5804930953
O   O3        1.0  0.11922  0.24975  0.64857  1.0000 -0.5804930953
O   O4        1.0  0.38079  0.75023  0.14852  1.0000 -0.5804930953
O   O5        1.0  0.99980  0.13075  0.10151  1.0000 -0.5804930953
O   O6        1.0  0.50013  0.86924  0.60189  1.0000 -0.5804930953
O   O7        1.0  0.38079  0.24974  0.85143  1.0000 -0.5804930953
O   O8        1.0  0.11923  0.75025  0.35144  1.0000 -0.5804930953
O   O9        1.0  0.88075  0.74985  0.35181  1.0000 -0.5804930953
O   O10       1.0  0.61924  0.25011  0.85185  1.0000 -0.5804930953
O   O11       1.0  0.61924  0.75012  0.14811  1.0000 -0.5804930953
O   O12       1.0  0.88074  0.25015  0.64819  1.0000 -0.5804930953
O   O13       1.0  0.99983  0.63075  0.89852  1.0000 -0.5804930953
O   O14       1.0  0.50019  0.36926  0.39853  1.0000 -0.5804930953
O   O15       1.0  0.50023  0.63080  0.60149  1.0000 -0.5804930953
O   O16       1.0  0.99982  0.36926  0.10147  1.0000 -0.5804930953
O   O17       1.0  0.49999  0.95113  0.31725  1.0000 -0.5607667234
O   O18       1.0  0.00001  0.04887  0.81725  1.0000 -0.5607667234
O   O19       1.0  0.29890  0.25001  0.56730  1.0000 -0.5607667234
O   O20       1.0  0.20110  0.74999  0.06730  1.0000 -0.5607667234
O   O21       1.0  0.00001  0.95113  0.18275  1.0000 -0.5607667234
O   O22       1.0  0.49999  0.04892  0.68274  1.0000 -0.5607667234
O   O23       1.0  0.20111  0.25001  0.93270  1.0000 -0.5607667234
O   O24       1.0  0.29891  0.74999  0.43269  1.0000 -0.5607667234
O   O25       1.0  0.70109  0.75000  0.43275  1.0000 -0.5607667234
O   O26       1.0  0.79891  0.25000  0.93276  1.0000 -0.5607667234
O   O27       1.0  0.79891  0.75000  0.06726  1.0000 -0.5607667234
O   O28       1.0  0.70109  0.25000  0.56728  1.0000 -0.5607667234
O   O29       1.0  0.00000  0.45112  0.81724  1.0000 -0.5607667234
O   O30       1.0  0.50000  0.54889  0.31729  1.0000 -0.5607667234
O   O31       1.0  0.49999  0.45111  0.68272  1.0000 -0.5607667234
O   O32       1.0  0.00000  0.54888  0.18273  1.0000 -0.5607667234
