# DDEC6 charges by PACMAN v1.1 (https://github.com/mtap-research/PACMAN-charge/)
data_2008[Zn][pcu]3[ION]1
_chemical_formula_sum              "Zn1 H60 C60 N14 O12"
_cell_length_a       14.0756
_cell_length_b       14.0756
_cell_length_c       14.0756
_cell_angle_alpha    108.347
_cell_angle_beta     108.347
_cell_angle_gamma    108.347

_symmetry_space_group_name_H-M    "P 1"
_symmetry_Int_Tables_number       1

loop_
  _symmetry_equiv_pos_as_xyz
  'x, y, z'

loop_
  _atom_site_type_symbol
  _atom_site_label
  _atom_site_symmetry_multiplicity
  _atom_site_fract_x
  _atom_site_fract_y
  _atom_site_fract_z
  _atom_site_occupancy
  _atom_site_charge
Zn  Zn1       1.0  0.00000  0.00000  0.00000  1.0000 0.5926209844
H   H1        1.0  0.89360  0.73200  0.79930  1.0000 0.1229923635
H   H2        1.0  0.73200  0.79930  0.89360  1.0000 0.1229923635
H   H3        1.0  0.79930  0.89360  0.73200  1.0000 0.1229923635
H   H4        1.0  0.10640  0.26800  0.20070  1.0000 0.1229923635
H   H5        1.0  0.26800  0.20070  0.10640  1.0000 0.1229923635
H   H6        1.0  0.20070  0.10640  0.26800  1.0000 0.1229923635
H   H7        1.0  0.94580  0.67330  0.65010  1.0000 0.1363762474
H   H8        1.0  0.67330  0.65010  0.94580  1.0000 0.1363762474
H   H9        1.0  0.65010  0.94580  0.67330  1.0000 0.1363762474
H   H10       1.0  0.05420  0.32670  0.34990  1.0000 0.1363762474
H   H11       1.0  0.32670  0.34990  0.05420  1.0000 0.1363762474
H   H12       1.0  0.34990  0.05420  0.32670  1.0000 0.1363762474
H   H13       1.0  0.11360  0.00490  0.82720  1.0000 0.1105459562
H   H14       1.0  0.00490  0.82720  0.11360  1.0000 0.1105459562
H   H15       1.0  0.82720  0.11360  0.00490  1.0000 0.1105459562
H   H16       1.0  0.88640  0.99510  0.17280  1.0000 0.1105459562
H   H17       1.0  0.99510  0.17280  0.88640  1.0000 0.1105459562
H   H18       1.0  0.17280  0.88640  0.99510  1.0000 0.1105459562
H   H19       1.0  0.05890  0.79870  0.56640  1.0000 0.1229923635
H   H20       1.0  0.79870  0.56640  0.05890  1.0000 0.1229923635
H   H21       1.0  0.56640  0.05890  0.79870  1.0000 0.1229923635
H   H22       1.0  0.94110  0.20130  0.43360  1.0000 0.1229923635
H   H23       1.0  0.20130  0.43360  0.94110  1.0000 0.1229923635
H   H24       1.0  0.43360  0.94110  0.20130  1.0000 0.1229923635
H   H25       1.0  0.13560  0.92750  0.65040  1.0000 0.1229923635
H   H26       1.0  0.92750  0.65040  0.13560  1.0000 0.1229923635
H   H27       1.0  0.65040  0.13560  0.92750  1.0000 0.1229923635
H   H28       1.0  0.86440  0.07250  0.34960  1.0000 0.1229923635
H   H29       1.0  0.07250  0.34960  0.86440  1.0000 0.1229923635
H   H30       1.0  0.34960  0.86440  0.07250  1.0000 0.1229923635
H   H31       1.0  0.24710  0.83340  0.63810  1.0000 0.1018553718
H   H32       1.0  0.83340  0.63810  0.24710  1.0000 0.1018553718
H   H33       1.0  0.63810  0.24710  0.83340  1.0000 0.1018553718
H   H34       1.0  0.75290  0.16660  0.36190  1.0000 0.1018553718
H   H35       1.0  0.16660  0.36190  0.75290  1.0000 0.1018553718
H   H36       1.0  0.36190  0.75290  0.16660  1.0000 0.1018553718
H   H37       1.0  0.18550  0.75630  0.68200  1.0000 0.1018553718
H   H38       1.0  0.75630  0.68200  0.18550  1.0000 0.1018553718
H   H39       1.0  0.68200  0.18550  0.75630  1.0000 0.1018553718
H   H40       1.0  0.81450  0.24370  0.31800  1.0000 0.1018553718
H   H41       1.0  0.24370  0.31800  0.81450  1.0000 0.1018553718
H   H42       1.0  0.31800  0.81450  0.24370  1.0000 0.1018553718
H   H43       1.0  0.37190  0.78380  0.73180  1.0000 0.1229923635
H   H44       1.0  0.78380  0.73180  0.37190  1.0000 0.1229923635
H   H45       1.0  0.73180  0.37190  0.78380  1.0000 0.1229923635
H   H46       1.0  0.62810  0.21620  0.26820  1.0000 0.1229923635
H   H47       1.0  0.21620  0.26820  0.62810  1.0000 0.1229923635
H   H48       1.0  0.26820  0.62810  0.21620  1.0000 0.1229923635
H   H49       1.0  0.53750  0.78910  0.84050  1.0000 0.1105459562
H   H50       1.0  0.78910  0.84050  0.53750  1.0000 0.1105459562
H   H51       1.0  0.84050  0.53750  0.78910  1.0000 0.1105459562
H   H52       1.0  0.46250  0.21090  0.15950  1.0000 0.1105459562
H   H53       1.0  0.21090  0.15950  0.46250  1.0000 0.1105459562
H   H54       1.0  0.15950  0.46250  0.21090  1.0000 0.1105459562
H   H55       1.0  0.35130  0.07870  0.97530  1.0000 0.1105459562
H   H56       1.0  0.07870  0.97530  0.35130  1.0000 0.1105459562
H   H57       1.0  0.97530  0.35130  0.07870  1.0000 0.1105459562
H   H58       1.0  0.64870  0.92130  0.02470  1.0000 0.1105459562
H   H59       1.0  0.92130  0.02470  0.64870  1.0000 0.1105459562
H   H60       1.0  0.02470  0.64870  0.92130  1.0000 0.1105459562
C   C1        1.0  0.94450  0.77998  0.78592  1.0000 -0.0399671278
C   C2        1.0  0.77998  0.78592  0.94450  1.0000 -0.0399671278
C   C3        1.0  0.78592  0.94450  0.77998  1.0000 -0.0399671278
C   C4        1.0  0.05550  0.22002  0.21408  1.0000 -0.0399671278
C   C5        1.0  0.22002  0.21408  0.05550  1.0000 -0.0399671278
C   C6        1.0  0.21408  0.05550  0.22002  1.0000 -0.0399671278
C   C7        1.0  0.97255  0.74685  0.70340  1.0000 -0.1125472381
C   C8        1.0  0.74685  0.70340  0.97255  1.0000 -0.1125472381
C   C9        1.0  0.70340  0.97255  0.74685  1.0000 -0.1125472381
C   C10       1.0  0.02745  0.25315  0.29660  1.0000 -0.1125472381
C   C11       1.0  0.25315  0.29660  0.02745  1.0000 -0.1125472381
C   C12       1.0  0.29660  0.02745  0.25315  1.0000 -0.1125472381
C   C13       1.0  0.06462  0.92991  0.80177  1.0000 0.0897029943
C   C14       1.0  0.92991  0.80177  0.06462  1.0000 0.0897029943
C   C15       1.0  0.80177  0.06462  0.92991  1.0000 0.0897029943
C   C16       1.0  0.93538  0.07009  0.19823  1.0000 0.0897029943
C   C17       1.0  0.07009  0.19823  0.93538  1.0000 0.0897029943
C   C18       1.0  0.19823  0.93538  0.07009  1.0000 0.0897029943
C   C19       1.0  0.10985  0.85255  0.64490  1.0000 -0.1705568923
C   C20       1.0  0.85255  0.64490  0.10985  1.0000 -0.1705568923
C   C21       1.0  0.64490  0.10985  0.85255  1.0000 -0.1705568923
C   C22       1.0  0.89015  0.14745  0.35510  1.0000 -0.1705568923
C   C23       1.0  0.14745  0.35510  0.89015  1.0000 -0.1705568923
C   C24       1.0  0.35510  0.89015  0.14745  1.0000 -0.1705568923
C   C25       1.0  0.20968  0.83020  0.68502  1.0000 -0.0399671278
C   C26       1.0  0.83020  0.68502  0.20968  1.0000 -0.0399671278
C   C27       1.0  0.68502  0.20968  0.83020  1.0000 -0.0399671278
C   C28       1.0  0.79032  0.16980  0.31498  1.0000 -0.0399671278
C   C29       1.0  0.16980  0.31498  0.79032  1.0000 -0.0399671278
C   C30       1.0  0.31498  0.79032  0.16980  1.0000 -0.0399671278
C   C31       1.0  0.38147  0.91331  0.85402  1.0000 0.1940325952
C   C32       1.0  0.91331  0.85402  0.38147  1.0000 0.1940325952
C   C33       1.0  0.85402  0.38147  0.91331  1.0000 0.1940325952
C   C34       1.0  0.61853  0.08669  0.14598  1.0000 0.1940325952
C   C35       1.0  0.08669  0.14598  0.61853  1.0000 0.1940325952
C   C36       1.0  0.14598  0.61853  0.08669  1.0000 0.1940325952
C   C37       1.0  0.41547  0.83754  0.80699  1.0000 -0.2512130582
C   C38       1.0  0.83754  0.80699  0.41547  1.0000 -0.2512130582
C   C39       1.0  0.80699  0.41547  0.83754  1.0000 -0.2512130582
C   C40       1.0  0.58453  0.16246  0.19301  1.0000 -0.2512130582
C   C41       1.0  0.16246  0.19301  0.58453  1.0000 -0.2512130582
C   C42       1.0  0.19301  0.58453  0.16246  1.0000 -0.2512130582
C   C43       1.0  0.51567  0.84163  0.87250  1.0000 -0.0683207282
C   C44       1.0  0.84163  0.87250  0.51567  1.0000 -0.0683207282
C   C45       1.0  0.87250  0.51567  0.84163  1.0000 -0.0683207282
C   C46       1.0  0.48433  0.15837  0.12750  1.0000 -0.0683207282
C   C47       1.0  0.15837  0.12750  0.48433  1.0000 -0.0683207282
C   C48       1.0  0.12750  0.48433  0.15837  1.0000 -0.0683207282
C   C49       1.0  0.44855  0.99846  0.96789  1.0000 -0.0200699468
C   C50       1.0  0.99846  0.96789  0.44855  1.0000 -0.0200699468
C   C51       1.0  0.96789  0.44855  0.99846  1.0000 -0.0200699468
C   C52       1.0  0.55145  0.00154  0.03211  1.0000 -0.0200699468
C   C53       1.0  0.00154  0.03211  0.55145  1.0000 -0.0200699468
C   C54       1.0  0.03211  0.55145  0.00154  1.0000 -0.0200699468
C   C55       1.0  0.41753  0.07919  0.01748  1.0000 -0.1843742051
C   C56       1.0  0.07919  0.01748  0.41753  1.0000 -0.1843742051
C   C57       1.0  0.01748  0.41753  0.07919  1.0000 -0.1843742051
C   C58       1.0  0.58247  0.92081  0.98252  1.0000 -0.1843742051
C   C59       1.0  0.92081  0.98252  0.58247  1.0000 -0.1843742051
C   C60       1.0  0.98252  0.58247  0.92081  1.0000 -0.1843742051
N   N1        1.0  0.00227  0.89590  0.84839  1.0000 -0.2747204496
N   N2        1.0  0.89590  0.84839  0.00227  1.0000 -0.2747204496
N   N3        1.0  0.84839  0.00227  0.89590  1.0000 -0.2747204496
N   N4        1.0  0.99773  0.10410  0.15161  1.0000 -0.2747204496
N   N5        1.0  0.10410  0.15161  0.99773  1.0000 -0.2747204496
N   N6        1.0  0.15161  0.99773  0.10410  1.0000 -0.2747204496
N   N7        1.0  0.04879  0.84317  0.71324  1.0000 0.0431858158
N   N8        1.0  0.84317  0.71324  0.04879  1.0000 0.0431858158
N   N9        1.0  0.71324  0.04879  0.84317  1.0000 0.0431858158
N   N10       1.0  0.95121  0.15683  0.28676  1.0000 0.0431858158
N   N11       1.0  0.15683  0.28676  0.95121  1.0000 0.0431858158
N   N12       1.0  0.28676  0.95121  0.15683  1.0000 0.0431858158
N   N13       1.0  0.38230  0.38230  0.38230  1.0000 0.6892088807
N   N14       1.0  0.61770  0.61770  0.61770  1.0000 0.6892088807
O   O1        1.0  0.28368  0.91555  0.79795  1.0000 -0.2007963502
O   O2        1.0  0.91555  0.79795  0.28368  1.0000 -0.2007963502
O   O3        1.0  0.79795  0.28368  0.91555  1.0000 -0.2007963502
O   O4        1.0  0.71632  0.08445  0.20205  1.0000 -0.2007963502
O   O5        1.0  0.08445  0.20205  0.71632  1.0000 -0.2007963502
O   O6        1.0  0.20205  0.71632  0.08445  1.0000 -0.2007963502
O   O7        1.0  0.35310  0.44340  0.34470  1.0000 -0.457425169
O   O8        1.0  0.44340  0.34470  0.35310  1.0000 -0.457425169
O   O9        1.0  0.34470  0.35310  0.44340  1.0000 -0.457425169
O   O10       1.0  0.64690  0.55660  0.65530  1.0000 -0.457425169
O   O11       1.0  0.55660  0.65530  0.64690  1.0000 -0.4549168193
O   O12       1.0  0.65530  0.64690  0.55660  1.0000 -0.4549168193
