# DDEC6 charges by PACMAN v1.1 (https://github.com/mtap-research/PACMAN-charge/)
data_2008[BiPr][sra]3[ION]1
_chemical_formula_sum              "Pr4 Bi4 H48 C40 N20 O80"
_cell_length_a       12.6831
_cell_length_b       8.2189
_cell_length_c       23.8463
_cell_angle_alpha    90
_cell_angle_beta     105.85
_cell_angle_gamma    90

_symmetry_space_group_name_H-M    "P 1"
_symmetry_Int_Tables_number       1

loop_
  _symmetry_equiv_pos_as_xyz
  'x, y, z'

loop_
  _atom_site_type_symbol
  _atom_site_label
  _atom_site_symmetry_multiplicity
  _atom_site_fract_x
  _atom_site_fract_y
  _atom_site_fract_z
  _atom_site_occupancy
  _atom_site_charge
Pr  Pr1       1.0  0.78873  0.00189  0.88481  1.0000 2.0428432309
Pr  Pr2       1.0  0.21127  0.50189  0.61519  1.0000 2.0428432309
Pr  Pr3       1.0  0.21127  0.99811  0.11519  1.0000 2.0428432309
Pr  Pr4       1.0  0.78873  0.49811  0.38481  1.0000 2.0428432309
Bi  Bi1       1.0  0.27238  0.82922  0.86846  1.0000 1.2012612903
Bi  Bi2       1.0  0.72762  0.32922  0.63154  1.0000 1.2012612903
Bi  Bi3       1.0  0.72762  0.17078  0.13154  1.0000 1.2012612903
Bi  Bi4       1.0  0.27238  0.67078  0.36846  1.0000 1.2012612903
H   H1        1.0  0.04630  0.84110  0.75780  1.0000 0.1606530151
H   H2        1.0  0.95370  0.34110  0.74220  1.0000 0.1606530151
H   H3        1.0  0.95370  0.15890  0.24220  1.0000 0.1606530151
H   H4        1.0  0.04630  0.65890  0.25780  1.0000 0.1606530151
H   H5        1.0  0.00830  0.02310  0.74750  1.0000 0.1606530151
H   H6        1.0  0.99170  0.52310  0.75250  1.0000 0.1606530151
H   H7        1.0  0.99170  0.97690  0.25250  1.0000 0.1606530151
H   H8        1.0  0.00830  0.47690  0.24750  1.0000 0.1606530151
H   H9        1.0  0.16350  0.24170  0.76540  1.0000 0.1418166542
H   H10       1.0  0.83650  0.74170  0.73460  1.0000 0.1418166542
H   H11       1.0  0.83650  0.75830  0.23460  1.0000 0.1418166542
H   H12       1.0  0.16350  0.25830  0.26540  1.0000 0.1418166542
H   H13       1.0  0.13020  0.20430  0.82280  1.0000 0.1149423504
H   H14       1.0  0.86980  0.70430  0.67720  1.0000 0.1149423504
H   H15       1.0  0.86980  0.79570  0.17720  1.0000 0.1149423504
H   H16       1.0  0.13020  0.29570  0.32280  1.0000 0.1149423504
H   H17       1.0  0.30010  0.33270  0.84690  1.0000 0.1326504433
H   H18       1.0  0.69990  0.83270  0.65310  1.0000 0.1326504433
H   H19       1.0  0.69990  0.66730  0.15310  1.0000 0.1326504433
H   H20       1.0  0.30010  0.16730  0.34690  1.0000 0.1326504433
H   H21       1.0  0.34740  0.19990  0.81320  1.0000 0.1187807852
H   H22       1.0  0.65260  0.69990  0.68680  1.0000 0.1187807852
H   H23       1.0  0.65260  0.80010  0.18680  1.0000 0.1187807852
H   H24       1.0  0.34740  0.30010  0.31320  1.0000 0.1187807852
H   H25       1.0  0.15210  0.00590  0.69810  1.0000 0.1606530151
H   H26       1.0  0.84790  0.50590  0.80190  1.0000 0.1606530151
H   H27       1.0  0.84790  0.99410  0.30190  1.0000 0.1606530151
H   H28       1.0  0.15210  0.49410  0.19810  1.0000 0.1606530151
H   H29       1.0  0.27440  0.03140  0.73410  1.0000 0.1606530151
H   H30       1.0  0.72560  0.53140  0.76590  1.0000 0.1606530151
H   H31       1.0  0.72560  0.96860  0.26590  1.0000 0.1606530151
H   H32       1.0  0.27440  0.46860  0.23410  1.0000 0.1606530151
H   H33       1.0  0.47920  0.22150  0.90910  1.0000 0.1606530151
H   H34       1.0  0.52080  0.72150  0.59090  1.0000 0.1606530151
H   H35       1.0  0.52080  0.77850  0.09090  1.0000 0.1606530151
H   H36       1.0  0.47920  0.27850  0.40910  1.0000 0.1606530151
H   H37       1.0  0.47260  0.07340  0.94950  1.0000 0.1606530151
H   H38       1.0  0.52740  0.57340  0.55050  1.0000 0.1606530151
H   H39       1.0  0.52740  0.92660  0.05050  1.0000 0.1606530151
H   H40       1.0  0.47260  0.42660  0.44950  1.0000 0.1606530151
H   H41       1.0  0.33350  0.26780  0.95770  1.0000 0.1606530151
H   H42       1.0  0.66650  0.76780  0.54230  1.0000 0.1606530151
H   H43       1.0  0.66650  0.73220  0.04230  1.0000 0.1606530151
H   H44       1.0  0.33350  0.23220  0.45770  1.0000 0.1606530151
H   H45       1.0  0.21430  0.22820  0.92010  1.0000 0.1518044257
H   H46       1.0  0.78570  0.72820  0.57990  1.0000 0.1518044257
H   H47       1.0  0.78570  0.77180  0.07990  1.0000 0.1518044257
H   H48       1.0  0.21430  0.27180  0.42010  1.0000 0.1518044257
C   C1        1.0  0.02290  0.94730  0.83050  1.0000 0.6123220259
C   C2        1.0  0.97710  0.44730  0.66950  1.0000 0.6123220259
C   C3        1.0  0.97710  0.05270  0.16950  1.0000 0.6123220259
C   C4        1.0  0.02290  0.55270  0.33050  1.0000 0.6123220259
C   C5        1.0  0.05550  0.94910  0.77490  1.0000 -0.3127997732
C   C6        1.0  0.94450  0.44910  0.72510  1.0000 -0.3127997732
C   C7        1.0  0.94450  0.05090  0.22510  1.0000 -0.3127997732
C   C8        1.0  0.05550  0.55090  0.27490  1.0000 -0.3127997732
C   C9        1.0  0.18180  0.17720  0.80080  1.0000 -0.1399310148
C   C10       1.0  0.81820  0.67720  0.69920  1.0000 -0.1399310148
C   C11       1.0  0.81820  0.82280  0.19920  1.0000 -0.1399310148
C   C12       1.0  0.18180  0.32280  0.30080  1.0000 -0.1399310148
C   C13       1.0  0.29670  0.21840  0.83650  1.0000 -0.1232139832
C   C14       1.0  0.70330  0.71840  0.66350  1.0000 -0.1232139832
C   C15       1.0  0.70330  0.78160  0.16350  1.0000 -0.1232139832
C   C16       1.0  0.29670  0.28160  0.33650  1.0000 -0.1232139832
C   C17       1.0  0.20840  0.96950  0.73210  1.0000 -0.2909437931
C   C18       1.0  0.79160  0.46950  0.76790  1.0000 -0.2909437931
C   C19       1.0  0.79160  0.03050  0.26790  1.0000 -0.2909437931
C   C20       1.0  0.20840  0.53050  0.23210  1.0000 -0.2909437931
C   C21       1.0  0.23060  0.79210  0.72570  1.0000 0.6414588773
C   C22       1.0  0.76940  0.29210  0.77430  1.0000 0.6414588773
C   C23       1.0  0.76940  0.20790  0.27430  1.0000 0.6414588773
C   C24       1.0  0.23060  0.70790  0.22570  1.0000 0.6414588773
C   C25       1.0  0.44980  0.11270  0.90970  1.0000 -0.2770773164
C   C26       1.0  0.55020  0.61270  0.59030  1.0000 -0.2770773164
C   C27       1.0  0.55020  0.88730  0.09030  1.0000 -0.2770773164
C   C28       1.0  0.44980  0.38730  0.40970  1.0000 -0.2770773164
C   C29       1.0  0.49700  0.00000  0.87060  1.0000 0.6414588773
C   C30       1.0  0.50300  0.50000  0.62940  1.0000 0.6414588773
C   C31       1.0  0.50300  0.00000  0.12940  1.0000 0.6414588773
C   C32       1.0  0.49700  0.50000  0.37060  1.0000 0.6414588773
C   C33       1.0  0.28620  0.18160  0.93730  1.0000 -0.2770773164
C   C34       1.0  0.71380  0.68160  0.56270  1.0000 -0.2770773164
C   C35       1.0  0.71380  0.81840  0.06270  1.0000 -0.2770773164
C   C36       1.0  0.28620  0.31840  0.43730  1.0000 -0.2770773164
C   C37       1.0  0.27620  0.05130  0.98130  1.0000 0.6414588773
C   C38       1.0  0.72380  0.55130  0.51870  1.0000 0.6414588773
C   C39       1.0  0.72380  0.94870  0.01870  1.0000 0.6414588773
C   C40       1.0  0.27620  0.44870  0.48130  1.0000 0.6414588773
N   N1        1.0  0.17190  0.00120  0.78540  1.0000 -0.0524460963
N   N2        1.0  0.82810  0.50120  0.71460  1.0000 -0.0524460963
N   N3        1.0  0.82810  0.99880  0.21460  1.0000 -0.0524460963
N   N4        1.0  0.17190  0.49880  0.28540  1.0000 -0.0524460963
N   N5        1.0  0.33040  0.11940  0.89020  1.0000 -0.0751059121
N   N6        1.0  0.66960  0.61940  0.60980  1.0000 -0.0744539118
N   N7        1.0  0.66960  0.88060  0.10980  1.0000 -0.0744539118
N   N8        1.0  0.33040  0.38060  0.39020  1.0000 -0.0744539118
N   N9        1.0  0.85530  0.66350  0.92230  1.0000 0.7007680023
N   N10       1.0  0.14470  0.16350  0.57770  1.0000 0.7007680023
N   N11       1.0  0.14470  0.33650  0.07770  1.0000 0.7007680023
N   N12       1.0  0.85530  0.83650  0.42230  1.0000 0.7007680023
N   N13       1.0  0.46830  0.90590  0.43430  1.0000 0.6871635997
N   N14       1.0  0.53170  0.40590  0.06570  1.0000 0.6871635997
N   N15       1.0  0.53170  0.09410  0.56570  1.0000 0.6871635997
N   N16       1.0  0.46830  0.59410  0.93430  1.0000 0.6871635997
N   N17       1.0  0.11160  0.96550  0.38580  1.0000 0.660207563
N   N18       1.0  0.88840  0.46550  0.11420  1.0000 0.660207563
N   N19       1.0  0.88840  0.03450  0.61420  1.0000 0.660207563
N   N20       1.0  0.11160  0.53450  0.88580  1.0000 0.660207563
O   O1        1.0  0.09930  0.93420  0.87890  1.0000 -0.510768748
O   O2        1.0  0.90070  0.43420  0.62110  1.0000 -0.510768748
O   O3        1.0  0.90070  0.06580  0.12110  1.0000 -0.510768748
O   O4        1.0  0.09930  0.56580  0.37890  1.0000 -0.510768748
O   O5        1.0  0.96430  0.14300  0.93690  1.0000 -0.0751059121
O   O6        1.0  0.03570  0.64300  0.56310  1.0000 -0.0744539118
O   O7        1.0  0.03570  0.85700  0.06310  1.0000 -0.0744539118
O   O8        1.0  0.96430  0.35700  0.43690  1.0000 -0.0744539118
O   O9        1.0  0.74760  0.25080  0.93900  1.0000 0.0521428836
O   O10       1.0  0.25240  0.75080  0.56100  1.0000 0.0521428836
O   O11       1.0  0.25240  0.74920  0.06100  1.0000 0.0521428836
O   O12       1.0  0.74760  0.24920  0.43900  1.0000 0.0521428836
O   O13       1.0  0.69930  0.91780  0.78050  1.0000 -0.2197819865
O   O14       1.0  0.30070  0.41780  0.71950  1.0000 -0.2197819865
O   O15       1.0  0.30070  0.08220  0.21950  1.0000 -0.2197819865
O   O16       1.0  0.69930  0.58220  0.28050  1.0000 -0.2197819865
O   O17       1.0  0.92490  0.95750  0.82780  1.0000 -0.5589198089
O   O18       1.0  0.07510  0.45750  0.67220  1.0000 -0.5589198089
O   O19       1.0  0.07510  0.04250  0.17220  1.0000 -0.5589198089
O   O20       1.0  0.92490  0.54250  0.32780  1.0000 -0.5589198089
O   O21       1.0  0.25650  0.70400  0.77040  1.0000 -0.4791845522
O   O22       1.0  0.74350  0.20400  0.72960  1.0000 -0.4791845522
O   O23       1.0  0.74350  0.29600  0.22960  1.0000 -0.4791845522
O   O24       1.0  0.25650  0.79600  0.27040  1.0000 -0.4791845522
O   O25       1.0  0.22610  0.74600  0.67510  1.0000 -0.5806647009
O   O26       1.0  0.77390  0.24600  0.82490  1.0000 -0.5806647009
O   O27       1.0  0.77390  0.25400  0.32490  1.0000 -0.5806647009
O   O28       1.0  0.22610  0.75400  0.17510  1.0000 -0.5806647009
O   O29       1.0  0.43080  0.90080  0.83970  1.0000 -0.4935494777
O   O30       1.0  0.56920  0.40080  0.66030  1.0000 -0.4935494777
O   O31       1.0  0.56920  0.09920  0.16030  1.0000 -0.4935494777
O   O32       1.0  0.43080  0.59920  0.33970  1.0000 -0.4935494777
O   O33       1.0  0.59320  0.01400  0.87080  1.0000 -0.5806647009
O   O34       1.0  0.40680  0.51400  0.62920  1.0000 -0.5806647009
O   O35       1.0  0.40680  0.98600  0.12920  1.0000 -0.5806647009
O   O36       1.0  0.59320  0.48600  0.37080  1.0000 -0.5806647009
O   O37       1.0  0.30460  0.90860  0.97250  1.0000 -0.4791845522
O   O38       1.0  0.69540  0.40860  0.52750  1.0000 -0.4791845522
O   O39       1.0  0.69540  0.09140  0.02750  1.0000 -0.4791845522
O   O40       1.0  0.30460  0.59140  0.47250  1.0000 -0.4791845522
O   O41       1.0  0.23830  0.09490  0.02150  1.0000 -0.6080021775
O   O42       1.0  0.76170  0.59490  0.47850  1.0000 -0.6080021775
O   O43       1.0  0.76170  0.90510  0.97850  1.0000 -0.6080021775
O   O44       1.0  0.23830  0.40510  0.52150  1.0000 -0.6080021775
O   O45       1.0  0.76090  0.69010  0.88400  1.0000 -0.5152741587
O   O46       1.0  0.23910  0.19010  0.61600  1.0000 -0.5152741587
O   O47       1.0  0.23910  0.30990  0.11600  1.0000 -0.5152741587
O   O48       1.0  0.76090  0.80990  0.38400  1.0000 -0.5152741587
O   O49       1.0  0.92730  0.78600  0.93720  1.0000 -0.4952899134
O   O50       1.0  0.07270  0.28600  0.56280  1.0000 -0.4935494777
O   O51       1.0  0.07270  0.21400  0.06280  1.0000 -0.4935494777
O   O52       1.0  0.92730  0.71400  0.43720  1.0000 -0.4952899134
O   O53       1.0  0.88130  0.53240  0.95050  1.0000 -0.2962857402
O   O54       1.0  0.11870  0.03240  0.54950  1.0000 -0.2962857402
O   O55       1.0  0.11870  0.46760  0.04950  1.0000 -0.2962857402
O   O56       1.0  0.88130  0.96760  0.45050  1.0000 -0.2962857402
O   O57       1.0  0.40300  0.94700  0.38900  1.0000 -0.3784715351
O   O58       1.0  0.54380  0.00200  0.45990  1.0000 -0.3784715351
O   O59       1.0  0.46750  0.76690  0.45350  1.0000 -0.3784715351
O   O60       1.0  0.59700  0.44700  0.11100  1.0000 -0.3784715351
O   O61       1.0  0.45620  0.50200  0.04010  1.0000 -0.3784715351
O   O62       1.0  0.53250  0.26690  0.04650  1.0000 -0.3784715351
O   O63       1.0  0.59700  0.05300  0.61100  1.0000 -0.3784715351
O   O64       1.0  0.45620  0.99800  0.54010  1.0000 -0.3784715351
O   O65       1.0  0.53250  0.23310  0.54650  1.0000 -0.3784715351
O   O66       1.0  0.40300  0.55300  0.88900  1.0000 -0.3784715351
O   O67       1.0  0.54380  0.49800  0.95990  1.0000 -0.3784715351
O   O68       1.0  0.46750  0.73310  0.95350  1.0000 -0.3784715351
O   O69       1.0  0.12680  0.91130  0.33970  1.0000 -0.4004104948
O   O70       1.0  0.04380  0.07270  0.38300  1.0000 -0.3397337636
O   O71       1.0  0.17060  0.90900  0.43160  1.0000 -0.3506687126
O   O72       1.0  0.87320  0.41130  0.16030  1.0000 -0.4004104948
O   O73       1.0  0.95620  0.57270  0.11700  1.0000 -0.3397337636
O   O74       1.0  0.82940  0.40900  0.06840  1.0000 -0.3506687126
O   O75       1.0  0.87320  0.08870  0.66030  1.0000 -0.4004104948
O   O76       1.0  0.95620  0.92730  0.61700  1.0000 -0.3397337636
O   O77       1.0  0.82940  0.09100  0.56840  1.0000 -0.3506687126
O   O78       1.0  0.12680  0.58870  0.83970  1.0000 -0.4004104948
O   O79       1.0  0.04380  0.42730  0.88300  1.0000 -0.3397337636
O   O80       1.0  0.17060  0.59100  0.93160  1.0000 -0.3506687126
