# DDEC6 charges by PACMAN v1.1 (https://github.com/mtap-research/PACMAN-charge/)
data_2009[Ag][nbo]3[ION]2
_chemical_formula_sum              "Ag18 H144 C234 N36 O54 F54"
_cell_length_a       34.091
_cell_length_b       34.091
_cell_length_c       8.5082
_cell_angle_alpha    90
_cell_angle_beta     90
_cell_angle_gamma    120

_symmetry_space_group_name_H-M    "P 1"
_symmetry_Int_Tables_number       1

loop_
  _symmetry_equiv_pos_as_xyz
  'x, y, z'

loop_
  _atom_site_type_symbol
  _atom_site_label
  _atom_site_symmetry_multiplicity
  _atom_site_fract_x
  _atom_site_fract_y
  _atom_site_fract_z
  _atom_site_occupancy
  _atom_site_charge
Ag  Ag1       1.0  0.85146  0.17100  0.49633  1.0000 0.3378475553
Ag  Ag2       1.0  0.51813  0.50433  0.82966  1.0000 0.3378475553
Ag  Ag3       1.0  0.18479  0.83767  0.16300  1.0000 0.3378475553
Ag  Ag4       1.0  0.82900  0.68046  0.49633  1.0000 0.3378475553
Ag  Ag5       1.0  0.49567  0.01379  0.82966  1.0000 0.3378475553
Ag  Ag6       1.0  0.16233  0.34713  0.16300  1.0000 0.3378475553
Ag  Ag7       1.0  0.31954  0.14854  0.49633  1.0000 0.3378475553
Ag  Ag8       1.0  0.98621  0.48187  0.82966  1.0000 0.3378475553
Ag  Ag9       1.0  0.65287  0.81521  0.16300  1.0000 0.3378475553
Ag  Ag10      1.0  0.14854  0.82900  0.50367  1.0000 0.3378475553
Ag  Ag11      1.0  0.81521  0.16233  0.83700  1.0000 0.3378475553
Ag  Ag12      1.0  0.48187  0.49567  0.17034  1.0000 0.3378475553
Ag  Ag13      1.0  0.17100  0.31954  0.50367  1.0000 0.3378475553
Ag  Ag14      1.0  0.83767  0.65287  0.83700  1.0000 0.3378475553
Ag  Ag15      1.0  0.50433  0.98621  0.17034  1.0000 0.3378475553
Ag  Ag16      1.0  0.68046  0.85146  0.50367  1.0000 0.3378475553
Ag  Ag17      1.0  0.34713  0.18479  0.83700  1.0000 0.3378475553
Ag  Ag18      1.0  0.01379  0.51813  0.17034  1.0000 0.3378475553
H   H1        1.0  0.79760  0.18550  0.24090  1.0000 0.1100984427
H   H2        1.0  0.06983  0.81547  0.73937  1.0000 0.1216838774
H   H3        1.0  0.35997  0.40293  0.41123  1.0000 0.1216838774
H   H4        1.0  0.77780  0.06960  0.40980  1.0000 0.1100984427
H   H5        1.0  0.45347  0.35833  0.49593  1.0000 0.1216838774
H   H6        1.0  0.81710  0.97750  0.20660  1.0000 0.1385728406
H   H7        1.0  0.77590  0.91160  0.34830  1.0000 0.1100984427
H   H8        1.0  0.67530  0.93560  0.40140  1.0000 0.1216838774
H   H9        1.0  0.46427  0.51883  0.57423  1.0000 0.1100984427
H   H10       1.0  0.73650  0.14880  0.07270  1.0000 0.1216838774
H   H11       1.0  0.02663  0.73627  0.74457  1.0000 0.1216838774
H   H12       1.0  0.44447  0.40293  0.74313  1.0000 0.1100984427
H   H13       1.0  0.12013  0.69167  0.82927  1.0000 0.1216838774
H   H14       1.0  0.48377  0.31083  0.53993  1.0000 0.1385728406
H   H15       1.0  0.44257  0.24493  0.68163  1.0000 0.1100984427
H   H16       1.0  0.34197  0.26893  0.73473  1.0000 0.1216838774
H   H17       1.0  0.13093  0.85217  0.90757  1.0000 0.1100984427
H   H18       1.0  0.40317  0.48213  0.40603  1.0000 0.1216838774
H   H19       1.0  0.69330  0.06960  0.07790  1.0000 0.1216838774
H   H20       1.0  0.11113  0.73627  0.07647  1.0000 0.1100984427
H   H21       1.0  0.78680  0.02500  0.16260  1.0000 0.1216838774
H   H22       1.0  0.15043  0.64417  0.87327  1.0000 0.1385728406
H   H23       1.0  0.10923  0.57827  0.01497  1.0000 0.1100984427
H   H24       1.0  0.00863  0.60227  0.06807  1.0000 0.1216838774
H   H25       1.0  0.81450  0.61210  0.24090  1.0000 0.1100984427
H   H26       1.0  0.18453  0.25437  0.73937  1.0000 0.1216838774
H   H27       1.0  0.59707  0.95703  0.41123  1.0000 0.1216838774
H   H28       1.0  0.93040  0.70820  0.40980  1.0000 0.1100984427
H   H29       1.0  0.64167  0.09513  0.49593  1.0000 0.1216838774
H   H30       1.0  0.02250  0.83960  0.20660  1.0000 0.1385728406
H   H31       1.0  0.08840  0.86430  0.34830  1.0000 0.1100984427
H   H32       1.0  0.06440  0.73970  0.40140  1.0000 0.1216838774
H   H33       1.0  0.48117  0.94543  0.57423  1.0000 0.1100984427
H   H34       1.0  0.85120  0.58770  0.07270  1.0000 0.1216838774
H   H35       1.0  0.26373  0.29037  0.74457  1.0000 0.1216838774
H   H36       1.0  0.59707  0.04153  0.74313  1.0000 0.1100984427
H   H37       1.0  0.30833  0.42847  0.82927  1.0000 0.1216838774
H   H38       1.0  0.68917  0.17293  0.53993  1.0000 0.1385728406
H   H39       1.0  0.75507  0.19763  0.68163  1.0000 0.1100984427
H   H40       1.0  0.73107  0.07303  0.73473  1.0000 0.1216838774
H   H41       1.0  0.14783  0.27877  0.90757  1.0000 0.1100984427
H   H42       1.0  0.51787  0.92103  0.40603  1.0000 0.1216838774
H   H43       1.0  0.93040  0.62370  0.07790  1.0000 0.1216838774
H   H44       1.0  0.26373  0.37487  0.07647  1.0000 0.1100984427
H   H45       1.0  0.97500  0.76180  0.16260  1.0000 0.1216838774
H   H46       1.0  0.35583  0.50627  0.87327  1.0000 0.1385728406
H   H47       1.0  0.42173  0.53097  0.01497  1.0000 0.1100984427
H   H48       1.0  0.39773  0.40637  0.06807  1.0000 0.1216838774
H   H49       1.0  0.38790  0.20240  0.24090  1.0000 0.1100984427
H   H50       1.0  0.74563  0.93017  0.73937  1.0000 0.1216838774
H   H51       1.0  0.04297  0.64003  0.41123  1.0000 0.1216838774
H   H52       1.0  0.29180  0.22220  0.40980  1.0000 0.1100984427
H   H53       1.0  0.90487  0.54653  0.49593  1.0000 0.1216838774
H   H54       1.0  0.16040  0.18290  0.20660  1.0000 0.1385728406
H   H55       1.0  0.13570  0.22410  0.34830  1.0000 0.1100984427
H   H56       1.0  0.26030  0.32470  0.40140  1.0000 0.1216838774
H   H57       1.0  0.05457  0.53573  0.57423  1.0000 0.1100984427
H   H58       1.0  0.41230  0.26350  0.07270  1.0000 0.1216838774
H   H59       1.0  0.70963  0.97337  0.74457  1.0000 0.1216838774
H   H60       1.0  0.95847  0.55553  0.74313  1.0000 0.1100984427
H   H61       1.0  0.57153  0.87987  0.82927  1.0000 0.1216838774
H   H62       1.0  0.82707  0.51623  0.53993  1.0000 0.1385728406
H   H63       1.0  0.80237  0.55743  0.68163  1.0000 0.1100984427
H   H64       1.0  0.92697  0.65803  0.73473  1.0000 0.1216838774
H   H65       1.0  0.72123  0.86907  0.90757  1.0000 0.1100984427
H   H66       1.0  0.07897  0.59683  0.40603  1.0000 0.1216838774
H   H67       1.0  0.37630  0.30670  0.07790  1.0000 0.1216838774
H   H68       1.0  0.62513  0.88887  0.07647  1.0000 0.1100984427
H   H69       1.0  0.23820  0.21320  0.16260  1.0000 0.1216838774
H   H70       1.0  0.49373  0.84957  0.87327  1.0000 0.1385728406
H   H71       1.0  0.46903  0.89077  0.01497  1.0000 0.1100984427
H   H72       1.0  0.59363  0.99137  0.06807  1.0000 0.1216838774
H   H73       1.0  0.20240  0.81450  0.75910  1.0000 0.1100984427
H   H74       1.0  0.93017  0.18453  0.26063  1.0000 0.1216838774
H   H75       1.0  0.64003  0.59707  0.58877  1.0000 0.1216838774
H   H76       1.0  0.22220  0.93040  0.59020  1.0000 0.1100984427
H   H77       1.0  0.54653  0.64167  0.50407  1.0000 0.1216838774
H   H78       1.0  0.18290  0.02250  0.79340  1.0000 0.1385728406
H   H79       1.0  0.22410  0.08840  0.65170  1.0000 0.1100984427
H   H80       1.0  0.32470  0.06440  0.59860  1.0000 0.1216838774
H   H81       1.0  0.86907  0.14783  0.09243  1.0000 0.1100984427
H   H82       1.0  0.59683  0.51787  0.59397  1.0000 0.1216838774
H   H83       1.0  0.30670  0.93040  0.92210  1.0000 0.1216838774
H   H84       1.0  0.88887  0.26373  0.92353  1.0000 0.1100984427
H   H85       1.0  0.21320  0.97500  0.83740  1.0000 0.1216838774
H   H86       1.0  0.84957  0.35583  0.12673  1.0000 0.1385728406
H   H87       1.0  0.89077  0.42173  0.98503  1.0000 0.1100984427
H   H88       1.0  0.99137  0.39773  0.93193  1.0000 0.1216838774
H   H89       1.0  0.53573  0.48117  0.42577  1.0000 0.1100984427
H   H90       1.0  0.26350  0.85120  0.92730  1.0000 0.1216838774
H   H91       1.0  0.97337  0.26373  0.25543  1.0000 0.1216838774
H   H92       1.0  0.55553  0.59707  0.25687  1.0000 0.1100984427
H   H93       1.0  0.87987  0.30833  0.17073  1.0000 0.1216838774
H   H94       1.0  0.51623  0.68917  0.46007  1.0000 0.1385728406
H   H95       1.0  0.55743  0.75507  0.31837  1.0000 0.1100984427
H   H96       1.0  0.65803  0.73107  0.26527  1.0000 0.1216838774
H   H97       1.0  0.18550  0.38790  0.75910  1.0000 0.1100984427
H   H98       1.0  0.81547  0.74563  0.26063  1.0000 0.1216838774
H   H99       1.0  0.40293  0.04297  0.58877  1.0000 0.1216838774
H   H100      1.0  0.06960  0.29180  0.59020  1.0000 0.1100984427
H   H101      1.0  0.35833  0.90487  0.50407  1.0000 0.1216838774
H   H102      1.0  0.97750  0.16040  0.79340  1.0000 0.1385728406
H   H103      1.0  0.91160  0.13570  0.65170  1.0000 0.1100984427
H   H104      1.0  0.93560  0.26030  0.59860  1.0000 0.1216838774
H   H105      1.0  0.85217  0.72123  0.09243  1.0000 0.1100984427
H   H106      1.0  0.48213  0.07897  0.59397  1.0000 0.1216838774
H   H107      1.0  0.06960  0.37630  0.92210  1.0000 0.1216838774
H   H108      1.0  0.73627  0.62513  0.92353  1.0000 0.1100984427
H   H109      1.0  0.02500  0.23820  0.83740  1.0000 0.1216838774
H   H110      1.0  0.64417  0.49373  0.12673  1.0000 0.1385728406
H   H111      1.0  0.57827  0.46903  0.98503  1.0000 0.1100984427
H   H112      1.0  0.60227  0.59363  0.93193  1.0000 0.1216838774
H   H113      1.0  0.51883  0.05457  0.42577  1.0000 0.1100984427
H   H114      1.0  0.14880  0.41230  0.92730  1.0000 0.1216838774
H   H115      1.0  0.73627  0.70963  0.25543  1.0000 0.1216838774
H   H116      1.0  0.40293  0.95847  0.25687  1.0000 0.1100984427
H   H117      1.0  0.69167  0.57153  0.17073  1.0000 0.1216838774
H   H118      1.0  0.31083  0.82707  0.46007  1.0000 0.1385728406
H   H119      1.0  0.24493  0.80237  0.31837  1.0000 0.1100984427
H   H120      1.0  0.26893  0.92697  0.26527  1.0000 0.1216838774
H   H121      1.0  0.61210  0.79760  0.75910  1.0000 0.1100984427
H   H122      1.0  0.25437  0.06983  0.26063  1.0000 0.1216838774
H   H123      1.0  0.95703  0.35997  0.58877  1.0000 0.1216838774
H   H124      1.0  0.70820  0.77780  0.59020  1.0000 0.1100984427
H   H125      1.0  0.09513  0.45347  0.50407  1.0000 0.1216838774
H   H126      1.0  0.83960  0.81710  0.79340  1.0000 0.1385728406
H   H127      1.0  0.86430  0.77590  0.65170  1.0000 0.1100984427
H   H128      1.0  0.73970  0.67530  0.59860  1.0000 0.1216838774
H   H129      1.0  0.27877  0.13093  0.09243  1.0000 0.1100984427
H   H130      1.0  0.92103  0.40317  0.59397  1.0000 0.1216838774
H   H131      1.0  0.62370  0.69330  0.92210  1.0000 0.1216838774
H   H132      1.0  0.37487  0.11113  0.92353  1.0000 0.1100984427
H   H133      1.0  0.76180  0.78680  0.83740  1.0000 0.1216838774
H   H134      1.0  0.50627  0.15043  0.12673  1.0000 0.1385728406
H   H135      1.0  0.53097  0.10923  0.98503  1.0000 0.1100984427
H   H136      1.0  0.40637  0.00863  0.93193  1.0000 0.1216838774
H   H137      1.0  0.94543  0.46427  0.42577  1.0000 0.1100984427
H   H138      1.0  0.58770  0.73650  0.92730  1.0000 0.1216838774
H   H139      1.0  0.29037  0.02663  0.25543  1.0000 0.1216838774
H   H140      1.0  0.04153  0.44447  0.25687  1.0000 0.1100984427
H   H141      1.0  0.42847  0.12013  0.17073  1.0000 0.1216838774
H   H142      1.0  0.17293  0.48377  0.46007  1.0000 0.1385728406
H   H143      1.0  0.19763  0.44257  0.31837  1.0000 0.1100984427
H   H144      1.0  0.07303  0.34197  0.26527  1.0000 0.1216838774
C   C1        1.0  0.78052  0.15334  0.24260  1.0000 0.0702549865
C   C2        1.0  0.41082  0.46520  0.47543  1.0000 -0.1487035284
C   C3        1.0  0.38567  0.41860  0.47723  1.0000 -0.0470965982
C   C4        1.0  0.39876  0.39511  0.57783  1.0000 -0.0337904197
C   C5        1.0  0.76904  0.08589  0.34120  1.0000 0.043069406
C   C6        1.0  0.37105  0.34446  0.58273  1.0000 0.36458579
C   C7        1.0  0.72779  0.98491  0.27910  1.0000 -0.0470965982
C   C8        1.0  0.43687  0.33092  0.55343  1.0000 -0.0711309872
C   C9        1.0  0.78805  0.96973  0.24620  1.0000 -0.1234950468
C   C10       1.0  0.76322  0.93046  0.33040  1.0000 0.0630631435
C   C11       1.0  0.70466  0.94441  0.36210  1.0000 0.0702549865
C   C12       1.0  0.84700  0.25731  0.53320  1.0000 0.3995944191
C   C13       1.0  0.17108  0.96321  0.22637  1.0000 0.5715315603
C   C14       1.0  0.44719  0.48667  0.57593  1.0000 0.0702549865
C   C15       1.0  0.07748  0.79854  0.80877  1.0000 -0.1487035284
C   C16       1.0  0.05233  0.75194  0.81057  1.0000 -0.0448832259
C   C17       1.0  0.06542  0.72845  0.91117  1.0000 -0.0337904197
C   C18       1.0  0.43571  0.41922  0.67453  1.0000 0.043069406
C   C19       1.0  0.03771  0.67780  0.91607  1.0000 0.36458579
C   C20       1.0  0.39446  0.31824  0.61243  1.0000 -0.0470965982
C   C21       1.0  0.10353  0.66426  0.88677  1.0000 -0.0711309872
C   C22       1.0  0.45472  0.30306  0.57953  1.0000 -0.1234950468
C   C23       1.0  0.42989  0.26379  0.66373  1.0000 0.0630631435
C   C24       1.0  0.37133  0.27774  0.69543  1.0000 0.0702549865
C   C25       1.0  0.51367  0.59064  0.86653  1.0000 0.3995944191
C   C26       1.0  0.83775  0.29654  0.55970  1.0000 0.5715315603
C   C27       1.0  0.11385  0.82001  0.90927  1.0000 0.0702549865
C   C28       1.0  0.74415  0.13187  0.14210  1.0000 -0.1487035284
C   C29       1.0  0.71900  0.08527  0.14390  1.0000 -0.0448832259
C   C30       1.0  0.73209  0.06178  0.24450  1.0000 -0.0337904197
C   C31       1.0  0.10237  0.75256  0.00787  1.0000 0.043069406
C   C32       1.0  0.70438  0.01113  0.24940  1.0000 0.365144822
C   C33       1.0  0.06112  0.65158  0.94577  1.0000 -0.0470965982
C   C34       1.0  0.77020  0.99759  0.22010  1.0000 -0.0711309872
C   C35       1.0  0.12138  0.63640  0.91287  1.0000 -0.1234950468
C   C36       1.0  0.09655  0.59713  0.99707  1.0000 0.0630631435
C   C37       1.0  0.03799  0.61108  0.02877  1.0000 0.0702549865
C   C38       1.0  0.18033  0.92398  0.19987  1.0000 0.3995944191
C   C39       1.0  0.50442  0.62987  0.89303  1.0000 0.5715315603
C   C40       1.0  0.84666  0.62718  0.24260  1.0000 0.0702549865
C   C41       1.0  0.53480  0.94561  0.47543  1.0000 -0.1487035284
C   C42       1.0  0.58140  0.96706  0.47723  1.0000 -0.0470965982
C   C43       1.0  0.60489  0.00364  0.57783  1.0000 -0.0337904197
C   C44       1.0  0.91411  0.68315  0.34120  1.0000 0.043069406
C   C45       1.0  0.65554  0.02658  0.58273  1.0000 0.365144822
C   C46       1.0  0.01509  0.74288  0.27910  1.0000 -0.0470965982
C   C47       1.0  0.66908  0.10594  0.55343  1.0000 -0.0711309872
C   C48       1.0  0.03027  0.81832  0.24620  1.0000 -0.1234950468
C   C49       1.0  0.06954  0.83276  0.33040  1.0000 0.0630631435
C   C50       1.0  0.05559  0.76025  0.36210  1.0000 0.0702549865
C   C51       1.0  0.74269  0.58969  0.53320  1.0000 0.3995944191
C   C52       1.0  0.03679  0.20788  0.22637  1.0000 0.5715315603
C   C53       1.0  0.51333  0.96051  0.57593  1.0000 0.0702549865
C   C54       1.0  0.20146  0.27895  0.80877  1.0000 -0.1487035284
C   C55       1.0  0.24806  0.30040  0.81057  1.0000 -0.0470965982
C   C56       1.0  0.27155  0.33698  0.91117  1.0000 -0.0337904197
C   C57       1.0  0.58078  0.01648  0.67453  1.0000 0.043069406
C   C58       1.0  0.32220  0.35992  0.91607  1.0000 0.36458579
C   C59       1.0  0.68176  0.07621  0.61243  1.0000 -0.0470965982
C   C60       1.0  0.33574  0.43928  0.88677  1.0000 -0.0711309872
C   C61       1.0  0.69694  0.15165  0.57953  1.0000 -0.1234950468
C   C62       1.0  0.73621  0.16609  0.66373  1.0000 0.0630631435
C   C63       1.0  0.72226  0.09358  0.69543  1.0000 0.0702549865
C   C64       1.0  0.40936  0.92302  0.86653  1.0000 0.3995944191
C   C65       1.0  0.70346  0.54121  0.55970  1.0000 0.5715315603
C   C66       1.0  0.17999  0.29385  0.90927  1.0000 0.0702549865
C   C67       1.0  0.86813  0.61228  0.14210  1.0000 -0.1487035284
C   C68       1.0  0.91473  0.63373  0.14390  1.0000 -0.0448832259
C   C69       1.0  0.93822  0.67031  0.24450  1.0000 -0.0337904197
C   C70       1.0  0.24744  0.34982  0.00787  1.0000 0.043069406
C   C71       1.0  0.98887  0.69325  0.24940  1.0000 0.36458579
C   C72       1.0  0.34842  0.40955  0.94577  1.0000 -0.0470965982
C   C73       1.0  0.00241  0.77261  0.22010  1.0000 -0.0711309872
C   C74       1.0  0.36360  0.48499  0.91287  1.0000 -0.1234950468
C   C75       1.0  0.40287  0.49943  0.99707  1.0000 0.0630631435
C   C76       1.0  0.38892  0.42692  0.02877  1.0000 0.0702549865
C   C77       1.0  0.07602  0.25636  0.19987  1.0000 0.3995944191
C   C78       1.0  0.37013  0.87454  0.89303  1.0000 0.5715315603
C   C79       1.0  0.37282  0.21948  0.24260  1.0000 0.0702549865
C   C80       1.0  0.05439  0.58918  0.47543  1.0000 -0.1487035284
C   C81       1.0  0.03294  0.61433  0.47723  1.0000 -0.0448832259
C   C82       1.0  0.99636  0.60124  0.57783  1.0000 -0.0337904197
C   C83       1.0  0.31685  0.23096  0.34120  1.0000 0.043069406
C   C84       1.0  0.97342  0.62895  0.58273  1.0000 0.36458579
C   C85       1.0  0.25712  0.27221  0.27910  1.0000 -0.0470965982
C   C86       1.0  0.89406  0.56313  0.55343  1.0000 -0.0711309872
C   C87       1.0  0.18168  0.21195  0.24620  1.0000 -0.1234950468
C   C88       1.0  0.16724  0.23678  0.33040  1.0000 0.0630631435
C   C89       1.0  0.23975  0.29534  0.36210  1.0000 0.0702549865
C   C90       1.0  0.41031  0.15300  0.53320  1.0000 0.3995944191
C   C91       1.0  0.79212  0.82892  0.22637  1.0000 0.5715315603
C   C92       1.0  0.03949  0.55281  0.57593  1.0000 0.0702549865
C   C93       1.0  0.72105  0.92252  0.80877  1.0000 -0.1487035284
C   C94       1.0  0.69960  0.94767  0.81057  1.0000 -0.0470965982
C   C95       1.0  0.66302  0.93458  0.91117  1.0000 -0.0337904197
C   C96       1.0  0.98352  0.56429  0.67453  1.0000 0.043069406
C   C97       1.0  0.64008  0.96229  0.91607  1.0000 0.36458579
C   C98       1.0  0.92379  0.60554  0.61243  1.0000 -0.0470965982
C   C99       1.0  0.56072  0.89647  0.88677  1.0000 -0.0711309872
C   C100      1.0  0.84835  0.54528  0.57953  1.0000 -0.1234950468
C   C101      1.0  0.83391  0.57011  0.66373  1.0000 0.0630631435
C   C102      1.0  0.90642  0.62867  0.69543  1.0000 0.0702549865
C   C103      1.0  0.07698  0.48633  0.86653  1.0000 0.3995944191
C   C104      1.0  0.45879  0.16225  0.55970  1.0000 0.5715315603
C   C105      1.0  0.70615  0.88615  0.90927  1.0000 0.0702549865
C   C106      1.0  0.38772  0.25585  0.14210  1.0000 -0.1487035284
C   C107      1.0  0.36627  0.28100  0.14390  1.0000 -0.0448832259
C   C108      1.0  0.32969  0.26791  0.24450  1.0000 -0.0337904197
C   C109      1.0  0.65018  0.89763  0.00787  1.0000 0.043069406
C   C110      1.0  0.30675  0.29562  0.24940  1.0000 0.36458579
C   C111      1.0  0.59045  0.93888  0.94577  1.0000 -0.0470965982
C   C112      1.0  0.22739  0.22980  0.22010  1.0000 -0.0711309872
C   C113      1.0  0.51501  0.87862  0.91287  1.0000 -0.1234950468
C   C114      1.0  0.50057  0.90345  0.99707  1.0000 0.0630631435
C   C115      1.0  0.57308  0.96201  0.02877  1.0000 0.0702549865
C   C116      1.0  0.74364  0.81967  0.19987  1.0000 0.3995944191
C   C117      1.0  0.12546  0.49558  0.89303  1.0000 0.5715315603
C   C118      1.0  0.21948  0.84666  0.75740  1.0000 0.0702549865
C   C119      1.0  0.58918  0.53480  0.52457  1.0000 -0.1487035284
C   C120      1.0  0.61433  0.58140  0.52277  1.0000 -0.0448832259
C   C121      1.0  0.60124  0.60489  0.42217  1.0000 -0.0337904197
C   C122      1.0  0.23096  0.91411  0.65880  1.0000 0.043069406
C   C123      1.0  0.62895  0.65554  0.41727  1.0000 0.36458579
C   C124      1.0  0.27221  0.01509  0.72090  1.0000 -0.0470965982
C   C125      1.0  0.56313  0.66908  0.44657  1.0000 -0.0711309872
C   C126      1.0  0.21195  0.03027  0.75380  1.0000 -0.1234950468
C   C127      1.0  0.23678  0.06954  0.66960  1.0000 0.0630631435
C   C128      1.0  0.29534  0.05559  0.63790  1.0000 0.0702549865
C   C129      1.0  0.15300  0.74269  0.46680  1.0000 0.3995944191
C   C130      1.0  0.82892  0.03679  0.77363  1.0000 0.5715315603
C   C131      1.0  0.88615  0.17999  0.09073  1.0000 0.0702549865
C   C132      1.0  0.25585  0.86813  0.85790  1.0000 -0.1487035284
C   C133      1.0  0.28100  0.91473  0.85610  1.0000 -0.0448832259
C   C134      1.0  0.26791  0.93822  0.75550  1.0000 -0.0337904197
C   C135      1.0  0.89763  0.24744  0.99213  1.0000 0.043069406
C   C136      1.0  0.29562  0.98887  0.75060  1.0000 0.36458579
C   C137      1.0  0.93888  0.34842  0.05423  1.0000 -0.0470965982
C   C138      1.0  0.22980  0.00241  0.77990  1.0000 -0.0711309872
C   C139      1.0  0.87862  0.36360  0.08713  1.0000 -0.1234950468
C   C140      1.0  0.90345  0.40287  0.00293  1.0000 0.0630631435
C   C141      1.0  0.96201  0.38892  0.97123  1.0000 0.0702549865
C   C142      1.0  0.81967  0.07602  0.80013  1.0000 0.3995944191
C   C143      1.0  0.49558  0.37013  0.10697  1.0000 0.5715315603
C   C144      1.0  0.55281  0.51333  0.42407  1.0000 0.0702549865
C   C145      1.0  0.92252  0.20146  0.19123  1.0000 -0.1487035284
C   C146      1.0  0.94767  0.24806  0.18943  1.0000 -0.0448832259
C   C147      1.0  0.93458  0.27155  0.08883  1.0000 -0.0337904197
C   C148      1.0  0.56429  0.58078  0.32547  1.0000 0.043069406
C   C149      1.0  0.96229  0.32220  0.08393  1.0000 0.36458579
C   C150      1.0  0.60554  0.68176  0.38757  1.0000 -0.0470965982
C   C151      1.0  0.89647  0.33574  0.11323  1.0000 -0.0711309872
C   C152      1.0  0.54528  0.69694  0.42047  1.0000 -0.1234950468
C   C153      1.0  0.57011  0.73621  0.33627  1.0000 0.0630631435
C   C154      1.0  0.62867  0.72226  0.30457  1.0000 0.0702549865
C   C155      1.0  0.48633  0.40936  0.13347  1.0000 0.3995944191
C   C156      1.0  0.16225  0.70346  0.44030  1.0000 0.5715315603
C   C157      1.0  0.15334  0.37282  0.75740  1.0000 0.0702549865
C   C158      1.0  0.46520  0.05439  0.52457  1.0000 -0.1487035284
C   C159      1.0  0.41860  0.03294  0.52277  1.0000 -0.0470965982
C   C160      1.0  0.39511  0.99636  0.42217  1.0000 -0.0337904197
C   C161      1.0  0.08589  0.31685  0.65880  1.0000 0.043069406
C   C162      1.0  0.34446  0.97342  0.41727  1.0000 0.36458579
C   C163      1.0  0.98491  0.25712  0.72090  1.0000 -0.0470965982
C   C164      1.0  0.33092  0.89406  0.44657  1.0000 -0.0711309872
C   C165      1.0  0.96973  0.18168  0.75380  1.0000 -0.1234950468
C   C166      1.0  0.93046  0.16724  0.66960  1.0000 0.0630631435
C   C167      1.0  0.94441  0.23975  0.63790  1.0000 0.0702549865
C   C168      1.0  0.25731  0.41031  0.46680  1.0000 0.3995944191
C   C169      1.0  0.96321  0.79212  0.77363  1.0000 0.5715315603
C   C170      1.0  0.82001  0.70615  0.09073  1.0000 0.0702549865
C   C171      1.0  0.13187  0.38772  0.85790  1.0000 -0.1487035284
C   C172      1.0  0.08527  0.36627  0.85610  1.0000 -0.0470965982
C   C173      1.0  0.06178  0.32969  0.75550  1.0000 -0.0337904197
C   C174      1.0  0.75256  0.65018  0.99213  1.0000 0.043069406
C   C175      1.0  0.01113  0.30675  0.75060  1.0000 0.36458579
C   C176      1.0  0.65158  0.59045  0.05423  1.0000 -0.0470965982
C   C177      1.0  0.99759  0.22739  0.77990  1.0000 -0.0711309872
C   C178      1.0  0.63640  0.51501  0.08713  1.0000 -0.1234950468
C   C179      1.0  0.59713  0.50057  0.00293  1.0000 0.0630631435
C   C180      1.0  0.61108  0.57308  0.97123  1.0000 0.0702549865
C   C181      1.0  0.92398  0.74364  0.80013  1.0000 0.3995944191
C   C182      1.0  0.62987  0.12546  0.10697  1.0000 0.5715315603
C   C183      1.0  0.48667  0.03949  0.42407  1.0000 0.0702549865
C   C184      1.0  0.79854  0.72105  0.19123  1.0000 -0.1487035284
C   C185      1.0  0.75194  0.69960  0.18943  1.0000 -0.0448832259
C   C186      1.0  0.72845  0.66302  0.08883  1.0000 -0.0337904197
C   C187      1.0  0.41922  0.98352  0.32547  1.0000 0.043069406
C   C188      1.0  0.67780  0.64008  0.08393  1.0000 0.36458579
C   C189      1.0  0.31824  0.92379  0.38757  1.0000 -0.0470965982
C   C190      1.0  0.66426  0.56072  0.11323  1.0000 -0.0711309872
C   C191      1.0  0.30306  0.84835  0.42047  1.0000 -0.1234950468
C   C192      1.0  0.26379  0.83391  0.33627  1.0000 0.0630631435
C   C193      1.0  0.27774  0.90642  0.30457  1.0000 0.0702549865
C   C194      1.0  0.59064  0.07698  0.13347  1.0000 0.3995944191
C   C195      1.0  0.29654  0.45879  0.44030  1.0000 0.5715315603
C   C196      1.0  0.62718  0.78052  0.75740  1.0000 0.0702549865
C   C197      1.0  0.94561  0.41082  0.52457  1.0000 -0.1487035284
C   C198      1.0  0.96706  0.38567  0.52277  1.0000 -0.0470965982
C   C199      1.0  0.00364  0.39876  0.42217  1.0000 -0.0337904197
C   C200      1.0  0.68315  0.76904  0.65880  1.0000 0.043069406
C   C201      1.0  0.02658  0.37105  0.41727  1.0000 0.36458579
C   C202      1.0  0.74288  0.72779  0.72090  1.0000 -0.0470965982
C   C203      1.0  0.10594  0.43687  0.44657  1.0000 -0.0711309872
C   C204      1.0  0.81832  0.78805  0.75380  1.0000 -0.1234950468
C   C205      1.0  0.83276  0.76322  0.66960  1.0000 0.0630631435
C   C206      1.0  0.76025  0.70466  0.63790  1.0000 0.0702549865
C   C207      1.0  0.58969  0.84700  0.46680  1.0000 0.3995944191
C   C208      1.0  0.20788  0.17108  0.77363  1.0000 0.5715315603
C   C209      1.0  0.29385  0.11385  0.09073  1.0000 0.0702549865
C   C210      1.0  0.61228  0.74415  0.85790  1.0000 -0.1487035284
C   C211      1.0  0.63373  0.71900  0.85610  1.0000 -0.0448832259
C   C212      1.0  0.67031  0.73209  0.75550  1.0000 -0.0337904197
C   C213      1.0  0.34982  0.10237  0.99213  1.0000 0.043069406
C   C214      1.0  0.69325  0.70438  0.75060  1.0000 0.36458579
C   C215      1.0  0.40955  0.06112  0.05423  1.0000 -0.0470965982
C   C216      1.0  0.77261  0.77020  0.77990  1.0000 -0.0711309872
C   C217      1.0  0.48499  0.12138  0.08713  1.0000 -0.1234950468
C   C218      1.0  0.49943  0.09655  0.00293  1.0000 0.0630631435
C   C219      1.0  0.42692  0.03799  0.97123  1.0000 0.0702549865
C   C220      1.0  0.25636  0.18033  0.80013  1.0000 0.3995944191
C   C221      1.0  0.87454  0.50442  0.10697  1.0000 0.5715315603
C   C222      1.0  0.96051  0.44719  0.42407  1.0000 0.0702549865
C   C223      1.0  0.27895  0.07748  0.19123  1.0000 -0.1487035284
C   C224      1.0  0.30040  0.05233  0.18943  1.0000 -0.0448832259
C   C225      1.0  0.33698  0.06542  0.08883  1.0000 -0.0337904197
C   C226      1.0  0.01648  0.43571  0.32547  1.0000 0.043069406
C   C227      1.0  0.35992  0.03771  0.08393  1.0000 0.36458579
C   C228      1.0  0.07621  0.39446  0.38757  1.0000 -0.0470965982
C   C229      1.0  0.43928  0.10353  0.11323  1.0000 -0.0711309872
C   C230      1.0  0.15165  0.45472  0.42047  1.0000 -0.1234950468
C   C231      1.0  0.16609  0.42989  0.33627  1.0000 0.0630631435
C   C232      1.0  0.09358  0.37133  0.30457  1.0000 0.0702549865
C   C233      1.0  0.92302  0.51367  0.13347  1.0000 0.3995944191
C   C234      1.0  0.54121  0.83775  0.44030  1.0000 0.5715315603
N   N1        1.0  0.79312  0.13135  0.34240  1.0000 -0.1734328986
N   N2        1.0  0.72173  0.91738  0.38880  1.0000 -0.1875242429
N   N3        1.0  0.45979  0.46468  0.67573  1.0000 -0.1734328986
N   N4        1.0  0.38840  0.25071  0.72213  1.0000 -0.1875242429
N   N5        1.0  0.12645  0.79802  0.00907  1.0000 -0.1734328986
N   N6        1.0  0.05506  0.58405  0.05547  1.0000 -0.1875242429
N   N7        1.0  0.86865  0.66177  0.34240  1.0000 -0.1734328986
N   N8        1.0  0.08262  0.80435  0.38880  1.0000 -0.1875242429
N   N9        1.0  0.53532  0.99510  0.67573  1.0000 -0.1734328986
N   N10       1.0  0.74929  0.13768  0.72213  1.0000 -0.1875242429
N   N11       1.0  0.20198  0.32844  0.00907  1.0000 -0.1734328986
N   N12       1.0  0.41595  0.47102  0.05547  1.0000 -0.1875242429
N   N13       1.0  0.33823  0.20688  0.34240  1.0000 -0.1734328986
N   N14       1.0  0.19565  0.27827  0.38880  1.0000 -0.1875242429
N   N15       1.0  0.00490  0.54021  0.67573  1.0000 -0.1734328986
N   N16       1.0  0.86232  0.61160  0.72213  1.0000 -0.1875242429
N   N17       1.0  0.67156  0.87355  0.00907  1.0000 -0.1734328986
N   N18       1.0  0.52898  0.94494  0.05547  1.0000 -0.1875242429
N   N19       1.0  0.20688  0.86865  0.65760  1.0000 -0.1734328986
N   N20       1.0  0.27827  0.08262  0.61120  1.0000 -0.1875242429
N   N21       1.0  0.87355  0.20198  0.99093  1.0000 -0.1734328986
N   N22       1.0  0.94494  0.41595  0.94453  1.0000 -0.1875242429
N   N23       1.0  0.54021  0.53532  0.32427  1.0000 -0.1734328986
N   N24       1.0  0.61160  0.74929  0.27787  1.0000 -0.1875242429
N   N25       1.0  0.13135  0.33823  0.65760  1.0000 -0.1734328986
N   N26       1.0  0.91738  0.19565  0.61120  1.0000 -0.1875242429
N   N27       1.0  0.79802  0.67156  0.99093  1.0000 -0.1734328986
N   N28       1.0  0.58405  0.52898  0.94453  1.0000 -0.1875242429
N   N29       1.0  0.46468  0.00490  0.32427  1.0000 -0.1734328986
N   N30       1.0  0.25071  0.86232  0.27787  1.0000 -0.1875242429
N   N31       1.0  0.66177  0.79312  0.65760  1.0000 -0.1734328986
N   N32       1.0  0.80435  0.72173  0.61120  1.0000 -0.1875242429
N   N33       1.0  0.32844  0.12645  0.99093  1.0000 -0.1734328986
N   N34       1.0  0.47102  0.05506  0.94453  1.0000 -0.1875242429
N   N35       1.0  0.99510  0.45979  0.32427  1.0000 -0.1734328986
N   N36       1.0  0.13768  0.38840  0.27787  1.0000 -0.1875242429
O   O1        1.0  0.33046  0.32525  0.56093  1.0000 -0.3864653644
O   O2        1.0  0.18071  0.90447  0.32077  1.0000 -0.5136276818
O   O3        1.0  0.85192  0.24936  0.39610  1.0000 -0.5004614049
O   O4        1.0  0.99712  0.65859  0.89427  1.0000 -0.3864653644
O   O5        1.0  0.84738  0.23780  0.65410  1.0000 -0.5136276818
O   O6        1.0  0.51859  0.58269  0.72943  1.0000 -0.5004614049
O   O7        1.0  0.66379  0.99192  0.22760  1.0000 -0.3864653644
O   O8        1.0  0.51405  0.57113  0.98743  1.0000 -0.5136276818
O   O9        1.0  0.18525  0.91603  0.06277  1.0000 -0.5004614049
O   O10       1.0  0.67475  0.00520  0.56093  1.0000 -0.3864653644
O   O11       1.0  0.09553  0.27625  0.32077  1.0000 -0.5136276818
O   O12       1.0  0.75064  0.60256  0.39610  1.0000 -0.5004614049
O   O13       1.0  0.34141  0.33854  0.89427  1.0000 -0.3864653644
O   O14       1.0  0.76220  0.60958  0.65410  1.0000 -0.5136276818
O   O15       1.0  0.41731  0.93589  0.72943  1.0000 -0.5004614049
O   O16       1.0  0.00808  0.67187  0.22760  1.0000 -0.3864653644
O   O17       1.0  0.42887  0.94291  0.98743  1.0000 -0.5136276818
O   O18       1.0  0.08397  0.26923  0.06277  1.0000 -0.5004614049
O   O19       1.0  0.99480  0.66954  0.56093  1.0000 -0.3864653644
O   O20       1.0  0.72375  0.81929  0.32077  1.0000 -0.5136276818
O   O21       1.0  0.39744  0.14808  0.39610  1.0000 -0.5004614049
O   O22       1.0  0.66146  0.00288  0.89427  1.0000 -0.3864653644
O   O23       1.0  0.39042  0.15262  0.65410  1.0000 -0.5136276818
O   O24       1.0  0.06411  0.48141  0.72943  1.0000 -0.5004614049
O   O25       1.0  0.32813  0.33621  0.22760  1.0000 -0.3864653644
O   O26       1.0  0.05709  0.48595  0.98743  1.0000 -0.5136276818
O   O27       1.0  0.73077  0.81475  0.06277  1.0000 -0.5004614049
O   O28       1.0  0.66954  0.67475  0.43907  1.0000 -0.3864653644
O   O29       1.0  0.81929  0.09553  0.67923  1.0000 -0.5136276818
O   O30       1.0  0.14808  0.75064  0.60390  1.0000 -0.5004614049
O   O31       1.0  0.33621  0.00808  0.77240  1.0000 -0.3864653644
O   O32       1.0  0.48595  0.42887  0.01257  1.0000 -0.5136276818
O   O33       1.0  0.81475  0.08397  0.93723  1.0000 -0.5004614049
O   O34       1.0  0.00288  0.34141  0.10573  1.0000 -0.3864653644
O   O35       1.0  0.15262  0.76220  0.34590  1.0000 -0.5136276818
O   O36       1.0  0.48141  0.41731  0.27057  1.0000 -0.5004614049
O   O37       1.0  0.32525  0.99480  0.43907  1.0000 -0.3864653644
O   O38       1.0  0.90447  0.72375  0.67923  1.0000 -0.5136276818
O   O39       1.0  0.24936  0.39744  0.60390  1.0000 -0.5004614049
O   O40       1.0  0.99192  0.32813  0.77240  1.0000 -0.3864653644
O   O41       1.0  0.57113  0.05709  0.01257  1.0000 -0.5136276818
O   O42       1.0  0.91603  0.73077  0.93723  1.0000 -0.5004614049
O   O43       1.0  0.65859  0.66146  0.10573  1.0000 -0.3864653644
O   O44       1.0  0.23780  0.39042  0.34590  1.0000 -0.5136276818
O   O45       1.0  0.58269  0.06411  0.27057  1.0000 -0.5004614049
O   O46       1.0  0.00520  0.33046  0.43907  1.0000 -0.3864653644
O   O47       1.0  0.27625  0.18071  0.67923  1.0000 -0.5136276818
O   O48       1.0  0.60256  0.85192  0.60390  1.0000 -0.5004614049
O   O49       1.0  0.67187  0.66379  0.77240  1.0000 -0.3864653644
O   O50       1.0  0.94291  0.51405  0.01257  1.0000 -0.5136276818
O   O51       1.0  0.26923  0.18525  0.93723  1.0000 -0.5004614049
O   O52       1.0  0.33854  0.99712  0.10573  1.0000 -0.3864653644
O   O53       1.0  0.60958  0.84738  0.34590  1.0000 -0.5136276818
O   O54       1.0  0.93589  0.51859  0.27057  1.0000 -0.5004614049
F   F1        1.0  0.84843  0.32424  0.43700  1.0000 -0.2109610653
F   F2        1.0  0.12683  0.94701  0.25497  1.0000 -0.2224733552
F   F3        1.0  0.19376  0.98889  0.34957  1.0000 -0.2109610653
F   F4        1.0  0.51510  0.65757  0.77033  1.0000 -0.2109610653
F   F5        1.0  0.79350  0.28034  0.58830  1.0000 -0.2224733552
F   F6        1.0  0.86043  0.32222  0.68290  1.0000 -0.2109610653
F   F7        1.0  0.18176  0.99091  0.10367  1.0000 -0.2109610653
F   F8        1.0  0.46017  0.61367  0.92163  1.0000 -0.2224733552
F   F9        1.0  0.52710  0.65555  0.01623  1.0000 -0.2109610653
F   F10       1.0  0.67576  0.52419  0.43700  1.0000 -0.2109610653
F   F11       1.0  0.05299  0.17983  0.25497  1.0000 -0.2224733552
F   F12       1.0  0.01111  0.20488  0.34957  1.0000 -0.2109610653
F   F13       1.0  0.34243  0.85752  0.77033  1.0000 -0.2109610653
F   F14       1.0  0.71966  0.51316  0.58830  1.0000 -0.2224733552
F   F15       1.0  0.67778  0.53821  0.68290  1.0000 -0.2109610653
F   F16       1.0  0.00909  0.19086  0.10367  1.0000 -0.2109610653
F   F17       1.0  0.38633  0.84649  0.92163  1.0000 -0.2224733552
F   F18       1.0  0.34445  0.87154  0.01623  1.0000 -0.2109610653
F   F19       1.0  0.47581  0.15157  0.43700  1.0000 -0.2109610653
F   F20       1.0  0.82017  0.87317  0.25497  1.0000 -0.2224733552
F   F21       1.0  0.79512  0.80624  0.34957  1.0000 -0.2109610653
F   F22       1.0  0.14248  0.48490  0.77033  1.0000 -0.2109610653
F   F23       1.0  0.48684  0.20650  0.58830  1.0000 -0.2224733552
F   F24       1.0  0.46179  0.13957  0.68290  1.0000 -0.2109610653
F   F25       1.0  0.80914  0.81824  0.10367  1.0000 -0.2109610653
F   F26       1.0  0.15351  0.53983  0.92163  1.0000 -0.2224733552
F   F27       1.0  0.12846  0.47290  0.01623  1.0000 -0.2109610653
F   F28       1.0  0.15157  0.67576  0.56300  1.0000 -0.2109610653
F   F29       1.0  0.87317  0.05299  0.74503  1.0000 -0.2224733552
F   F30       1.0  0.80624  0.01111  0.65043  1.0000 -0.2109610653
F   F31       1.0  0.81824  0.00909  0.89633  1.0000 -0.2109610653
F   F32       1.0  0.53983  0.38633  0.07837  1.0000 -0.2224733552
F   F33       1.0  0.47290  0.34445  0.98377  1.0000 -0.2109610653
F   F34       1.0  0.48490  0.34243  0.22967  1.0000 -0.2109610653
F   F35       1.0  0.20650  0.71966  0.41170  1.0000 -0.2224733552
F   F36       1.0  0.13957  0.67778  0.31710  1.0000 -0.2109610653
F   F37       1.0  0.32424  0.47581  0.56300  1.0000 -0.2109610653
F   F38       1.0  0.94701  0.82017  0.74503  1.0000 -0.2224733552
F   F39       1.0  0.98889  0.79512  0.65043  1.0000 -0.2109610653
F   F40       1.0  0.99091  0.80914  0.89633  1.0000 -0.2109610653
F   F41       1.0  0.61367  0.15351  0.07837  1.0000 -0.2224733552
F   F42       1.0  0.65555  0.12846  0.98377  1.0000 -0.2109610653
F   F43       1.0  0.65757  0.14248  0.22967  1.0000 -0.2109610653
F   F44       1.0  0.28034  0.48684  0.41170  1.0000 -0.2224733552
F   F45       1.0  0.32222  0.46179  0.31710  1.0000 -0.2109610653
F   F46       1.0  0.52419  0.84843  0.56300  1.0000 -0.2109610653
F   F47       1.0  0.17983  0.12683  0.74503  1.0000 -0.2224733552
F   F48       1.0  0.20488  0.19376  0.65043  1.0000 -0.2109610653
F   F49       1.0  0.19086  0.18176  0.89633  1.0000 -0.2109610653
F   F50       1.0  0.84649  0.46017  0.07837  1.0000 -0.2224733552
F   F51       1.0  0.87154  0.52710  0.98377  1.0000 -0.2109610653
F   F52       1.0  0.85752  0.51510  0.22967  1.0000 -0.2109610653
F   F53       1.0  0.51316  0.79350  0.41170  1.0000 -0.2224733552
F   F54       1.0  0.53821  0.86043  0.31710  1.0000 -0.2109610653
