# DDEC6 charges by PACMAN v1.1 (https://github.com/mtap-research/PACMAN-charge/)
data_2009[Cd][nuc]3[ION]1
_chemical_formula_sum              "Cd4 H144 C192 N48 Cl4 O16"
_cell_length_a       15.8506
_cell_length_b       15.8506
_cell_length_c       21.576
_cell_angle_alpha    90
_cell_angle_beta     90
_cell_angle_gamma    90

_symmetry_space_group_name_H-M    "P 1"
_symmetry_Int_Tables_number       1

loop_
  _symmetry_equiv_pos_as_xyz
  'x, y, z'

loop_
  _atom_site_type_symbol
  _atom_site_label
  _atom_site_symmetry_multiplicity
  _atom_site_fract_x
  _atom_site_fract_y
  _atom_site_fract_z
  _atom_site_occupancy
  _atom_site_charge
Cd  Cd1       1.0  0.55999  0.55999  0.50000  1.0000 0.6477762492
Cd  Cd2       1.0  0.44001  0.44001  0.00000  1.0000 0.6477762492
Cd  Cd3       1.0  0.94001  0.05999  0.25000  1.0000 0.6477762492
Cd  Cd4       1.0  0.05999  0.94001  0.75000  1.0000 0.6477762492
H   H1        1.0  0.44090  0.65750  0.40720  1.0000 0.0984930915
H   H2        1.0  0.55910  0.34250  0.90720  1.0000 0.0984930915
H   H3        1.0  0.84250  0.94090  0.15720  1.0000 0.0984930915
H   H4        1.0  0.15750  0.05910  0.65720  1.0000 0.0984930915
H   H5        1.0  0.05910  0.15750  0.34280  1.0000 0.0984930915
H   H6        1.0  0.94090  0.84250  0.84280  1.0000 0.0984930915
H   H7        1.0  0.65750  0.44090  0.59280  1.0000 0.0984930915
H   H8        1.0  0.34250  0.55910  0.09280  1.0000 0.0984930915
H   H9        1.0  0.34700  0.76740  0.39070  1.0000 0.1278594876
H   H10       1.0  0.65300  0.23260  0.89070  1.0000 0.1278594876
H   H11       1.0  0.73260  0.84700  0.14070  1.0000 0.1278594876
H   H12       1.0  0.26740  0.15300  0.64070  1.0000 0.1278594876
H   H13       1.0  0.15300  0.26740  0.35930  1.0000 0.1278594876
H   H14       1.0  0.84700  0.73260  0.85930  1.0000 0.1278594876
H   H15       1.0  0.76740  0.34700  0.60930  1.0000 0.1278594876
H   H16       1.0  0.23260  0.65300  0.10930  1.0000 0.1278594876
H   H17       1.0  0.40230  0.85300  0.56180  1.0000 0.1278594876
H   H18       1.0  0.59770  0.14700  0.06180  1.0000 0.1278594876
H   H19       1.0  0.64700  0.90230  0.31180  1.0000 0.1278594876
H   H20       1.0  0.35300  0.09770  0.81180  1.0000 0.1278594876
H   H21       1.0  0.09770  0.35300  0.18820  1.0000 0.1278594876
H   H22       1.0  0.90230  0.64700  0.68820  1.0000 0.1278594876
H   H23       1.0  0.85300  0.40230  0.43820  1.0000 0.1278594876
H   H24       1.0  0.14700  0.59770  0.93820  1.0000 0.1278594876
H   H25       1.0  0.49520  0.74140  0.57290  1.0000 0.0938697265
H   H26       1.0  0.50480  0.25860  0.07290  1.0000 0.0938697265
H   H27       1.0  0.75860  0.99520  0.32290  1.0000 0.0938697265
H   H28       1.0  0.24140  0.00480  0.82290  1.0000 0.0938697265
H   H29       1.0  0.00480  0.24140  0.17710  1.0000 0.0938697265
H   H30       1.0  0.99520  0.75860  0.67710  1.0000 0.0938697265
H   H31       1.0  0.74140  0.49520  0.42710  1.0000 0.0938697265
H   H32       1.0  0.25860  0.50480  0.92710  1.0000 0.0938697265
H   H33       1.0  0.33780  0.96730  0.53570  1.0000 0.1089097934
H   H34       1.0  0.66220  0.03270  0.03570  1.0000 0.1089097934
H   H35       1.0  0.53270  0.83780  0.28570  1.0000 0.1089097934
H   H36       1.0  0.46730  0.16220  0.78570  1.0000 0.1089097934
H   H37       1.0  0.16220  0.46730  0.21430  1.0000 0.1089097934
H   H38       1.0  0.83780  0.53270  0.71430  1.0000 0.1089097934
H   H39       1.0  0.96730  0.33780  0.46430  1.0000 0.1089097934
H   H40       1.0  0.03270  0.66220  0.96430  1.0000 0.1089097934
H   H41       1.0  0.23280  0.06900  0.52530  1.0000 0.1089097934
H   H42       1.0  0.76720  0.93100  0.02530  1.0000 0.1089097934
H   H43       1.0  0.43100  0.73280  0.27530  1.0000 0.1089097934
H   H44       1.0  0.56900  0.26720  0.77530  1.0000 0.1089097934
H   H45       1.0  0.26720  0.56900  0.22470  1.0000 0.1089097934
H   H46       1.0  0.73280  0.43100  0.72470  1.0000 0.1089097934
H   H47       1.0  0.06900  0.23280  0.47470  1.0000 0.1089097934
H   H48       1.0  0.93100  0.76720  0.97470  1.0000 0.1089097934
H   H49       1.0  0.12050  0.04660  0.45750  1.0000 0.1089097934
H   H50       1.0  0.87950  0.95340  0.95750  1.0000 0.1089097934
H   H51       1.0  0.45340  0.62050  0.20750  1.0000 0.1089097934
H   H52       1.0  0.54660  0.37950  0.70750  1.0000 0.1089097934
H   H53       1.0  0.37950  0.54660  0.29250  1.0000 0.1089097934
H   H54       1.0  0.62050  0.45340  0.79250  1.0000 0.1089097934
H   H55       1.0  0.04660  0.12050  0.54250  1.0000 0.1089097934
H   H56       1.0  0.95340  0.87950  0.04250  1.0000 0.1089097934
H   H57       1.0  0.22370  0.82580  0.40400  1.0000 0.0984930915
H   H58       1.0  0.77630  0.17420  0.90400  1.0000 0.0984930915
H   H59       1.0  0.67420  0.72370  0.15400  1.0000 0.0984930915
H   H60       1.0  0.32580  0.27630  0.65400  1.0000 0.0984930915
H   H61       1.0  0.27630  0.32580  0.34600  1.0000 0.0984930915
H   H62       1.0  0.72370  0.67420  0.84600  1.0000 0.0984930915
H   H63       1.0  0.82580  0.22370  0.59600  1.0000 0.0984930915
H   H64       1.0  0.17420  0.77630  0.09600  1.0000 0.0984930915
H   H65       1.0  0.00580  0.79980  0.20800  1.0000 0.1089097934
H   H66       1.0  0.99420  0.20020  0.70800  1.0000 0.1089097934
H   H67       1.0  0.70020  0.50580  0.95800  1.0000 0.1089097934
H   H68       1.0  0.29980  0.49420  0.45800  1.0000 0.1089097934
H   H69       1.0  0.49420  0.29980  0.54200  1.0000 0.1089097934
H   H70       1.0  0.50580  0.70020  0.04200  1.0000 0.1089097934
H   H71       1.0  0.79980  0.00580  0.79200  1.0000 0.1089097934
H   H72       1.0  0.20020  0.99420  0.29200  1.0000 0.1089097934
H   H73       1.0  0.91120  0.70500  0.16260  1.0000 0.1089097934
H   H74       1.0  0.08880  0.29500  0.66260  1.0000 0.1089097934
H   H75       1.0  0.79500  0.41120  0.91260  1.0000 0.1089097934
H   H76       1.0  0.20500  0.58880  0.41260  1.0000 0.1089097934
H   H77       1.0  0.58880  0.20500  0.58740  1.0000 0.1089097934
H   H78       1.0  0.41120  0.79500  0.08740  1.0000 0.1089097934
H   H79       1.0  0.70500  0.91120  0.83740  1.0000 0.1089097934
H   H80       1.0  0.29500  0.08880  0.33740  1.0000 0.1089097934
H   H81       1.0  0.79570  0.65430  0.21660  1.0000 0.0984930915
H   H82       1.0  0.20430  0.34570  0.71660  1.0000 0.0984930915
H   H83       1.0  0.84570  0.29570  0.96660  1.0000 0.0984930915
H   H84       1.0  0.15430  0.70430  0.46660  1.0000 0.0984930915
H   H85       1.0  0.70430  0.15430  0.53340  1.0000 0.0984930915
H   H86       1.0  0.29570  0.84570  0.03340  1.0000 0.0984930915
H   H87       1.0  0.65430  0.79570  0.78340  1.0000 0.0984930915
H   H88       1.0  0.34570  0.20430  0.28340  1.0000 0.0984930915
H   H89       1.0  0.86000  0.80560  0.36080  1.0000 0.1089097934
H   H90       1.0  0.14000  0.19440  0.86080  1.0000 0.1089097934
H   H91       1.0  0.69440  0.36000  0.11080  1.0000 0.1089097934
H   H92       1.0  0.30560  0.64000  0.61080  1.0000 0.1089097934
H   H93       1.0  0.64000  0.30560  0.38920  1.0000 0.1089097934
H   H94       1.0  0.36000  0.69440  0.88920  1.0000 0.1089097934
H   H95       1.0  0.80560  0.86000  0.63920  1.0000 0.1089097934
H   H96       1.0  0.19440  0.14000  0.13920  1.0000 0.1089097934
H   H97       1.0  0.73640  0.79100  0.39330  1.0000 0.1278594876
H   H98       1.0  0.26360  0.20900  0.89330  1.0000 0.1278594876
H   H99       1.0  0.70900  0.23640  0.14330  1.0000 0.1278594876
H   H100      1.0  0.29100  0.76360  0.64330  1.0000 0.1278594876
H   H101      1.0  0.76360  0.29100  0.35670  1.0000 0.1278594876
H   H102      1.0  0.23640  0.70900  0.85670  1.0000 0.1278594876
H   H103      1.0  0.79100  0.73640  0.60670  1.0000 0.1278594876
H   H104      1.0  0.20900  0.26360  0.10670  1.0000 0.1278594876
H   H105      1.0  0.63820  0.73230  0.45830  1.0000 0.0984930915
H   H106      1.0  0.36180  0.26770  0.95830  1.0000 0.0984930915
H   H107      1.0  0.76770  0.13820  0.20830  1.0000 0.0984930915
H   H108      1.0  0.23230  0.86180  0.70830  1.0000 0.0984930915
H   H109      1.0  0.86180  0.23230  0.29170  1.0000 0.0984930915
H   H110      1.0  0.13820  0.76770  0.79170  1.0000 0.0984930915
H   H111      1.0  0.73230  0.63820  0.54170  1.0000 0.0984930915
H   H112      1.0  0.26770  0.36180  0.04170  1.0000 0.0984930915
H   H113      1.0  0.61400  0.53530  0.35020  1.0000 0.0984930915
H   H114      1.0  0.38600  0.46470  0.85020  1.0000 0.0984930915
H   H115      1.0  0.96470  0.11400  0.10020  1.0000 0.0984930915
H   H116      1.0  0.03530  0.88600  0.60020  1.0000 0.0984930915
H   H117      1.0  0.88600  0.03530  0.39980  1.0000 0.0984930915
H   H118      1.0  0.11400  0.96470  0.89980  1.0000 0.0984930915
H   H119      1.0  0.53530  0.61400  0.64980  1.0000 0.0984930915
H   H120      1.0  0.46470  0.38600  0.14980  1.0000 0.0984930915
H   H121      1.0  0.71390  0.58630  0.28290  1.0000 0.1278594876
H   H122      1.0  0.28610  0.41370  0.78290  1.0000 0.1278594876
H   H123      1.0  0.91370  0.21390  0.03290  1.0000 0.1278594876
H   H124      1.0  0.08630  0.78610  0.53290  1.0000 0.1278594876
H   H125      1.0  0.78610  0.08630  0.46710  1.0000 0.1278594876
H   H126      1.0  0.21390  0.91370  0.96710  1.0000 0.1278594876
H   H127      1.0  0.58630  0.71390  0.71710  1.0000 0.1278594876
H   H128      1.0  0.41370  0.28610  0.21710  1.0000 0.1278594876
H   H129      1.0  0.02720  0.74350  0.39230  1.0000 0.2624218234
H   H130      1.0  0.97280  0.25650  0.89230  1.0000 0.2624218234
H   H131      1.0  0.75650  0.52720  0.14230  1.0000 0.2624218234
H   H132      1.0  0.24350  0.47280  0.64230  1.0000 0.2624218234
H   H133      1.0  0.47280  0.24350  0.35770  1.0000 0.2624218234
H   H134      1.0  0.52720  0.75650  0.85770  1.0000 0.2624218234
H   H135      1.0  0.74350  0.02720  0.60770  1.0000 0.2624218234
H   H136      1.0  0.25650  0.97280  0.10770  1.0000 0.2624218234
H   H137      1.0  0.09950  0.74070  0.34850  1.0000 0.2529639633
H   H138      1.0  0.90050  0.25930  0.84850  1.0000 0.2529639633
H   H139      1.0  0.75930  0.59950  0.09850  1.0000 0.2529639633
H   H140      1.0  0.24070  0.40050  0.59850  1.0000 0.2529639633
H   H141      1.0  0.40050  0.24070  0.40150  1.0000 0.2529639633
H   H142      1.0  0.59950  0.75930  0.90150  1.0000 0.2529639633
H   H143      1.0  0.74070  0.09950  0.65150  1.0000 0.2529639633
H   H144      1.0  0.25930  0.90050  0.15150  1.0000 0.2529639633
C   C1        1.0  0.43280  0.69770  0.43930  1.0000 0.0681183656
C   C2        1.0  0.56720  0.30230  0.93930  1.0000 0.0681183656
C   C3        1.0  0.80230  0.93280  0.18930  1.0000 0.0681183656
C   C4        1.0  0.19770  0.06720  0.68930  1.0000 0.0681183656
C   C5        1.0  0.06720  0.19770  0.31070  1.0000 0.0681183656
C   C6        1.0  0.93280  0.80230  0.81070  1.0000 0.0681183656
C   C7        1.0  0.69770  0.43280  0.56070  1.0000 0.0681183656
C   C8        1.0  0.30230  0.56720  0.06070  1.0000 0.0681183656
C   C9        1.0  0.37540  0.76270  0.42930  1.0000 -0.2017592859
C   C10       1.0  0.62460  0.23730  0.92930  1.0000 -0.2017592859
C   C11       1.0  0.73730  0.87540  0.17930  1.0000 -0.2017592859
C   C12       1.0  0.26270  0.12460  0.67930  1.0000 -0.2017592859
C   C13       1.0  0.12460  0.26270  0.32070  1.0000 -0.2017592859
C   C14       1.0  0.87540  0.73730  0.82070  1.0000 -0.2017592859
C   C15       1.0  0.76270  0.37540  0.57070  1.0000 -0.2017592859
C   C16       1.0  0.23730  0.62460  0.07070  1.0000 -0.2017592859
C   C17       1.0  0.35980  0.82090  0.47670  1.0000 0.1089097934
C   C18       1.0  0.64020  0.17910  0.97670  1.0000 0.1089097934
C   C19       1.0  0.67910  0.85980  0.22670  1.0000 0.1089097934
C   C20       1.0  0.32090  0.14020  0.72670  1.0000 0.1089097934
C   C21       1.0  0.14020  0.32090  0.27330  1.0000 0.1089097934
C   C22       1.0  0.85980  0.67910  0.77330  1.0000 0.1089097934
C   C23       1.0  0.82090  0.35980  0.52330  1.0000 0.1089097934
C   C24       1.0  0.17910  0.64020  0.02330  1.0000 0.1089097934
C   C25       1.0  0.40770  0.81290  0.52940  1.0000 -0.2017592859
C   C26       1.0  0.59230  0.18710  0.02940  1.0000 -0.2017592859
C   C27       1.0  0.68710  0.90770  0.27940  1.0000 -0.2017592859
C   C28       1.0  0.31290  0.09230  0.77940  1.0000 -0.2017592859
C   C29       1.0  0.09230  0.31290  0.22060  1.0000 -0.2017592859
C   C30       1.0  0.90770  0.68710  0.72060  1.0000 -0.2017592859
C   C31       1.0  0.81290  0.40770  0.47060  1.0000 -0.2017592859
C   C32       1.0  0.18710  0.59230  0.97060  1.0000 -0.2017592859
C   C33       1.0  0.46420  0.74610  0.53540  1.0000 0.0681183656
C   C34       1.0  0.53580  0.25390  0.03540  1.0000 0.0681183656
C   C35       1.0  0.75390  0.96420  0.28540  1.0000 0.0681183656
C   C36       1.0  0.24610  0.03580  0.78540  1.0000 0.0681183656
C   C37       1.0  0.03580  0.24610  0.21460  1.0000 0.0681183656
C   C38       1.0  0.96420  0.75390  0.71460  1.0000 0.0681183656
C   C39       1.0  0.74610  0.46420  0.46460  1.0000 0.0681183656
C   C40       1.0  0.25390  0.53580  0.96460  1.0000 0.0681183656
C   C41       1.0  0.29300  0.88660  0.46940  1.0000 0.0681183656
C   C42       1.0  0.70700  0.11340  0.96940  1.0000 0.0681183656
C   C43       1.0  0.61340  0.79300  0.21940  1.0000 0.0681183656
C   C44       1.0  0.38660  0.20700  0.71940  1.0000 0.0681183656
C   C45       1.0  0.20700  0.38660  0.28060  1.0000 0.0681183656
C   C46       1.0  0.79300  0.61340  0.78060  1.0000 0.0681183656
C   C47       1.0  0.88660  0.29300  0.53060  1.0000 0.0681183656
C   C48       1.0  0.11340  0.70700  0.03060  1.0000 0.0681183656
C   C49       1.0  0.29360  0.95910  0.50660  1.0000 -0.15839864
C   C50       1.0  0.70640  0.04090  0.00660  1.0000 -0.15839864
C   C51       1.0  0.54090  0.79360  0.25660  1.0000 -0.15839864
C   C52       1.0  0.45910  0.20640  0.75660  1.0000 -0.15839864
C   C53       1.0  0.20640  0.45910  0.24340  1.0000 -0.15839864
C   C54       1.0  0.79360  0.54090  0.74340  1.0000 -0.15839864
C   C55       1.0  0.95910  0.29360  0.49340  1.0000 -0.15839864
C   C56       1.0  0.04090  0.70640  0.99340  1.0000 -0.15839864
C   C57       1.0  0.23050  0.01890  0.50120  1.0000 -0.1063947087
C   C58       1.0  0.76950  0.98110  0.00120  1.0000 -0.1063947087
C   C59       1.0  0.48110  0.73050  0.25120  1.0000 -0.1063947087
C   C60       1.0  0.51890  0.26950  0.75120  1.0000 -0.1063947087
C   C61       1.0  0.26950  0.51890  0.24880  1.0000 -0.1063947087
C   C62       1.0  0.73050  0.48110  0.74880  1.0000 -0.1063947087
C   C63       1.0  0.01890  0.23050  0.49880  1.0000 -0.1063947087
C   C64       1.0  0.98110  0.76950  0.99880  1.0000 -0.1063947087
C   C65       1.0  0.16410  0.00570  0.46080  1.0000 -0.1450351296
C   C66       1.0  0.83590  0.99430  0.96080  1.0000 -0.1450351296
C   C67       1.0  0.49430  0.66410  0.21080  1.0000 -0.1450351296
C   C68       1.0  0.50570  0.33590  0.71080  1.0000 -0.1450351296
C   C69       1.0  0.33590  0.50570  0.28920  1.0000 -0.1450351296
C   C70       1.0  0.66410  0.49430  0.78920  1.0000 -0.1450351296
C   C71       1.0  0.00570  0.16410  0.53920  1.0000 -0.1450351296
C   C72       1.0  0.99430  0.83590  0.03920  1.0000 -0.1450351296
C   C73       1.0  0.16090  0.93390  0.42560  1.0000 0.0347770633
C   C74       1.0  0.83910  0.06610  0.92560  1.0000 0.0347770633
C   C75       1.0  0.56610  0.66090  0.17560  1.0000 0.0347770633
C   C76       1.0  0.43390  0.33910  0.67560  1.0000 0.0347770633
C   C77       1.0  0.33910  0.43390  0.32440  1.0000 0.0347770633
C   C78       1.0  0.66090  0.56610  0.82440  1.0000 0.0347770633
C   C79       1.0  0.93390  0.16090  0.57440  1.0000 0.0347770633
C   C80       1.0  0.06610  0.83910  0.07440  1.0000 0.0347770633
C   C81       1.0  0.22570  0.87480  0.42930  1.0000 -0.1905455762
C   C82       1.0  0.77430  0.12520  0.92930  1.0000 -0.1905455762
C   C83       1.0  0.62520  0.72570  0.17930  1.0000 -0.1905455762
C   C84       1.0  0.37480  0.27430  0.67930  1.0000 -0.1905455762
C   C85       1.0  0.27430  0.37480  0.32070  1.0000 -0.1905455762
C   C86       1.0  0.72570  0.62520  0.82070  1.0000 -0.1905455762
C   C87       1.0  0.87480  0.22570  0.57070  1.0000 -0.1905455762
C   C88       1.0  0.12520  0.77430  0.07070  1.0000 -0.1905455762
C   C89       1.0  0.09110  0.92590  0.38140  1.0000 0.1867411093
C   C90       1.0  0.90890  0.07410  0.88140  1.0000 0.1867411093
C   C91       1.0  0.57410  0.59110  0.13140  1.0000 0.1867411093
C   C92       1.0  0.42590  0.40890  0.63140  1.0000 0.1867411093
C   C93       1.0  0.40890  0.42590  0.36860  1.0000 0.1867411093
C   C94       1.0  0.59110  0.57410  0.86860  1.0000 0.1867411093
C   C95       1.0  0.92590  0.09110  0.61860  1.0000 0.1867411093
C   C96       1.0  0.07410  0.90890  0.11860  1.0000 0.1867411093
C   C97       1.0  0.99450  0.87510  0.31880  1.0000 0.1798276523
C   C98       1.0  0.00550  0.12490  0.81880  1.0000 0.1798276523
C   C99       1.0  0.62490  0.49450  0.06880  1.0000 0.1798276523
C   C100      1.0  0.37510  0.50550  0.56880  1.0000 0.1798276523
C   C101      1.0  0.50550  0.37510  0.43120  1.0000 0.1798276523
C   C102      1.0  0.49450  0.62490  0.93120  1.0000 0.1798276523
C   C103      1.0  0.87510  0.99450  0.68120  1.0000 0.1798276523
C   C104      1.0  0.12490  0.00550  0.18120  1.0000 0.1798276523
C   C105      1.0  0.93990  0.81270  0.28870  1.0000 0.015128923
C   C106      1.0  0.06010  0.18730  0.78870  1.0000 0.015128923
C   C107      1.0  0.68730  0.43990  0.03870  1.0000 0.015128923
C   C108      1.0  0.31270  0.56010  0.53870  1.0000 0.015128923
C   C109      1.0  0.56010  0.31270  0.46130  1.0000 0.015128923
C   C110      1.0  0.43990  0.68730  0.96130  1.0000 0.015128923
C   C111      1.0  0.81270  0.93990  0.71130  1.0000 0.015128923
C   C112      1.0  0.18730  0.06010  0.21130  1.0000 0.015128923
C   C113      1.0  0.95700  0.78200  0.23000  1.0000 -0.15839864
C   C114      1.0  0.04300  0.21800  0.73000  1.0000 -0.15839864
C   C115      1.0  0.71800  0.45700  0.98000  1.0000 -0.15839864
C   C116      1.0  0.28200  0.54300  0.48000  1.0000 -0.15839864
C   C117      1.0  0.54300  0.28200  0.52000  1.0000 -0.15839864
C   C118      1.0  0.45700  0.71800  0.02000  1.0000 -0.15839864
C   C119      1.0  0.78200  0.95700  0.77000  1.0000 -0.15839864
C   C120      1.0  0.21800  0.04300  0.27000  1.0000 -0.15839864
C   C121      1.0  0.90120  0.72430  0.20370  1.0000 -0.1022057874
C   C122      1.0  0.09880  0.27570  0.70370  1.0000 -0.1022057874
C   C123      1.0  0.77570  0.40120  0.95370  1.0000 -0.1022057874
C   C124      1.0  0.22430  0.59880  0.45370  1.0000 -0.1022057874
C   C125      1.0  0.59880  0.22430  0.54630  1.0000 -0.1022057874
C   C126      1.0  0.40120  0.77570  0.04630  1.0000 -0.1022057874
C   C127      1.0  0.72430  0.90120  0.79630  1.0000 -0.1022057874
C   C128      1.0  0.27570  0.09880  0.29630  1.0000 -0.1022057874
C   C129      1.0  0.83220  0.69450  0.23540  1.0000 -0.15839864
C   C130      1.0  0.16780  0.30550  0.73540  1.0000 -0.15839864
C   C131      1.0  0.80550  0.33220  0.98540  1.0000 -0.15839864
C   C132      1.0  0.19450  0.66780  0.48540  1.0000 -0.15839864
C   C133      1.0  0.66780  0.19450  0.51460  1.0000 -0.15839864
C   C134      1.0  0.33220  0.80550  0.01460  1.0000 -0.15839864
C   C135      1.0  0.69450  0.83220  0.76460  1.0000 -0.15839864
C   C136      1.0  0.30550  0.16780  0.26460  1.0000 -0.15839864
C   C137      1.0  0.81610  0.72360  0.29530  1.0000 0.0681183656
C   C138      1.0  0.18390  0.27640  0.79530  1.0000 0.0681183656
C   C139      1.0  0.77640  0.31610  0.04530  1.0000 0.0681183656
C   C140      1.0  0.22360  0.68390  0.54530  1.0000 0.0681183656
C   C141      1.0  0.68390  0.22360  0.45470  1.0000 0.0681183656
C   C142      1.0  0.31610  0.77640  0.95470  1.0000 0.0681183656
C   C143      1.0  0.72360  0.81610  0.70470  1.0000 0.0681183656
C   C144      1.0  0.27640  0.18390  0.20470  1.0000 0.0681183656
C   C145      1.0  0.87100  0.78400  0.32050  1.0000 -0.1905455762
C   C146      1.0  0.12900  0.21600  0.82050  1.0000 -0.1905455762
C   C147      1.0  0.71600  0.37100  0.07050  1.0000 -0.1905455762
C   C148      1.0  0.28400  0.62900  0.57050  1.0000 -0.1905455762
C   C149      1.0  0.62900  0.28400  0.42950  1.0000 -0.1905455762
C   C150      1.0  0.37100  0.71600  0.92950  1.0000 -0.1905455762
C   C151      1.0  0.78400  0.87100  0.67950  1.0000 -0.1905455762
C   C152      1.0  0.21600  0.12900  0.17950  1.0000 -0.1905455762
C   C153      1.0  0.74440  0.69220  0.33230  1.0000 0.116445701
C   C154      1.0  0.25560  0.30780  0.83230  1.0000 0.116445701
C   C155      1.0  0.80780  0.24440  0.08230  1.0000 0.116445701
C   C156      1.0  0.19220  0.75560  0.58230  1.0000 0.116445701
C   C157      1.0  0.75560  0.19220  0.41770  1.0000 0.116445701
C   C158      1.0  0.24440  0.80780  0.91770  1.0000 0.116445701
C   C159      1.0  0.69220  0.74440  0.66770  1.0000 0.116445701
C   C160      1.0  0.30780  0.25560  0.16770  1.0000 0.116445701
C   C161      1.0  0.71490  0.73630  0.38450  1.0000 -0.2017592859
C   C162      1.0  0.28510  0.26370  0.88450  1.0000 -0.2017592859
C   C163      1.0  0.76370  0.21490  0.13450  1.0000 -0.2017592859
C   C164      1.0  0.23630  0.78510  0.63450  1.0000 -0.2017592859
C   C165      1.0  0.78510  0.23630  0.36550  1.0000 -0.2017592859
C   C166      1.0  0.21490  0.76370  0.86550  1.0000 -0.2017592859
C   C167      1.0  0.73630  0.71490  0.61550  1.0000 -0.2017592859
C   C168      1.0  0.26370  0.28510  0.11550  1.0000 -0.2017592859
C   C169      1.0  0.65550  0.70130  0.42280  1.0000 0.0408801654
C   C170      1.0  0.34450  0.29870  0.92280  1.0000 0.0408801654
C   C171      1.0  0.79870  0.15550  0.17280  1.0000 0.0408801654
C   C172      1.0  0.20130  0.84450  0.67280  1.0000 0.0408801654
C   C173      1.0  0.84450  0.20130  0.32720  1.0000 0.0408801654
C   C174      1.0  0.15550  0.79870  0.82720  1.0000 0.0408801654
C   C175      1.0  0.70130  0.65550  0.57720  1.0000 0.0408801654
C   C176      1.0  0.29870  0.34450  0.07720  1.0000 0.0408801654
C   C177      1.0  0.64180  0.58660  0.36020  1.0000 0.0681183656
C   C178      1.0  0.35820  0.41340  0.86020  1.0000 0.0681183656
C   C179      1.0  0.91340  0.14180  0.11020  1.0000 0.0681183656
C   C180      1.0  0.08660  0.85820  0.61020  1.0000 0.0681183656
C   C181      1.0  0.85820  0.08660  0.38980  1.0000 0.0681183656
C   C182      1.0  0.14180  0.91340  0.88980  1.0000 0.0681183656
C   C183      1.0  0.58660  0.64180  0.63980  1.0000 0.0681183656
C   C184      1.0  0.41340  0.35820  0.13980  1.0000 0.0681183656
C   C185      1.0  0.70160  0.61680  0.31970  1.0000 -0.2017592859
C   C186      1.0  0.29840  0.38320  0.81970  1.0000 -0.2017592859
C   C187      1.0  0.88320  0.20160  0.06970  1.0000 -0.2017592859
C   C188      1.0  0.11680  0.79840  0.56970  1.0000 -0.2017592859
C   C189      1.0  0.79840  0.11680  0.43030  1.0000 -0.2017592859
C   C190      1.0  0.20160  0.88320  0.93030  1.0000 -0.2017592859
C   C191      1.0  0.61680  0.70160  0.68030  1.0000 -0.2017592859
C   C192      1.0  0.38320  0.29840  0.18030  1.0000 -0.2017592859
N   N1        1.0  0.62060  0.62530  0.41260  1.0000 -0.2407151541
N   N2        1.0  0.37940  0.37470  0.91260  1.0000 -0.2407151541
N   N3        1.0  0.87470  0.12060  0.16260  1.0000 -0.2407151541
N   N4        1.0  0.12530  0.87940  0.66260  1.0000 -0.2407151541
N   N5        1.0  0.87940  0.12530  0.33740  1.0000 -0.2407151541
N   N6        1.0  0.12060  0.87470  0.83740  1.0000 -0.2407151541
N   N7        1.0  0.62530  0.62060  0.58740  1.0000 -0.2407151541
N   N8        1.0  0.37470  0.37940  0.08740  1.0000 -0.2407151541
N   N9        1.0  0.47720  0.68850  0.49160  1.0000 -0.2407151541
N   N10       1.0  0.52280  0.31150  0.99160  1.0000 -0.2407151541
N   N11       1.0  0.81150  0.97720  0.24160  1.0000 -0.2407151541
N   N12       1.0  0.18850  0.02280  0.74160  1.0000 -0.2407151541
N   N13       1.0  0.02280  0.18850  0.25840  1.0000 -0.2407151541
N   N14       1.0  0.97720  0.81150  0.75840  1.0000 -0.2407151541
N   N15       1.0  0.68850  0.47720  0.50840  1.0000 -0.2407151541
N   N16       1.0  0.31150  0.52280  0.00840  1.0000 -0.2407151541
N   N17       1.0  0.05350  0.98890  0.35520  1.0000 -0.2663544981
N   N18       1.0  0.94650  0.01110  0.85520  1.0000 -0.2663544981
N   N19       1.0  0.51110  0.55350  0.10520  1.0000 -0.2663544981
N   N20       1.0  0.48890  0.44650  0.60520  1.0000 -0.2663544981
N   N21       1.0  0.44650  0.48890  0.39480  1.0000 -0.2663544981
N   N22       1.0  0.55350  0.51110  0.89480  1.0000 -0.2663544981
N   N23       1.0  0.98890  0.05350  0.64480  1.0000 -0.2663544981
N   N24       1.0  0.01110  0.94650  0.14480  1.0000 -0.2663544981
N   N25       1.0  0.99280  0.95650  0.31620  1.0000 -0.2245532764
N   N26       1.0  0.00720  0.04350  0.81620  1.0000 -0.2245532764
N   N27       1.0  0.54350  0.49280  0.06620  1.0000 -0.2245532764
N   N28       1.0  0.45650  0.50720  0.56620  1.0000 -0.2245532764
N   N29       1.0  0.50720  0.45650  0.43380  1.0000 -0.2245532764
N   N30       1.0  0.49280  0.54350  0.93380  1.0000 -0.2245532764
N   N31       1.0  0.95650  0.99280  0.68380  1.0000 -0.2245532764
N   N32       1.0  0.04350  0.00720  0.18380  1.0000 -0.2245532764
N   N33       1.0  0.05570  0.85180  0.35980  1.0000 0.0595268936
N   N34       1.0  0.94430  0.14820  0.85980  1.0000 0.0595268936
N   N35       1.0  0.64820  0.55570  0.10980  1.0000 0.0595268936
N   N36       1.0  0.35180  0.44430  0.60980  1.0000 0.0595268936
N   N37       1.0  0.44430  0.35180  0.39020  1.0000 0.0595268936
N   N38       1.0  0.55570  0.64820  0.89020  1.0000 0.0595268936
N   N39       1.0  0.85180  0.05570  0.64020  1.0000 0.0595268936
N   N40       1.0  0.14820  0.94430  0.14020  1.0000 0.0595268936
N   N41       1.0  0.07540  0.77000  0.38020  1.0000 -0.4968401758
N   N42       1.0  0.92460  0.23000  0.88020  1.0000 -0.4968401758
N   N43       1.0  0.73000  0.57540  0.13020  1.0000 -0.4968401758
N   N44       1.0  0.27000  0.42460  0.63020  1.0000 -0.4968401758
N   N45       1.0  0.42460  0.27000  0.36980  1.0000 -0.4968401758
N   N46       1.0  0.57540  0.73000  0.86980  1.0000 -0.4968401758
N   N47       1.0  0.77000  0.07540  0.61980  1.0000 -0.4968401758
N   N48       1.0  0.23000  0.92460  0.11980  1.0000 -0.4968401758
Cl  Cl1       1.0  0.87494  0.87494  0.50000  1.0000 0.9907824279
Cl  Cl2       1.0  0.12506  0.12506  0.00000  1.0000 0.9907824279
Cl  Cl3       1.0  0.37494  0.62506  0.75000  1.0000 0.9907824279
Cl  Cl4       1.0  0.62506  0.37494  0.25000  1.0000 0.9907824279
O   O1        1.0  0.93050  0.87790  0.45910  1.0000 -0.3231135973
O   O2        1.0  0.87790  0.93050  0.54090  1.0000 -0.3231135973
O   O3        1.0  0.80850  0.89200  0.46780  1.0000 -0.3589095889
O   O4        1.0  0.89200  0.80850  0.53220  1.0000 -0.3589095889
O   O5        1.0  0.06950  0.12210  0.95910  1.0000 -0.3253730504
O   O6        1.0  0.12210  0.06950  0.04090  1.0000 -0.3253730504
O   O7        1.0  0.19150  0.10800  0.96780  1.0000 -0.3589095889
O   O8        1.0  0.10800  0.19150  0.03220  1.0000 -0.3589095889
O   O9        1.0  0.37790  0.56950  0.70910  1.0000 -0.3231135973
O   O10       1.0  0.43050  0.62210  0.79090  1.0000 -0.3231135973
O   O11       1.0  0.39200  0.69150  0.71780  1.0000 -0.3589095889
O   O12       1.0  0.30850  0.60800  0.78220  1.0000 -0.3589095889
O   O13       1.0  0.62210  0.43050  0.20910  1.0000 -0.3231135973
O   O14       1.0  0.56950  0.37790  0.29090  1.0000 -0.3231135973
O   O15       1.0  0.60800  0.30850  0.21780  1.0000 -0.3589095889
O   O16       1.0  0.69150  0.39200  0.28220  1.0000 -0.3589095889
