# DDEC6 charges by PACMAN v1.1 (https://github.com/mtap-research/PACMAN-charge/)
data_2009[CuSi][vme]3[ION]1
_chemical_formula_sum              "Cu16 Si16 H120 C112 N64 O36 F96"
_cell_length_a       18.484
_cell_length_b       18.028
_cell_length_c       18.924
_cell_angle_alpha    90
_cell_angle_beta     109.975
_cell_angle_gamma    90

_symmetry_space_group_name_H-M    "P 1"
_symmetry_Int_Tables_number       1

loop_
  _symmetry_equiv_pos_as_xyz
  'x, y, z'

loop_
  _atom_site_type_symbol
  _atom_site_label
  _atom_site_symmetry_multiplicity
  _atom_site_fract_x
  _atom_site_fract_y
  _atom_site_fract_z
  _atom_site_occupancy
  _atom_site_charge
Cu  Cu1       1.0  0.23771  0.42530  0.57758  1.0000 0.7327514423
Cu  Cu2       1.0  0.26229  0.92530  0.42242  1.0000 0.7385600171
Cu  Cu3       1.0  0.76229  0.57470  0.42242  1.0000 0.7385600171
Cu  Cu4       1.0  0.73771  0.07470  0.57758  1.0000 0.7385600171
Cu  Cu5       1.0  0.36673  0.54520  0.68797  1.0000 0.7520035637
Cu  Cu6       1.0  0.13327  0.04520  0.31203  1.0000 0.7520035637
Cu  Cu7       1.0  0.63327  0.45480  0.31203  1.0000 0.7520035637
Cu  Cu8       1.0  0.86673  0.95480  0.68797  1.0000 0.7520035637
Cu  Cu9       1.0  0.43766  0.40547  0.22844  1.0000 0.7613713874
Cu  Cu10      1.0  0.06234  0.90547  0.77156  1.0000 0.7613713874
Cu  Cu11      1.0  0.56234  0.59453  0.77156  1.0000 0.7613713874
Cu  Cu12      1.0  0.93766  0.09453  0.22844  1.0000 0.7613713874
Cu  Cu13      1.0  0.27575  0.39115  0.08941  1.0000 0.7385600171
Cu  Cu14      1.0  0.22425  0.89115  0.91059  1.0000 0.7385600171
Cu  Cu15      1.0  0.72425  0.60885  0.91059  1.0000 0.7385600171
Cu  Cu16      1.0  0.77575  0.10885  0.08941  1.0000 0.7385600171
Si  Si1       1.0  0.90760  0.55470  0.20190  1.0000 1.5188318623
Si  Si2       1.0  0.59240  0.05470  0.79810  1.0000 1.5188318623
Si  Si3       1.0  0.09240  0.44530  0.79810  1.0000 1.5188318623
Si  Si4       1.0  0.40760  0.94530  0.20190  1.0000 1.5188318623
Si  Si5       1.0  0.21347  0.72552  0.63068  1.0000 1.7230061425
Si  Si6       1.0  0.28653  0.22552  0.36932  1.0000 1.7264875902
Si  Si7       1.0  0.78653  0.27448  0.36932  1.0000 1.7230061425
Si  Si8       1.0  0.71347  0.77448  0.63068  1.0000 1.7264875902
Si  Si9       1.0  0.00000  0.00000  0.50000  1.0000 1.7436630858
Si  Si10      1.0  0.50000  0.50000  0.50000  1.0000 1.7456178797
Si  Si11      1.0  0.96220  0.42720  0.11280  1.0000 1.4557795657
Si  Si12      1.0  0.53780  0.92720  0.88720  1.0000 1.4557795657
Si  Si13      1.0  0.03780  0.57280  0.88720  1.0000 1.4557795657
Si  Si14      1.0  0.46220  0.07280  0.11280  1.0000 1.4557795657
Si  Si15      1.0  0.00000  0.00000  0.00000  1.0000 1.7051916255
Si  Si16      1.0  0.50000  0.50000  0.00000  1.0000 1.7044606341
H   H1        1.0  0.34010  0.50310  0.55750  1.0000 0.3782206533
H   H2        1.0  0.15990  0.00310  0.44250  1.0000 0.3782206533
H   H3        1.0  0.65990  0.49690  0.44250  1.0000 0.3782206533
H   H4        1.0  0.84010  0.99690  0.55750  1.0000 0.3782206533
H   H5        1.0  0.45890  0.48240  0.68880  1.0000 0.3336018158
H   H6        1.0  0.04110  0.98240  0.31120  1.0000 0.3336018158
H   H7        1.0  0.54110  0.51760  0.31120  1.0000 0.3336018158
H   H8        1.0  0.95890  0.01760  0.68880  1.0000 0.3336018158
H   H9        1.0  0.50360  0.44720  0.76070  1.0000 0.3782206533
H   H10       1.0  0.99640  0.94720  0.23930  1.0000 0.3782206533
H   H11       1.0  0.49640  0.55280  0.23930  1.0000 0.3782206533
H   H12       1.0  0.00360  0.05280  0.76070  1.0000 0.3782206533
H   H13       1.0  0.39200  0.46850  0.10210  1.0000 0.4083070291
H   H14       1.0  0.10800  0.96850  0.89790  1.0000 0.4083070291
H   H15       1.0  0.60800  0.53150  0.89790  1.0000 0.4083070291
H   H16       1.0  0.89200  0.03150  0.10210  1.0000 0.4083070291
H   H17       1.0  0.21350  0.50410  0.99020  1.0000 0.373149885
H   H18       1.0  0.28650  0.00410  0.00980  1.0000 0.373149885
H   H19       1.0  0.78650  0.49590  0.00980  1.0000 0.373149885
H   H20       1.0  0.71350  0.99590  0.99020  1.0000 0.373149885
H   H21       1.0  0.20420  0.52680  0.06130  1.0000 0.39354915
H   H22       1.0  0.29580  0.02680  0.93870  1.0000 0.39354915
H   H23       1.0  0.79580  0.47320  0.93870  1.0000 0.39354915
H   H24       1.0  0.70420  0.97320  0.06130  1.0000 0.39354915
H   H25       1.0  0.10440  0.50120  0.47310  1.0000 0.1208200304
H   H26       1.0  0.39560  0.00120  0.52690  1.0000 0.1208200304
H   H27       1.0  0.89560  0.49880  0.52690  1.0000 0.1208200304
H   H28       1.0  0.60440  0.99880  0.47310  1.0000 0.1208200304
H   H29       1.0  0.05030  0.53270  0.34850  1.0000 0.1484455636
H   H30       1.0  0.44970  0.03270  0.65150  1.0000 0.1484455636
H   H31       1.0  0.94970  0.46730  0.65150  1.0000 0.1484455636
H   H32       1.0  0.55030  0.96730  0.34850  1.0000 0.1484455636
H   H33       1.0  0.11800  0.51130  0.26850  1.0000 0.1393655843
H   H34       1.0  0.38200  0.01130  0.73150  1.0000 0.1393655843
H   H35       1.0  0.88200  0.48870  0.73150  1.0000 0.1304788219
H   H36       1.0  0.61800  0.98870  0.26850  1.0000 0.1393655843
H   H37       1.0  0.28110  0.41140  0.43780  1.0000 0.1393655843
H   H38       1.0  0.21890  0.91140  0.56220  1.0000 0.1393655843
H   H39       1.0  0.71890  0.58860  0.56220  1.0000 0.1393655843
H   H40       1.0  0.78110  0.08860  0.43780  1.0000 0.1393655843
H   H41       1.0  0.36330  0.44320  0.36140  1.0000 0.1484455636
H   H42       1.0  0.13670  0.94320  0.63860  1.0000 0.1484455636
H   H43       1.0  0.63670  0.55680  0.63860  1.0000 0.1484455636
H   H44       1.0  0.86330  0.05680  0.36140  1.0000 0.1484455636
H   H45       1.0  0.16510  0.42280  0.19480  1.0000 0.1484455636
H   H46       1.0  0.33490  0.92280  0.80520  1.0000 0.1484455636
H   H47       1.0  0.83490  0.57720  0.80520  1.0000 0.1484455636
H   H48       1.0  0.66510  0.07720  0.19480  1.0000 0.1484455636
H   H49       1.0  0.31520  0.63960  0.81060  1.0000 0.1672785824
H   H50       1.0  0.18480  0.13960  0.18940  1.0000 0.1672785824
H   H51       1.0  0.68480  0.36040  0.18940  1.0000 0.1672785824
H   H52       1.0  0.81520  0.86040  0.81060  1.0000 0.1672785824
H   H53       1.0  0.53210  0.69740  0.89350  1.0000 0.1304788219
H   H54       1.0  0.96790  0.19740  0.10650  1.0000 0.1304788219
H   H55       1.0  0.46790  0.30260  0.10650  1.0000 0.1304788219
H   H56       1.0  0.03210  0.80260  0.89350  1.0000 0.1304788219
H   H57       1.0  0.49600  0.71360  0.01200  1.0000 0.1304788219
H   H58       1.0  0.00400  0.21360  0.98800  1.0000 0.1304788219
H   H59       1.0  0.50400  0.28640  0.98800  1.0000 0.1304788219
H   H60       1.0  0.99600  0.78640  0.01200  1.0000 0.1304788219
H   H61       1.0  0.47130  0.80450  0.08820  1.0000 0.1484455636
H   H62       1.0  0.02870  0.30450  0.91180  1.0000 0.1484455636
H   H63       1.0  0.52870  0.19550  0.91180  1.0000 0.1484455636
H   H64       1.0  0.97130  0.69550  0.08820  1.0000 0.1484455636
H   H65       1.0  0.36550  0.87750  0.04230  1.0000 0.0887432529
H   H66       1.0  0.13450  0.37750  0.95770  1.0000 0.0887432529
H   H67       1.0  0.63450  0.12250  0.95770  1.0000 0.0887432529
H   H68       1.0  0.86550  0.62250  0.04230  1.0000 0.0887432529
H   H69       1.0  0.30400  0.77700  0.84760  1.0000 0.1208200304
H   H70       1.0  0.19600  0.27700  0.15240  1.0000 0.1208200304
H   H71       1.0  0.69600  0.22300  0.15240  1.0000 0.1208200304
H   H72       1.0  0.80400  0.72300  0.84760  1.0000 0.1208200304
H   H73       1.0  0.16370  0.15840  0.44870  1.0000 0.15799173
H   H74       1.0  0.33630  0.65840  0.55130  1.0000 0.15799173
H   H75       1.0  0.83630  0.84160  0.55130  1.0000 0.1484455636
H   H76       1.0  0.66370  0.34160  0.44870  1.0000 0.15799173
H   H77       1.0  0.94300  0.20870  0.36460  1.0000 0.1484455636
H   H78       1.0  0.55700  0.70870  0.63540  1.0000 0.1484455636
H   H79       1.0  0.05700  0.79130  0.63540  1.0000 0.1393655843
H   H80       1.0  0.44300  0.29130  0.36460  1.0000 0.1393655843
H   H81       1.0  0.96790  0.24190  0.50300  1.0000 0.15799173
H   H82       1.0  0.53210  0.74190  0.49700  1.0000 0.15799173
H   H83       1.0  0.03210  0.75810  0.49700  1.0000 0.15799173
H   H84       1.0  0.46790  0.25810  0.50300  1.0000 0.15799173
H   H85       1.0  0.99210  0.33130  0.59540  1.0000 0.1484455636
H   H86       1.0  0.50790  0.83130  0.40460  1.0000 0.1484455636
H   H87       1.0  0.00790  0.66870  0.40460  1.0000 0.1484455636
H   H88       1.0  0.49210  0.16870  0.59540  1.0000 0.1484455636
H   H89       1.0  0.10270  0.39820  0.63020  1.0000 0.1122616432
H   H90       1.0  0.39730  0.89820  0.36980  1.0000 0.1122616432
H   H91       1.0  0.89730  0.60180  0.36980  1.0000 0.1122616432
H   H92       1.0  0.60270  0.10180  0.63020  1.0000 0.1122616432
H   H93       1.0  0.16960  0.29440  0.48280  1.0000 0.1304788219
H   H94       1.0  0.33040  0.79440  0.51720  1.0000 0.1304788219
H   H95       1.0  0.83040  0.70560  0.51720  1.0000 0.1304788219
H   H96       1.0  0.66960  0.20560  0.48280  1.0000 0.1304788219
H   H97       1.0  0.31610  0.24800  0.04770  1.0000 0.1122616432
H   H98       1.0  0.18390  0.74800  0.95230  1.0000 0.1122616432
H   H99       1.0  0.68390  0.75200  0.95230  1.0000 0.1122616432
H   H100      1.0  0.81610  0.25200  0.04770  1.0000 0.1122616432
H   H101      1.0  0.33570  0.18200  0.95290  1.0000 0.1393655843
H   H102      1.0  0.16430  0.68200  0.04710  1.0000 0.1393655843
H   H103      1.0  0.66430  0.81800  0.04710  1.0000 0.1393655843
H   H104      1.0  0.83570  0.31800  0.95290  1.0000 0.1393655843
H   H105      1.0  0.33070  0.24380  0.84210  1.0000 0.1304788219
H   H106      1.0  0.16930  0.74380  0.15790  1.0000 0.1304788219
H   H107      1.0  0.66930  0.75620  0.15790  1.0000 0.1304788219
H   H108      1.0  0.83070  0.25620  0.84210  1.0000 0.1304788219
H   H109      1.0  0.28310  0.43050  0.93330  1.0000 0.1122616432
H   H110      1.0  0.21690  0.93050  0.06670  1.0000 0.1122616432
H   H111      1.0  0.71690  0.56950  0.06670  1.0000 0.1122616432
H   H112      1.0  0.78310  0.06950  0.93330  1.0000 0.1122616432
H   H113      1.0  0.36290  0.47800  0.84670  1.0000 0.1304788219
H   H114      1.0  0.13710  0.97800  0.15330  1.0000 0.1304788219
H   H115      1.0  0.63710  0.52200  0.15330  1.0000 0.1304788219
H   H116      1.0  0.86290  0.02200  0.84670  1.0000 0.1304788219
H   H117      1.0  0.23630  0.31980  0.72270  1.0000 0.1304788219
H   H118      1.0  0.26370  0.81980  0.27730  1.0000 0.1304788219
H   H119      1.0  0.76370  0.68020  0.27730  1.0000 0.1304788219
H   H120      1.0  0.73630  0.18020  0.72270  1.0000 0.1304788219
C   C1        1.0  0.13060  0.48950  0.44040  1.0000 0.067037795
C   C2        1.0  0.36940  0.98950  0.55960  1.0000 0.067037795
C   C3        1.0  0.86940  0.51050  0.55960  1.0000 0.067037795
C   C4        1.0  0.63060  0.01050  0.44040  1.0000 0.067037795
C   C5        1.0  0.09830  0.50990  0.36590  1.0000 -0.0906247718
C   C6        1.0  0.40170  0.00990  0.63410  1.0000 -0.0906247718
C   C7        1.0  0.90170  0.49010  0.63410  1.0000 -0.0906247718
C   C8        1.0  0.59830  0.99010  0.36590  1.0000 -0.0906247718
C   C9        1.0  0.13740  0.49620  0.31850  1.0000 -0.1017237832
C   C10       1.0  0.36260  0.99620  0.68150  1.0000 -0.1017237832
C   C11       1.0  0.86260  0.50380  0.68150  1.0000 -0.1017237832
C   C12       1.0  0.63740  0.00380  0.31850  1.0000 -0.1017237832
C   C13       1.0  0.20650  0.45940  0.34590  1.0000 0.1393655843
C   C14       1.0  0.29350  0.95940  0.65410  1.0000 0.1393655843
C   C15       1.0  0.79350  0.54060  0.65410  1.0000 0.1393655843
C   C16       1.0  0.70650  0.04060  0.34590  1.0000 0.1393655843
C   C17       1.0  0.23500  0.43770  0.42030  1.0000 0.0192832809
C   C18       1.0  0.26500  0.93770  0.57970  1.0000 0.0192832809
C   C19       1.0  0.76500  0.56230  0.57970  1.0000 0.0192832809
C   C20       1.0  0.73500  0.06230  0.42030  1.0000 0.0192832809
C   C21       1.0  0.32680  0.43580  0.31390  1.0000 0.15799173
C   C22       1.0  0.17320  0.93580  0.68610  1.0000 0.15799173
C   C23       1.0  0.67320  0.56420  0.68610  1.0000 0.15799173
C   C24       1.0  0.82680  0.06420  0.31390  1.0000 0.15799173
C   C25       1.0  0.21750  0.42440  0.22220  1.0000 0.1393655843
C   C26       1.0  0.28250  0.92440  0.77780  1.0000 0.1393655843
C   C27       1.0  0.78250  0.57560  0.77780  1.0000 0.1393655843
C   C28       1.0  0.71750  0.07560  0.22220  1.0000 0.1393655843
C   C29       1.0  0.36770  0.64300  0.81900  1.0000 0.1484455636
C   C30       1.0  0.13230  0.14300  0.18100  1.0000 0.1484455636
C   C31       1.0  0.63230  0.35700  0.18100  1.0000 0.1484455636
C   C32       1.0  0.86770  0.85700  0.81900  1.0000 0.1484455636
C   C33       1.0  0.48640  0.67450  0.86460  1.0000 0.1393655843
C   C34       1.0  0.01360  0.17450  0.13540  1.0000 0.1393655843
C   C35       1.0  0.51360  0.32550  0.13540  1.0000 0.1393655843
C   C36       1.0  0.98640  0.82550  0.86460  1.0000 0.1484455636
C   C37       1.0  0.40200  0.73780  0.92190  1.0000 0.1304788219
C   C38       1.0  0.09800  0.23780  0.07810  1.0000 0.1304788219
C   C39       1.0  0.59800  0.26220  0.07810  1.0000 0.1304788219
C   C40       1.0  0.90200  0.76220  0.92190  1.0000 0.1304788219
C   C41       1.0  0.45310  0.74420  0.99420  1.0000 -0.0906247718
C   C42       1.0  0.04690  0.24420  0.00580  1.0000 -0.0906247718
C   C43       1.0  0.54690  0.25580  0.00580  1.0000 -0.0906247718
C   C44       1.0  0.95310  0.75580  0.99420  1.0000 -0.0906247718
C   C45       1.0  0.43800  0.79780  0.03910  1.0000 -0.1017237832
C   C46       1.0  0.06200  0.29780  0.96090  1.0000 -0.1017237832
C   C47       1.0  0.56200  0.20220  0.96090  1.0000 -0.1017237832
C   C48       1.0  0.93800  0.70220  0.03910  1.0000 -0.1017237832
C   C49       1.0  0.37420  0.84090  0.01150  1.0000 0.0997704698
C   C50       1.0  0.12580  0.34090  0.98850  1.0000 0.0997704698
C   C51       1.0  0.62580  0.15910  0.98850  1.0000 0.0997704698
C   C52       1.0  0.87420  0.65910  0.01150  1.0000 0.0997704698
C   C53       1.0  0.33780  0.78220  0.89660  1.0000 -0.0090530113
C   C54       1.0  0.16220  0.28220  0.10340  1.0000 -0.0090530113
C   C55       1.0  0.66220  0.21780  0.10340  1.0000 -0.0090530113
C   C56       1.0  0.83780  0.71780  0.89660  1.0000 -0.0090530113
C   C57       1.0  0.11220  0.15930  0.41820  1.0000 0.1484455636
C   C58       1.0  0.38780  0.65930  0.58180  1.0000 0.1484455636
C   C59       1.0  0.88780  0.84070  0.58180  1.0000 0.1484455636
C   C60       1.0  0.61220  0.34070  0.41820  1.0000 0.1484455636
C   C61       1.0  0.99050  0.18690  0.37160  1.0000 0.1484455636
C   C62       1.0  0.50950  0.68690  0.62840  1.0000 0.1484455636
C   C63       1.0  0.00950  0.81310  0.62840  1.0000 0.1484455636
C   C64       1.0  0.49050  0.31310  0.37160  1.0000 0.1484455636
C   C65       1.0  0.06740  0.25890  0.48460  1.0000 0.1208200304
C   C66       1.0  0.43260  0.75890  0.51540  1.0000 0.1304788219
C   C67       1.0  0.93260  0.74110  0.51540  1.0000 0.1208200304
C   C68       1.0  0.56740  0.24110  0.48460  1.0000 0.1304788219
C   C69       1.0  0.01300  0.26960  0.51720  1.0000 -0.0818119178
C   C70       1.0  0.48700  0.76960  0.48280  1.0000 -0.0818119178
C   C71       1.0  0.98700  0.73040  0.48280  1.0000 -0.0818119178
C   C72       1.0  0.51300  0.23040  0.51720  1.0000 -0.0818119178
C   C73       1.0  0.02780  0.32260  0.57170  1.0000 -0.1119135914
C   C74       1.0  0.47220  0.82260  0.42830  1.0000 -0.1119135914
C   C75       1.0  0.97220  0.67740  0.42830  1.0000 -0.1119135914
C   C76       1.0  0.52780  0.17740  0.57170  1.0000 -0.1119135914
C   C77       1.0  0.09410  0.36320  0.59210  1.0000 0.063323049
C   C78       1.0  0.40590  0.86320  0.40790  1.0000 0.063323049
C   C79       1.0  0.90590  0.63680  0.40790  1.0000 0.063323049
C   C80       1.0  0.59410  0.13680  0.59210  1.0000 0.063323049
C   C81       1.0  0.13330  0.30200  0.50610  1.0000 -0.0283387357
C   C82       1.0  0.36670  0.80200  0.49390  1.0000 -0.0283387357
C   C83       1.0  0.86670  0.69800  0.49390  1.0000 -0.0283387357
C   C84       1.0  0.63330  0.19800  0.50610  1.0000 -0.0283387357
C   C85       1.0  0.31300  0.27270  0.00360  1.0000 0.063323049
C   C86       1.0  0.18700  0.77270  0.99640  1.0000 0.063323049
C   C87       1.0  0.68700  0.72730  0.99640  1.0000 0.063323049
C   C88       1.0  0.81300  0.22730  0.00360  1.0000 0.063323049
C   C89       1.0  0.32540  0.23250  0.94720  1.0000 -0.1017237832
C   C90       1.0  0.17460  0.73250  0.05280  1.0000 -0.1017237832
C   C91       1.0  0.67460  0.76750  0.05280  1.0000 -0.1017237832
C   C92       1.0  0.82540  0.26750  0.94720  1.0000 -0.1017237832
C   C93       1.0  0.32230  0.26900  0.88150  1.0000 -0.1119135914
C   C94       1.0  0.17770  0.76900  0.11850  1.0000 -0.1119135914
C   C95       1.0  0.67770  0.73100  0.11850  1.0000 -0.1119135914
C   C96       1.0  0.82230  0.23100  0.88150  1.0000 -0.1119135914
C   C97       1.0  0.30650  0.34310  0.87710  1.0000 0.1393655843
C   C98       1.0  0.19350  0.84310  0.12290  1.0000 0.1393655843
C   C99       1.0  0.69350  0.65690  0.12290  1.0000 0.1393655843
C   C100      1.0  0.80650  0.15690  0.87710  1.0000 0.1393655843
C   C101      1.0  0.29380  0.37990  0.93700  1.0000 0.0373506529
C   C102      1.0  0.20620  0.87990  0.06300  1.0000 0.0373506529
C   C103      1.0  0.70620  0.62010  0.06300  1.0000 0.0373506529
C   C104      1.0  0.79380  0.12010  0.93700  1.0000 0.0373506529
C   C105      1.0  0.33420  0.44950  0.80580  1.0000 0.1393655843
C   C106      1.0  0.16580  0.94950  0.19420  1.0000 0.1393655843
C   C107      1.0  0.66580  0.55050  0.19420  1.0000 0.1393655843
C   C108      1.0  0.83420  0.05050  0.80580  1.0000 0.1393655843
C   C109      1.0  0.26500  0.36300  0.73740  1.0000 0.1304788219
C   C110      1.0  0.23500  0.86300  0.26260  1.0000 0.1304788219
C   C111      1.0  0.73500  0.63700  0.26260  1.0000 0.1304788219
C   C112      1.0  0.76500  0.13700  0.73740  1.0000 0.1304788219
N   N1        1.0  0.19750  0.45390  0.46760  1.0000 -0.2138644772
N   N2        1.0  0.30250  0.95390  0.53240  1.0000 -0.2138644772
N   N3        1.0  0.80250  0.54610  0.53240  1.0000 -0.2138644772
N   N4        1.0  0.69750  0.04610  0.46760  1.0000 -0.2138644772
N   N5        1.0  0.24860  0.44020  0.29630  1.0000 0.0013286836
N   N6        1.0  0.25140  0.94020  0.70370  1.0000 0.0013286836
N   N7        1.0  0.75140  0.55980  0.70370  1.0000 0.0013286836
N   N8        1.0  0.74860  0.05980  0.29630  1.0000 0.0013286836
N   N9        1.0  0.34130  0.41950  0.25360  1.0000 -0.1595990339
N   N10       1.0  0.15870  0.91950  0.74640  1.0000 -0.1595990339
N   N11       1.0  0.65870  0.58050  0.74640  1.0000 -0.1595990339
N   N12       1.0  0.84130  0.08050  0.25360  1.0000 -0.1595990339
N   N13       1.0  0.27240  0.41170  0.19540  1.0000 -0.192472385
N   N14       1.0  0.22760  0.91170  0.80460  1.0000 -0.192472385
N   N15       1.0  0.72760  0.58830  0.80460  1.0000 -0.192472385
N   N16       1.0  0.77240  0.08830  0.19540  1.0000 -0.192472385
N   N17       1.0  0.40360  0.60640  0.78190  1.0000 -0.1975463143
N   N18       1.0  0.09640  0.10640  0.21810  1.0000 -0.1975463143
N   N19       1.0  0.59640  0.39360  0.21810  1.0000 -0.1975463143
N   N20       1.0  0.90360  0.89360  0.78190  1.0000 -0.1975463143
N   N21       1.0  0.47990  0.62620  0.81160  1.0000 -0.1822823526
N   N22       1.0  0.02010  0.12620  0.18840  1.0000 -0.1822823526
N   N23       1.0  0.52010  0.37380  0.18840  1.0000 -0.1822823526
N   N24       1.0  0.97990  0.87380  0.81160  1.0000 -0.1822823526
N   N25       1.0  0.41690  0.68630  0.87110  1.0000 -0.0090530113
N   N26       1.0  0.08310  0.18630  0.12890  1.0000 -0.0090530113
N   N27       1.0  0.58310  0.31370  0.12890  1.0000 -0.0090530113
N   N28       1.0  0.91690  0.81370  0.87110  1.0000 -0.0090530113
N   N29       1.0  0.32340  0.83320  0.94220  1.0000 -0.2489885816
N   N30       1.0  0.17660  0.33320  0.05780  1.0000 -0.2489885816
N   N31       1.0  0.67660  0.16680  0.05780  1.0000 -0.2489885816
N   N32       1.0  0.82340  0.66680  0.94220  1.0000 -0.2489885816
N   N33       1.0  0.08050  0.11710  0.35900  1.0000 -0.1822823526
N   N34       1.0  0.41950  0.61710  0.64100  1.0000 -0.1822823526
N   N35       1.0  0.91950  0.88290  0.64100  1.0000 -0.1822823526
N   N36       1.0  0.58050  0.38290  0.35900  1.0000 -0.1822823526
N   N37       1.0  0.00310  0.13480  0.32900  1.0000 -0.1975463143
N   N38       1.0  0.49690  0.63480  0.67100  1.0000 -0.1975463143
N   N39       1.0  0.99690  0.86520  0.67100  1.0000 -0.1975463143
N   N40       1.0  0.50310  0.36520  0.32900  1.0000 -0.1975463143
N   N41       1.0  0.05720  0.20440  0.42760  1.0000 0.0013286836
N   N42       1.0  0.44280  0.70440  0.57240  1.0000 0.0013286836
N   N43       1.0  0.94280  0.79560  0.57240  1.0000 0.0013286836
N   N44       1.0  0.55720  0.29560  0.42760  1.0000 0.0013286836
N   N45       1.0  0.14670  0.35440  0.55940  1.0000 -0.2390839666
N   N46       1.0  0.35330  0.85440  0.44060  1.0000 -0.2390839666
N   N47       1.0  0.85330  0.64560  0.44060  1.0000 -0.2390839666
N   N48       1.0  0.64670  0.14560  0.55940  1.0000 -0.2390839666
N   N49       1.0  0.29700  0.34390  0.99910  1.0000 -0.2204057908
N   N50       1.0  0.20300  0.84390  0.00090  1.0000 -0.2204057908
N   N51       1.0  0.70300  0.65610  0.00090  1.0000 -0.2204057908
N   N52       1.0  0.79700  0.15610  0.99910  1.0000 -0.2204057908
N   N53       1.0  0.30190  0.38390  0.81050  1.0000 -0.0090530113
N   N54       1.0  0.19810  0.88390  0.18950  1.0000 -0.0090530113
N   N55       1.0  0.69810  0.61610  0.18950  1.0000 -0.0090530113
N   N56       1.0  0.80190  0.11610  0.81050  1.0000 -0.0090530113
N   N57       1.0  0.31930  0.46750  0.73510  1.0000 -0.192472385
N   N58       1.0  0.18070  0.96750  0.26490  1.0000 -0.192472385
N   N59       1.0  0.68070  0.53250  0.26490  1.0000 -0.192472385
N   N60       1.0  0.81930  0.03250  0.73510  1.0000 -0.192472385
N   N61       1.0  0.27560  0.41110  0.69180  1.0000 -0.1676246988
N   N62       1.0  0.22440  0.91110  0.30820  1.0000 -0.1676246988
N   N63       1.0  0.72440  0.58890  0.30820  1.0000 -0.1676246988
N   N64       1.0  0.77560  0.08890  0.69180  1.0000 -0.1676246988
O   O1        1.0  0.32090  0.49410  0.59620  1.0000 -0.7658185528
O   O2        1.0  0.17910  0.99410  0.40380  1.0000 -0.7658185528
O   O3        1.0  0.67910  0.50590  0.40380  1.0000 -0.7658185528
O   O4        1.0  0.82090  0.00590  0.59620  1.0000 -0.7658185528
O   O5        1.0  0.49380  0.48480  0.73190  1.0000 -0.7088171856
O   O6        1.0  0.00620  0.98480  0.26810  1.0000 -0.7088171856
O   O7        1.0  0.50620  0.51520  0.26810  1.0000 -0.7088171856
O   O8        1.0  0.99380  0.01520  0.73190  1.0000 -0.7088171856
O   O9        1.0  0.37470  0.43440  0.12960  1.0000 -0.7940870689
O   O10       1.0  0.12530  0.93440  0.87040  1.0000 -0.7940870689
O   O11       1.0  0.62530  0.56560  0.87040  1.0000 -0.7940870689
O   O12       1.0  0.87470  0.06560  0.12960  1.0000 -0.7940870689
O   O13       1.0  0.21950  0.49540  0.03600  1.0000 -0.7088171856
O   O14       1.0  0.28050  0.99540  0.96400  1.0000 -0.7088171856
O   O15       1.0  0.78050  0.50460  0.96400  1.0000 -0.7088171856
O   O16       1.0  0.71950  0.00460  0.03600  1.0000 -0.7088171856
O   O17       1.0  0.15480  0.52480  0.60930  1.0000 -0.0422332316
O   O18       1.0  0.34520  0.02480  0.39070  1.0000 -0.0486545952
O   O19       1.0  0.84520  0.47520  0.39070  1.0000 -0.0422332316
O   O20       1.0  0.65480  0.97520  0.60930  1.0000 -0.0422332316
O   O21       1.0  0.31970  0.32180  0.56240  1.0000 -0.2811029644
O   O22       1.0  0.18030  0.82180  0.43760  1.0000 -0.2873317765
O   O23       1.0  0.68030  0.67820  0.43760  1.0000 -0.2811029644
O   O24       1.0  0.81970  0.17820  0.56240  1.0000 -0.2811029644
O   O25       1.0  0.36980  0.26870  0.19510  1.0000 -0.2612678191
O   O26       1.0  0.13020  0.76870  0.80490  1.0000 -0.271168174
O   O27       1.0  0.63020  0.73130  0.80490  1.0000 -0.2612678191
O   O28       1.0  0.86980  0.23130  0.19510  1.0000 -0.2612678191
O   O29       1.0  0.78360  0.37910  0.14200  1.0000 -0.0486545952
O   O30       1.0  0.71640  0.87910  0.85800  1.0000 -0.0486545952
O   O31       1.0  0.21640  0.62090  0.85800  1.0000 -0.0486545952
O   O32       1.0  0.28360  0.12090  0.14200  1.0000 -0.0486545952
O   O33       1.0  0.48660  0.36250  0.82180  1.0000 -0.2811029644
O   O34       1.0  0.01340  0.86250  0.17820  1.0000 -0.271168174
O   O35       1.0  0.51340  0.63750  0.17820  1.0000 -0.271168174
O   O36       1.0  0.98660  0.13750  0.82180  1.0000 -0.271168174
F   F1        1.0  0.86010  0.52270  0.25160  1.0000 -0.4702803807
F   F2        1.0  0.63990  0.02270  0.74840  1.0000 -0.4702803807
F   F3        1.0  0.13990  0.47730  0.74840  1.0000 -0.4702803807
F   F4        1.0  0.36010  0.97730  0.25160  1.0000 -0.4702803807
F   F5        1.0  0.86580  0.63370  0.18140  1.0000 -0.4636111276
F   F6        1.0  0.63420  0.13370  0.81860  1.0000 -0.4636111276
F   F7        1.0  0.13420  0.36630  0.81860  1.0000 -0.4636111276
F   F8        1.0  0.36580  0.86630  0.18140  1.0000 -0.4636111276
F   F9        1.0  0.85750  0.51630  0.12460  1.0000 -0.2612678191
F   F10       1.0  0.64250  0.01630  0.87540  1.0000 -0.2612678191
F   F11       1.0  0.14250  0.48370  0.87540  1.0000 -0.2612678191
F   F12       1.0  0.35750  0.98370  0.12460  1.0000 -0.2612678191
F   F13       1.0  0.97090  0.57940  0.16180  1.0000 -0.2390839666
F   F14       1.0  0.52910  0.07940  0.83820  1.0000 -0.2341918217
F   F15       1.0  0.02910  0.42060  0.83820  1.0000 -0.2390839666
F   F16       1.0  0.47090  0.92060  0.16180  1.0000 -0.2390839666
F   F17       1.0  0.95830  0.47490  0.22160  1.0000 -0.1595990339
F   F18       1.0  0.54170  0.97490  0.77840  1.0000 -0.1595990339
F   F19       1.0  0.04170  0.52510  0.77840  1.0000 -0.1595990339
F   F20       1.0  0.45830  0.02510  0.22160  1.0000 -0.1595990339
F   F21       1.0  0.96870  0.60200  0.27140  1.0000 -0.4373487698
F   F22       1.0  0.53130  0.10200  0.72860  1.0000 -0.4373487698
F   F23       1.0  0.03130  0.39800  0.72860  1.0000 -0.4373487698
F   F24       1.0  0.46870  0.89800  0.27140  1.0000 -0.4373487698
F   F25       1.0  0.29300  0.76570  0.62730  1.0000 -0.5295031803
F   F26       1.0  0.20700  0.26570  0.37270  1.0000 -0.5295031803
F   F27       1.0  0.70700  0.23430  0.37270  1.0000 -0.5295031803
F   F28       1.0  0.79300  0.73430  0.62730  1.0000 -0.5295031803
F   F29       1.0  0.16400  0.80330  0.59720  1.0000 -0.5187990474
F   F30       1.0  0.33600  0.30330  0.40280  1.0000 -0.5125571457
F   F31       1.0  0.83600  0.19670  0.40280  1.0000 -0.5187990474
F   F32       1.0  0.66400  0.69670  0.59720  1.0000 -0.5125571457
F   F33       1.0  0.19610  0.69470  0.54280  1.0000 -0.4868665205
F   F34       1.0  0.30390  0.19470  0.45720  1.0000 -0.4868665205
F   F35       1.0  0.80390  0.30530  0.45720  1.0000 -0.4868665205
F   F36       1.0  0.69610  0.80530  0.54280  1.0000 -0.4868665205
F   F37       1.0  0.13260  0.68680  0.63010  1.0000 -0.476642141
F   F38       1.0  0.36740  0.18680  0.36990  1.0000 -0.476642141
F   F39       1.0  0.86740  0.31320  0.36990  1.0000 -0.476642141
F   F40       1.0  0.63260  0.81320  0.63010  1.0000 -0.476642141
F   F41       1.0  0.23140  0.75580  0.71790  1.0000 -0.5125571457
F   F42       1.0  0.26860  0.25580  0.28210  1.0000 -0.5125571457
F   F43       1.0  0.76860  0.24420  0.28210  1.0000 -0.5125571457
F   F44       1.0  0.73140  0.74420  0.71790  1.0000 -0.5125571457
F   F45       1.0  0.26090  0.64570  0.66170  1.0000 -0.5295031803
F   F46       1.0  0.23910  0.14570  0.33830  1.0000 -0.5295031803
F   F47       1.0  0.73910  0.35430  0.33830  1.0000 -0.5295031803
F   F48       1.0  0.76090  0.85430  0.66170  1.0000 -0.5295031803
F   F49       1.0  0.90600  0.98900  0.49070  1.0000 -0.5295031803
F   F50       1.0  0.59400  0.48900  0.50930  1.0000 -0.5295031803
F   F51       1.0  0.09400  0.01100  0.50930  1.0000 -0.5295031803
F   F52       1.0  0.40600  0.51100  0.49070  1.0000 -0.5295031803
F   F53       1.0  0.98750  0.09040  0.49430  1.0000 -0.5187990474
F   F54       1.0  0.51250  0.59040  0.50570  1.0000 -0.5187990474
F   F55       1.0  0.01250  0.90960  0.50570  1.0000 -0.5187990474
F   F56       1.0  0.48750  0.40960  0.49430  1.0000 -0.5187990474
F   F57       1.0  0.97760  0.99440  0.40640  1.0000 -0.5295031803
F   F58       1.0  0.52240  0.49440  0.59360  1.0000 -0.5295031803
F   F59       1.0  0.02240  0.00560  0.59360  1.0000 -0.5295031803
F   F60       1.0  0.47760  0.50560  0.40640  1.0000 -0.5295031803
F   F61       1.0  0.04710  0.40350  0.12470  1.0000 -0.4184257255
F   F62       1.0  0.45290  0.90350  0.87530  1.0000 -0.4184257255
F   F63       1.0  0.95290  0.59650  0.87530  1.0000 -0.4184257255
F   F64       1.0  0.54710  0.09650  0.12470  1.0000 -0.4184257255
F   F65       1.0  0.94280  0.34180  0.10590  1.0000 -0.4123161303
F   F66       1.0  0.55720  0.84180  0.89410  1.0000 -0.4123161303
F   F67       1.0  0.05720  0.65820  0.89410  1.0000 -0.4123161303
F   F68       1.0  0.44280  0.15820  0.10590  1.0000 -0.4123161303
F   F69       1.0  0.94330  0.43540  0.02430  1.0000 -0.4373487698
F   F70       1.0  0.55670  0.93540  0.97570  1.0000 -0.4373487698
F   F71       1.0  0.05670  0.56460  0.97570  1.0000 -0.4373487698
F   F72       1.0  0.44330  0.06460  0.02430  1.0000 -0.4373487698
F   F73       1.0  0.87470  0.44940  0.09480  1.0000 -0.1291965114
F   F74       1.0  0.62530  0.94940  0.90520  1.0000 -0.1291965114
F   F75       1.0  0.12530  0.55060  0.90520  1.0000 -0.1291965114
F   F76       1.0  0.37470  0.05060  0.09480  1.0000 -0.1291965114
F   F77       1.0  0.99370  0.51010  0.11940  1.0000 -0.2204057908
F   F78       1.0  0.50630  0.01010  0.88060  1.0000 -0.2204057908
F   F79       1.0  0.00630  0.48990  0.88060  1.0000 -0.2204057908
F   F80       1.0  0.49370  0.98990  0.11940  1.0000 -0.2204057908
F   F81       1.0  0.97830  0.41910  0.20070  1.0000 -0.0199122751
F   F82       1.0  0.52170  0.91910  0.79930  1.0000 -0.0199122751
F   F83       1.0  0.02170  0.58090  0.79930  1.0000 -0.0199122751
F   F84       1.0  0.47830  0.08090  0.20070  1.0000 -0.0199122751
F   F85       1.0  0.98630  0.98230  0.08060  1.0000 -0.476642141
F   F86       1.0  0.01370  0.01770  0.91940  1.0000 -0.476642141
F   F87       1.0  0.95800  0.08150  0.99380  1.0000 -0.5187990474
F   F88       1.0  0.04200  0.91850  0.00620  1.0000 -0.5187990474
F   F89       1.0  0.91490  0.96140  0.95170  1.0000 -0.5295031803
F   F90       1.0  0.08510  0.03860  0.04830  1.0000 -0.5295031803
F   F91       1.0  0.51370  0.48230  0.91940  1.0000 -0.476642141
F   F92       1.0  0.48630  0.51770  0.08060  1.0000 -0.476642141
F   F93       1.0  0.54200  0.58150  0.00620  1.0000 -0.5187990474
F   F94       1.0  0.45800  0.41850  0.99380  1.0000 -0.5187990474
F   F95       1.0  0.58510  0.46140  0.04830  1.0000 -0.5295031803
F   F96       1.0  0.41490  0.53860  0.95170  1.0000 -0.5295031803
