# DDEC6 charges by PACMAN v1.1 (https://github.com/mtap-research/PACMAN-charge/)
data_2009[MgIn][rho]3[ION]1
_chemical_formula_sum              "Mg24 In48 H384 C480 N192 O528"
_cell_length_a       30.984
_cell_length_b       30.984
_cell_length_c       30.984
_cell_angle_alpha    90
_cell_angle_beta     90
_cell_angle_gamma    90

_symmetry_space_group_name_H-M    "P 1"
_symmetry_Int_Tables_number       1

loop_
  _symmetry_equiv_pos_as_xyz
  'x, y, z'

loop_
  _atom_site_type_symbol
  _atom_site_label
  _atom_site_symmetry_multiplicity
  _atom_site_fract_x
  _atom_site_fract_y
  _atom_site_fract_z
  _atom_site_occupancy
  _atom_site_charge
Mg  Mg1       1.0  0.17470  0.00000  0.17470  1.0000 1.3632122844
Mg  Mg2       1.0  0.82530  0.00000  0.17470  1.0000 1.3632122844
Mg  Mg3       1.0  0.82530  0.00000  0.82530  1.0000 1.3632122844
Mg  Mg4       1.0  0.17470  0.00000  0.82530  1.0000 1.3632122844
Mg  Mg5       1.0  0.17470  0.17470  0.00000  1.0000 1.3632122844
Mg  Mg6       1.0  0.17470  0.82530  0.00000  1.0000 1.3632122844
Mg  Mg7       1.0  0.82530  0.82530  0.00000  1.0000 1.3632122844
Mg  Mg8       1.0  0.82530  0.17470  0.00000  1.0000 1.3632122844
Mg  Mg9       1.0  0.00000  0.17470  0.17470  1.0000 1.3632122844
Mg  Mg10      1.0  0.00000  0.17470  0.82530  1.0000 1.3632122844
Mg  Mg11      1.0  0.00000  0.82530  0.82530  1.0000 1.3632122844
Mg  Mg12      1.0  0.00000  0.82530  0.17470  1.0000 1.3632122844
Mg  Mg13      1.0  0.67470  0.50000  0.67470  1.0000 1.3632122844
Mg  Mg14      1.0  0.32530  0.50000  0.67470  1.0000 1.3632122844
Mg  Mg15      1.0  0.32530  0.50000  0.32530  1.0000 1.3632122844
Mg  Mg16      1.0  0.67470  0.50000  0.32530  1.0000 1.3632122844
Mg  Mg17      1.0  0.67470  0.67470  0.50000  1.0000 1.3632122844
Mg  Mg18      1.0  0.67470  0.32530  0.50000  1.0000 1.3632122844
Mg  Mg19      1.0  0.32530  0.32530  0.50000  1.0000 1.3632122844
Mg  Mg20      1.0  0.32530  0.67470  0.50000  1.0000 1.3632122844
Mg  Mg21      1.0  0.50000  0.67470  0.67470  1.0000 1.3632122844
Mg  Mg22      1.0  0.50000  0.67470  0.32530  1.0000 1.3632122844
Mg  Mg23      1.0  0.50000  0.32530  0.32530  1.0000 1.3632122844
Mg  Mg24      1.0  0.50000  0.32530  0.67470  1.0000 1.3632122844
In  In1       1.0  0.25000  0.60506  0.10506  1.0000 1.0734277834
In  In2       1.0  0.75000  0.39494  0.10506  1.0000 1.0734277834
In  In3       1.0  0.75000  0.60506  0.89494  1.0000 1.0734277834
In  In4       1.0  0.25000  0.39494  0.89494  1.0000 1.0734277834
In  In5       1.0  0.10506  0.25000  0.60506  1.0000 1.0734277834
In  In6       1.0  0.10506  0.75000  0.39494  1.0000 1.0734277834
In  In7       1.0  0.89494  0.75000  0.60506  1.0000 1.0734277834
In  In8       1.0  0.89494  0.25000  0.39494  1.0000 1.0734277834
In  In9       1.0  0.60506  0.10506  0.25000  1.0000 1.0734277834
In  In10      1.0  0.39494  0.10506  0.75000  1.0000 1.0734277834
In  In11      1.0  0.60506  0.89494  0.75000  1.0000 1.0734277834
In  In12      1.0  0.39494  0.89494  0.25000  1.0000 1.0734277834
In  In13      1.0  0.60506  0.25000  0.89494  1.0000 1.0734277834
In  In14      1.0  0.39494  0.75000  0.89494  1.0000 1.0734277834
In  In15      1.0  0.60506  0.75000  0.10506  1.0000 1.0734277834
In  In16      1.0  0.39494  0.25000  0.10506  1.0000 1.0734277834
In  In17      1.0  0.25000  0.10506  0.39494  1.0000 1.0734277834
In  In18      1.0  0.75000  0.10506  0.60506  1.0000 1.0734277834
In  In19      1.0  0.75000  0.89494  0.39494  1.0000 1.0734277834
In  In20      1.0  0.25000  0.89494  0.60506  1.0000 1.0734277834
In  In21      1.0  0.10506  0.60506  0.75000  1.0000 1.0734277834
In  In22      1.0  0.10506  0.39494  0.25000  1.0000 1.0734277834
In  In23      1.0  0.89494  0.60506  0.25000  1.0000 1.0734277834
In  In24      1.0  0.89494  0.39494  0.75000  1.0000 1.0734277834
In  In25      1.0  0.75000  0.39494  0.89494  1.0000 1.0734277834
In  In26      1.0  0.25000  0.60506  0.89494  1.0000 1.0734277834
In  In27      1.0  0.25000  0.39494  0.10506  1.0000 1.0734277834
In  In28      1.0  0.75000  0.60506  0.10506  1.0000 1.0734277834
In  In29      1.0  0.89494  0.75000  0.39494  1.0000 1.0734277834
In  In30      1.0  0.89494  0.25000  0.60506  1.0000 1.0734277834
In  In31      1.0  0.10506  0.25000  0.39494  1.0000 1.0734277834
In  In32      1.0  0.10506  0.75000  0.60506  1.0000 1.0734277834
In  In33      1.0  0.39494  0.89494  0.75000  1.0000 1.0734277834
In  In34      1.0  0.60506  0.89494  0.25000  1.0000 1.0734277834
In  In35      1.0  0.39494  0.10506  0.25000  1.0000 1.0734277834
In  In36      1.0  0.60506  0.10506  0.75000  1.0000 1.0734277834
In  In37      1.0  0.39494  0.75000  0.10506  1.0000 1.0734277834
In  In38      1.0  0.60506  0.25000  0.10506  1.0000 1.0734277834
In  In39      1.0  0.39494  0.25000  0.89494  1.0000 1.0734277834
In  In40      1.0  0.60506  0.75000  0.89494  1.0000 1.0734277834
In  In41      1.0  0.75000  0.89494  0.60506  1.0000 1.0734277834
In  In42      1.0  0.25000  0.89494  0.39494  1.0000 1.0734277834
In  In43      1.0  0.25000  0.10506  0.60506  1.0000 1.0734277834
In  In44      1.0  0.75000  0.10506  0.39494  1.0000 1.0734277834
In  In45      1.0  0.89494  0.39494  0.25000  1.0000 1.0734277834
In  In46      1.0  0.89494  0.60506  0.75000  1.0000 1.0734277834
In  In47      1.0  0.10506  0.39494  0.75000  1.0000 1.0734277834
In  In48      1.0  0.10506  0.60506  0.25000  1.0000 1.0734277834
H   H1        1.0  0.15206  0.07648  0.18766  1.0000 0.4263081802
H   H2        1.0  0.84794  0.92352  0.18766  1.0000 0.4263081802
H   H3        1.0  0.84794  0.07648  0.81234  1.0000 0.4263081802
H   H4        1.0  0.15206  0.92352  0.81234  1.0000 0.4263081802
H   H5        1.0  0.18766  0.15206  0.07648  1.0000 0.4263081802
H   H6        1.0  0.18766  0.84794  0.92352  1.0000 0.4263081802
H   H7        1.0  0.81234  0.84794  0.07648  1.0000 0.4263081802
H   H8        1.0  0.81234  0.15206  0.92352  1.0000 0.4263081802
H   H9        1.0  0.07648  0.18766  0.15206  1.0000 0.4263081802
H   H10       1.0  0.92352  0.18766  0.84794  1.0000 0.4263081802
H   H11       1.0  0.07648  0.81234  0.84794  1.0000 0.4263081802
H   H12       1.0  0.92352  0.81234  0.15206  1.0000 0.4263081802
H   H13       1.0  0.07648  0.15206  0.81234  1.0000 0.4263081802
H   H14       1.0  0.92352  0.84794  0.81234  1.0000 0.4263081802
H   H15       1.0  0.07648  0.84794  0.18766  1.0000 0.4263081802
H   H16       1.0  0.92352  0.15206  0.18766  1.0000 0.4263081802
H   H17       1.0  0.15206  0.18766  0.92352  1.0000 0.4263081802
H   H18       1.0  0.84794  0.18766  0.07648  1.0000 0.4263081802
H   H19       1.0  0.84794  0.81234  0.92352  1.0000 0.4263081802
H   H20       1.0  0.15206  0.81234  0.07648  1.0000 0.4263081802
H   H21       1.0  0.18766  0.07648  0.84794  1.0000 0.4263081802
H   H22       1.0  0.18766  0.92352  0.15206  1.0000 0.4263081802
H   H23       1.0  0.81234  0.07648  0.15206  1.0000 0.4263081802
H   H24       1.0  0.81234  0.92352  0.84794  1.0000 0.4263081802
H   H25       1.0  0.84794  0.92352  0.81234  1.0000 0.4263081802
H   H26       1.0  0.15206  0.07648  0.81234  1.0000 0.4263081802
H   H27       1.0  0.15206  0.92352  0.18766  1.0000 0.4263081802
H   H28       1.0  0.84794  0.07648  0.18766  1.0000 0.4263081802
H   H29       1.0  0.81234  0.84794  0.92352  1.0000 0.4263081802
H   H30       1.0  0.81234  0.15206  0.07648  1.0000 0.4263081802
H   H31       1.0  0.18766  0.15206  0.92352  1.0000 0.4263081802
H   H32       1.0  0.18766  0.84794  0.07648  1.0000 0.4263081802
H   H33       1.0  0.92352  0.81234  0.84794  1.0000 0.4263081802
H   H34       1.0  0.07648  0.81234  0.15206  1.0000 0.4263081802
H   H35       1.0  0.92352  0.18766  0.15206  1.0000 0.4263081802
H   H36       1.0  0.07648  0.18766  0.84794  1.0000 0.4263081802
H   H37       1.0  0.92352  0.84794  0.18766  1.0000 0.4263081802
H   H38       1.0  0.07648  0.15206  0.18766  1.0000 0.4263081802
H   H39       1.0  0.92352  0.15206  0.81234  1.0000 0.4263081802
H   H40       1.0  0.07648  0.84794  0.81234  1.0000 0.4263081802
H   H41       1.0  0.84794  0.81234  0.07648  1.0000 0.4263081802
H   H42       1.0  0.15206  0.81234  0.92352  1.0000 0.4263081802
H   H43       1.0  0.15206  0.18766  0.07648  1.0000 0.4263081802
H   H44       1.0  0.84794  0.18766  0.92352  1.0000 0.4263081802
H   H45       1.0  0.81234  0.92352  0.15206  1.0000 0.4263081802
H   H46       1.0  0.81234  0.07648  0.84794  1.0000 0.4263081802
H   H47       1.0  0.18766  0.92352  0.84794  1.0000 0.4263081802
H   H48       1.0  0.18766  0.07648  0.15206  1.0000 0.4263081802
H   H49       1.0  0.65206  0.57648  0.68766  1.0000 0.4263081802
H   H50       1.0  0.34794  0.42352  0.68766  1.0000 0.4263081802
H   H51       1.0  0.34794  0.57648  0.31234  1.0000 0.4263081802
H   H52       1.0  0.65206  0.42352  0.31234  1.0000 0.4263081802
H   H53       1.0  0.68766  0.65206  0.57648  1.0000 0.4263081802
H   H54       1.0  0.68766  0.34794  0.42352  1.0000 0.4263081802
H   H55       1.0  0.31234  0.34794  0.57648  1.0000 0.4263081802
H   H56       1.0  0.31234  0.65206  0.42352  1.0000 0.4263081802
H   H57       1.0  0.57648  0.68766  0.65206  1.0000 0.4263081802
H   H58       1.0  0.42352  0.68766  0.34794  1.0000 0.4263081802
H   H59       1.0  0.57648  0.31234  0.34794  1.0000 0.4263081802
H   H60       1.0  0.42352  0.31234  0.65206  1.0000 0.4263081802
H   H61       1.0  0.57648  0.65206  0.31234  1.0000 0.4263081802
H   H62       1.0  0.42352  0.34794  0.31234  1.0000 0.4263081802
H   H63       1.0  0.57648  0.34794  0.68766  1.0000 0.4263081802
H   H64       1.0  0.42352  0.65206  0.68766  1.0000 0.4263081802
H   H65       1.0  0.65206  0.68766  0.42352  1.0000 0.4263081802
H   H66       1.0  0.34794  0.68766  0.57648  1.0000 0.4263081802
H   H67       1.0  0.34794  0.31234  0.42352  1.0000 0.4263081802
H   H68       1.0  0.65206  0.31234  0.57648  1.0000 0.4263081802
H   H69       1.0  0.68766  0.57648  0.34794  1.0000 0.4263081802
H   H70       1.0  0.68766  0.42352  0.65206  1.0000 0.4263081802
H   H71       1.0  0.31234  0.57648  0.65206  1.0000 0.4263081802
H   H72       1.0  0.31234  0.42352  0.34794  1.0000 0.4263081802
H   H73       1.0  0.34794  0.42352  0.31234  1.0000 0.4263081802
H   H74       1.0  0.65206  0.57648  0.31234  1.0000 0.4263081802
H   H75       1.0  0.65206  0.42352  0.68766  1.0000 0.4263081802
H   H76       1.0  0.34794  0.57648  0.68766  1.0000 0.4263081802
H   H77       1.0  0.31234  0.34794  0.42352  1.0000 0.4263081802
H   H78       1.0  0.31234  0.65206  0.57648  1.0000 0.4263081802
H   H79       1.0  0.68766  0.65206  0.42352  1.0000 0.4263081802
H   H80       1.0  0.68766  0.34794  0.57648  1.0000 0.4263081802
H   H81       1.0  0.42352  0.31234  0.34794  1.0000 0.4263081802
H   H82       1.0  0.57648  0.31234  0.65206  1.0000 0.4263081802
H   H83       1.0  0.42352  0.68766  0.65206  1.0000 0.4263081802
H   H84       1.0  0.57648  0.68766  0.34794  1.0000 0.4263081802
H   H85       1.0  0.42352  0.34794  0.68766  1.0000 0.4263081802
H   H86       1.0  0.57648  0.65206  0.68766  1.0000 0.4263081802
H   H87       1.0  0.42352  0.65206  0.31234  1.0000 0.4263081802
H   H88       1.0  0.57648  0.34794  0.31234  1.0000 0.4263081802
H   H89       1.0  0.34794  0.31234  0.57648  1.0000 0.4263081802
H   H90       1.0  0.65206  0.31234  0.42352  1.0000 0.4263081802
H   H91       1.0  0.65206  0.68766  0.57648  1.0000 0.4263081802
H   H92       1.0  0.34794  0.68766  0.42352  1.0000 0.4263081802
H   H93       1.0  0.31234  0.42352  0.65206  1.0000 0.4263081802
H   H94       1.0  0.31234  0.57648  0.34794  1.0000 0.4263081802
H   H95       1.0  0.68766  0.42352  0.34794  1.0000 0.4263081802
H   H96       1.0  0.68766  0.57648  0.65206  1.0000 0.4263081802
H   H97       1.0  0.31552  0.52518  0.40123  1.0000 0.3856944793
H   H98       1.0  0.68448  0.47482  0.40123  1.0000 0.3856944793
H   H99       1.0  0.68448  0.52518  0.59877  1.0000 0.3856944793
H   H100      1.0  0.31552  0.47482  0.59877  1.0000 0.3856944793
H   H101      1.0  0.40123  0.31552  0.52518  1.0000 0.3856944793
H   H102      1.0  0.40123  0.68448  0.47482  1.0000 0.3856944793
H   H103      1.0  0.59877  0.68448  0.52518  1.0000 0.3856944793
H   H104      1.0  0.59877  0.31552  0.47482  1.0000 0.3856944793
H   H105      1.0  0.52518  0.40123  0.31552  1.0000 0.3856944793
H   H106      1.0  0.47482  0.40123  0.68448  1.0000 0.3856944793
H   H107      1.0  0.52518  0.59877  0.68448  1.0000 0.3856944793
H   H108      1.0  0.47482  0.59877  0.31552  1.0000 0.3856944793
H   H109      1.0  0.52518  0.31552  0.59877  1.0000 0.3856944793
H   H110      1.0  0.47482  0.68448  0.59877  1.0000 0.3856944793
H   H111      1.0  0.52518  0.68448  0.40123  1.0000 0.3856944793
H   H112      1.0  0.47482  0.31552  0.40123  1.0000 0.3856944793
H   H113      1.0  0.31552  0.40123  0.47482  1.0000 0.3856944793
H   H114      1.0  0.68448  0.40123  0.52518  1.0000 0.3856944793
H   H115      1.0  0.68448  0.59877  0.47482  1.0000 0.3856944793
H   H116      1.0  0.31552  0.59877  0.52518  1.0000 0.3856944793
H   H117      1.0  0.40123  0.52518  0.68448  1.0000 0.3856944793
H   H118      1.0  0.40123  0.47482  0.31552  1.0000 0.3856944793
H   H119      1.0  0.59877  0.52518  0.31552  1.0000 0.3856944793
H   H120      1.0  0.59877  0.47482  0.68448  1.0000 0.3856944793
H   H121      1.0  0.68448  0.47482  0.59877  1.0000 0.3856944793
H   H122      1.0  0.31552  0.52518  0.59877  1.0000 0.3856944793
H   H123      1.0  0.31552  0.47482  0.40123  1.0000 0.3856944793
H   H124      1.0  0.68448  0.52518  0.40123  1.0000 0.3856944793
H   H125      1.0  0.59877  0.68448  0.47482  1.0000 0.3856944793
H   H126      1.0  0.59877  0.31552  0.52518  1.0000 0.3856944793
H   H127      1.0  0.40123  0.31552  0.47482  1.0000 0.3856944793
H   H128      1.0  0.40123  0.68448  0.52518  1.0000 0.3856944793
H   H129      1.0  0.47482  0.59877  0.68448  1.0000 0.3856944793
H   H130      1.0  0.52518  0.59877  0.31552  1.0000 0.3856944793
H   H131      1.0  0.47482  0.40123  0.31552  1.0000 0.3856944793
H   H132      1.0  0.52518  0.40123  0.68448  1.0000 0.3856944793
H   H133      1.0  0.47482  0.68448  0.40123  1.0000 0.3856944793
H   H134      1.0  0.52518  0.31552  0.40123  1.0000 0.3856944793
H   H135      1.0  0.47482  0.31552  0.59877  1.0000 0.3856944793
H   H136      1.0  0.52518  0.68448  0.59877  1.0000 0.3856944793
H   H137      1.0  0.68448  0.59877  0.52518  1.0000 0.3856944793
H   H138      1.0  0.31552  0.59877  0.47482  1.0000 0.3856944793
H   H139      1.0  0.31552  0.40123  0.52518  1.0000 0.3856944793
H   H140      1.0  0.68448  0.40123  0.47482  1.0000 0.3856944793
H   H141      1.0  0.59877  0.47482  0.31552  1.0000 0.3856944793
H   H142      1.0  0.59877  0.52518  0.68448  1.0000 0.3856944793
H   H143      1.0  0.40123  0.47482  0.68448  1.0000 0.3856944793
H   H144      1.0  0.40123  0.52518  0.31552  1.0000 0.3856944793
H   H145      1.0  0.81552  0.02518  0.90123  1.0000 0.3834772412
H   H146      1.0  0.18448  0.97482  0.90123  1.0000 0.3834772412
H   H147      1.0  0.18448  0.02518  0.09877  1.0000 0.3834772412
H   H148      1.0  0.81552  0.97482  0.09877  1.0000 0.3834772412
H   H149      1.0  0.90123  0.81552  0.02518  1.0000 0.3834772412
H   H150      1.0  0.90123  0.18448  0.97482  1.0000 0.3856944793
H   H151      1.0  0.09877  0.18448  0.02518  1.0000 0.3834772412
H   H152      1.0  0.09877  0.81552  0.97482  1.0000 0.3834772412
H   H153      1.0  0.02518  0.90123  0.81552  1.0000 0.3834772412
H   H154      1.0  0.97482  0.90123  0.18448  1.0000 0.3856944793
H   H155      1.0  0.02518  0.09877  0.18448  1.0000 0.3834772412
H   H156      1.0  0.97482  0.09877  0.81552  1.0000 0.3834772412
H   H157      1.0  0.02518  0.81552  0.09877  1.0000 0.3834772412
H   H158      1.0  0.97482  0.18448  0.09877  1.0000 0.3834772412
H   H159      1.0  0.02518  0.18448  0.90123  1.0000 0.3834772412
H   H160      1.0  0.97482  0.81552  0.90123  1.0000 0.3834772412
H   H161      1.0  0.81552  0.90123  0.97482  1.0000 0.3834772412
H   H162      1.0  0.18448  0.90123  0.02518  1.0000 0.3834772412
H   H163      1.0  0.18448  0.09877  0.97482  1.0000 0.3834772412
H   H164      1.0  0.81552  0.09877  0.02518  1.0000 0.3834772412
H   H165      1.0  0.90123  0.02518  0.18448  1.0000 0.3856944793
H   H166      1.0  0.90123  0.97482  0.81552  1.0000 0.3834772412
H   H167      1.0  0.09877  0.02518  0.81552  1.0000 0.3834772412
H   H168      1.0  0.09877  0.97482  0.18448  1.0000 0.3834772412
H   H169      1.0  0.18448  0.97482  0.09877  1.0000 0.3834772412
H   H170      1.0  0.81552  0.02518  0.09877  1.0000 0.3834772412
H   H171      1.0  0.81552  0.97482  0.90123  1.0000 0.3834772412
H   H172      1.0  0.18448  0.02518  0.90123  1.0000 0.3834772412
H   H173      1.0  0.09877  0.18448  0.97482  1.0000 0.3834772412
H   H174      1.0  0.09877  0.81552  0.02518  1.0000 0.3834772412
H   H175      1.0  0.90123  0.81552  0.97482  1.0000 0.3834772412
H   H176      1.0  0.90123  0.18448  0.02518  1.0000 0.3856944793
H   H177      1.0  0.97482  0.09877  0.18448  1.0000 0.3834772412
H   H178      1.0  0.02518  0.09877  0.81552  1.0000 0.3834772412
H   H179      1.0  0.97482  0.90123  0.81552  1.0000 0.3834772412
H   H180      1.0  0.02518  0.90123  0.18448  1.0000 0.3834772412
H   H181      1.0  0.97482  0.18448  0.90123  1.0000 0.3856944793
H   H182      1.0  0.02518  0.81552  0.90123  1.0000 0.3834772412
H   H183      1.0  0.97482  0.81552  0.09877  1.0000 0.3834772412
H   H184      1.0  0.02518  0.18448  0.09877  1.0000 0.3834772412
H   H185      1.0  0.18448  0.09877  0.02518  1.0000 0.3834772412
H   H186      1.0  0.81552  0.09877  0.97482  1.0000 0.3834772412
H   H187      1.0  0.81552  0.90123  0.02518  1.0000 0.3834772412
H   H188      1.0  0.18448  0.90123  0.97482  1.0000 0.3856944793
H   H189      1.0  0.09877  0.97482  0.81552  1.0000 0.3834772412
H   H190      1.0  0.09877  0.02518  0.18448  1.0000 0.3834772412
H   H191      1.0  0.90123  0.97482  0.18448  1.0000 0.3856944793
H   H192      1.0  0.90123  0.02518  0.81552  1.0000 0.3834772412
H   H193      1.0  0.25255  0.52518  0.34913  1.0000 0.4263081802
H   H194      1.0  0.74745  0.47482  0.34913  1.0000 0.4263081802
H   H195      1.0  0.74745  0.52518  0.65087  1.0000 0.4263081802
H   H196      1.0  0.25255  0.47482  0.65087  1.0000 0.4263081802
H   H197      1.0  0.34913  0.25255  0.52518  1.0000 0.4263081802
H   H198      1.0  0.34913  0.74745  0.47482  1.0000 0.4263081802
H   H199      1.0  0.65087  0.74745  0.52518  1.0000 0.4263081802
H   H200      1.0  0.65087  0.25255  0.47482  1.0000 0.4263081802
H   H201      1.0  0.52518  0.34913  0.25255  1.0000 0.4263081802
H   H202      1.0  0.47482  0.34913  0.74745  1.0000 0.4263081802
H   H203      1.0  0.52518  0.65087  0.74745  1.0000 0.4263081802
H   H204      1.0  0.47482  0.65087  0.25255  1.0000 0.4263081802
H   H205      1.0  0.52518  0.25255  0.65087  1.0000 0.4263081802
H   H206      1.0  0.47482  0.74745  0.65087  1.0000 0.4263081802
H   H207      1.0  0.52518  0.74745  0.34913  1.0000 0.4263081802
H   H208      1.0  0.47482  0.25255  0.34913  1.0000 0.4263081802
H   H209      1.0  0.25255  0.34913  0.47482  1.0000 0.4263081802
H   H210      1.0  0.74745  0.34913  0.52518  1.0000 0.4263081802
H   H211      1.0  0.74745  0.65087  0.47482  1.0000 0.4263081802
H   H212      1.0  0.25255  0.65087  0.52518  1.0000 0.4263081802
H   H213      1.0  0.34913  0.52518  0.74745  1.0000 0.4263081802
H   H214      1.0  0.34913  0.47482  0.25255  1.0000 0.4263081802
H   H215      1.0  0.65087  0.52518  0.25255  1.0000 0.4263081802
H   H216      1.0  0.65087  0.47482  0.74745  1.0000 0.4263081802
H   H217      1.0  0.74745  0.47482  0.65087  1.0000 0.4263081802
H   H218      1.0  0.25255  0.52518  0.65087  1.0000 0.4263081802
H   H219      1.0  0.25255  0.47482  0.34913  1.0000 0.4263081802
H   H220      1.0  0.74745  0.52518  0.34913  1.0000 0.4263081802
H   H221      1.0  0.65087  0.74745  0.47482  1.0000 0.4263081802
H   H222      1.0  0.65087  0.25255  0.52518  1.0000 0.4263081802
H   H223      1.0  0.34913  0.25255  0.47482  1.0000 0.4263081802
H   H224      1.0  0.34913  0.74745  0.52518  1.0000 0.4263081802
H   H225      1.0  0.47482  0.65087  0.74745  1.0000 0.4263081802
H   H226      1.0  0.52518  0.65087  0.25255  1.0000 0.4263081802
H   H227      1.0  0.47482  0.34913  0.25255  1.0000 0.4263081802
H   H228      1.0  0.52518  0.34913  0.74745  1.0000 0.4263081802
H   H229      1.0  0.47482  0.74745  0.34913  1.0000 0.4263081802
H   H230      1.0  0.52518  0.25255  0.34913  1.0000 0.4263081802
H   H231      1.0  0.47482  0.25255  0.65087  1.0000 0.4263081802
H   H232      1.0  0.52518  0.74745  0.65087  1.0000 0.4263081802
H   H233      1.0  0.74745  0.65087  0.52518  1.0000 0.4263081802
H   H234      1.0  0.25255  0.65087  0.47482  1.0000 0.4263081802
H   H235      1.0  0.25255  0.34913  0.52518  1.0000 0.4263081802
H   H236      1.0  0.74745  0.34913  0.47482  1.0000 0.4263081802
H   H237      1.0  0.65087  0.47482  0.25255  1.0000 0.4263081802
H   H238      1.0  0.65087  0.52518  0.74745  1.0000 0.4263081802
H   H239      1.0  0.34913  0.47482  0.74745  1.0000 0.4263081802
H   H240      1.0  0.34913  0.52518  0.25255  1.0000 0.4263081802
H   H241      1.0  0.75255  0.02518  0.84913  1.0000 0.4263081802
H   H242      1.0  0.24745  0.97482  0.84913  1.0000 0.4263081802
H   H243      1.0  0.24745  0.02518  0.15087  1.0000 0.4263081802
H   H244      1.0  0.75255  0.97482  0.15087  1.0000 0.4263081802
H   H245      1.0  0.84913  0.75255  0.02518  1.0000 0.4263081802
H   H246      1.0  0.84913  0.24745  0.97482  1.0000 0.4263081802
H   H247      1.0  0.15087  0.24745  0.02518  1.0000 0.4263081802
H   H248      1.0  0.15087  0.75255  0.97482  1.0000 0.4263081802
H   H249      1.0  0.02518  0.84913  0.75255  1.0000 0.4263081802
H   H250      1.0  0.97482  0.84913  0.24745  1.0000 0.4263081802
H   H251      1.0  0.02518  0.15087  0.24745  1.0000 0.4263081802
H   H252      1.0  0.97482  0.15087  0.75255  1.0000 0.4263081802
H   H253      1.0  0.02518  0.75255  0.15087  1.0000 0.4263081802
H   H254      1.0  0.97482  0.24745  0.15087  1.0000 0.4263081802
H   H255      1.0  0.02518  0.24745  0.84913  1.0000 0.4263081802
H   H256      1.0  0.97482  0.75255  0.84913  1.0000 0.4263081802
H   H257      1.0  0.75255  0.84913  0.97482  1.0000 0.4263081802
H   H258      1.0  0.24745  0.84913  0.02518  1.0000 0.4263081802
H   H259      1.0  0.24745  0.15087  0.97482  1.0000 0.4263081802
H   H260      1.0  0.75255  0.15087  0.02518  1.0000 0.4263081802
H   H261      1.0  0.84913  0.02518  0.24745  1.0000 0.4263081802
H   H262      1.0  0.84913  0.97482  0.75255  1.0000 0.4263081802
H   H263      1.0  0.15087  0.02518  0.75255  1.0000 0.4263081802
H   H264      1.0  0.15087  0.97482  0.24745  1.0000 0.4263081802
H   H265      1.0  0.24745  0.97482  0.15087  1.0000 0.4263081802
H   H266      1.0  0.75255  0.02518  0.15087  1.0000 0.4263081802
H   H267      1.0  0.75255  0.97482  0.84913  1.0000 0.4263081802
H   H268      1.0  0.24745  0.02518  0.84913  1.0000 0.4263081802
H   H269      1.0  0.15087  0.24745  0.97482  1.0000 0.4263081802
H   H270      1.0  0.15087  0.75255  0.02518  1.0000 0.4263081802
H   H271      1.0  0.84913  0.75255  0.97482  1.0000 0.4263081802
H   H272      1.0  0.84913  0.24745  0.02518  1.0000 0.4263081802
H   H273      1.0  0.97482  0.15087  0.24745  1.0000 0.4263081802
H   H274      1.0  0.02518  0.15087  0.75255  1.0000 0.4263081802
H   H275      1.0  0.97482  0.84913  0.75255  1.0000 0.4263081802
H   H276      1.0  0.02518  0.84913  0.24745  1.0000 0.4263081802
H   H277      1.0  0.97482  0.24745  0.84913  1.0000 0.4263081802
H   H278      1.0  0.02518  0.75255  0.84913  1.0000 0.4263081802
H   H279      1.0  0.97482  0.75255  0.15087  1.0000 0.4263081802
H   H280      1.0  0.02518  0.24745  0.15087  1.0000 0.4263081802
H   H281      1.0  0.24745  0.15087  0.02518  1.0000 0.4263081802
H   H282      1.0  0.75255  0.15087  0.97482  1.0000 0.4263081802
H   H283      1.0  0.75255  0.84913  0.02518  1.0000 0.4263081802
H   H284      1.0  0.24745  0.84913  0.97482  1.0000 0.4263081802
H   H285      1.0  0.15087  0.97482  0.75255  1.0000 0.4263081802
H   H286      1.0  0.15087  0.02518  0.24745  1.0000 0.4263081802
H   H287      1.0  0.84913  0.97482  0.24745  1.0000 0.4263081802
H   H288      1.0  0.84913  0.02518  0.75255  1.0000 0.4263081802
H   H289      1.0  0.19328  0.58704  0.19328  1.0000 0.0952643387
H   H290      1.0  0.80672  0.41296  0.19328  1.0000 0.0952643387
H   H291      1.0  0.80672  0.58704  0.80672  1.0000 0.0952643387
H   H292      1.0  0.19328  0.41296  0.80672  1.0000 0.0952643387
H   H293      1.0  0.19328  0.19328  0.58704  1.0000 0.0952643387
H   H294      1.0  0.19328  0.80672  0.41296  1.0000 0.0952643387
H   H295      1.0  0.80672  0.80672  0.58704  1.0000 0.0952643387
H   H296      1.0  0.80672  0.19328  0.41296  1.0000 0.0952643387
H   H297      1.0  0.58704  0.19328  0.19328  1.0000 0.0952643387
H   H298      1.0  0.41296  0.19328  0.80672  1.0000 0.0952643387
H   H299      1.0  0.58704  0.80672  0.80672  1.0000 0.0952643387
H   H300      1.0  0.41296  0.80672  0.19328  1.0000 0.0952643387
H   H301      1.0  0.58704  0.19328  0.80672  1.0000 0.0952643387
H   H302      1.0  0.41296  0.80672  0.80672  1.0000 0.0952643387
H   H303      1.0  0.58704  0.80672  0.19328  1.0000 0.0952643387
H   H304      1.0  0.41296  0.19328  0.19328  1.0000 0.0952643387
H   H305      1.0  0.19328  0.19328  0.41296  1.0000 0.0952643387
H   H306      1.0  0.80672  0.19328  0.58704  1.0000 0.0952643387
H   H307      1.0  0.80672  0.80672  0.41296  1.0000 0.0952643387
H   H308      1.0  0.19328  0.80672  0.58704  1.0000 0.0952643387
H   H309      1.0  0.19328  0.58704  0.80672  1.0000 0.0952643387
H   H310      1.0  0.19328  0.41296  0.19328  1.0000 0.0952643387
H   H311      1.0  0.80672  0.58704  0.19328  1.0000 0.0952643387
H   H312      1.0  0.80672  0.41296  0.80672  1.0000 0.0952643387
H   H313      1.0  0.69328  0.08704  0.69328  1.0000 0.0952643387
H   H314      1.0  0.30672  0.91296  0.69328  1.0000 0.0952643387
H   H315      1.0  0.30672  0.08704  0.30672  1.0000 0.0952643387
H   H316      1.0  0.69328  0.91296  0.30672  1.0000 0.0952643387
H   H317      1.0  0.69328  0.69328  0.08704  1.0000 0.0952643387
H   H318      1.0  0.69328  0.30672  0.91296  1.0000 0.0952643387
H   H319      1.0  0.30672  0.30672  0.08704  1.0000 0.0952643387
H   H320      1.0  0.30672  0.69328  0.91296  1.0000 0.0952643387
H   H321      1.0  0.08704  0.69328  0.69328  1.0000 0.0952643387
H   H322      1.0  0.91296  0.69328  0.30672  1.0000 0.0952643387
H   H323      1.0  0.08704  0.30672  0.30672  1.0000 0.0952643387
H   H324      1.0  0.91296  0.30672  0.69328  1.0000 0.0952643387
H   H325      1.0  0.08704  0.69328  0.30672  1.0000 0.0952643387
H   H326      1.0  0.91296  0.30672  0.30672  1.0000 0.0952643387
H   H327      1.0  0.08704  0.30672  0.69328  1.0000 0.0952643387
H   H328      1.0  0.91296  0.69328  0.69328  1.0000 0.0952643387
H   H329      1.0  0.69328  0.69328  0.91296  1.0000 0.0952643387
H   H330      1.0  0.30672  0.69328  0.08704  1.0000 0.0952643387
H   H331      1.0  0.30672  0.30672  0.91296  1.0000 0.0952643387
H   H332      1.0  0.69328  0.30672  0.08704  1.0000 0.0952643387
H   H333      1.0  0.69328  0.08704  0.30672  1.0000 0.0952643387
H   H334      1.0  0.69328  0.91296  0.69328  1.0000 0.0952643387
H   H335      1.0  0.30672  0.08704  0.69328  1.0000 0.0952643387
H   H336      1.0  0.30672  0.91296  0.30672  1.0000 0.0952643387
H   H337      1.0  0.28484  0.50000  0.12936  1.0000 0.116435654
H   H338      1.0  0.71516  0.50000  0.12936  1.0000 0.116435654
H   H339      1.0  0.71516  0.50000  0.87064  1.0000 0.116435654
H   H340      1.0  0.28484  0.50000  0.87064  1.0000 0.116435654
H   H341      1.0  0.12936  0.28484  0.50000  1.0000 0.116435654
H   H342      1.0  0.12936  0.71516  0.50000  1.0000 0.116435654
H   H343      1.0  0.87064  0.71516  0.50000  1.0000 0.116435654
H   H344      1.0  0.87064  0.28484  0.50000  1.0000 0.116435654
H   H345      1.0  0.50000  0.12936  0.28484  1.0000 0.116435654
H   H346      1.0  0.50000  0.12936  0.71516  1.0000 0.116435654
H   H347      1.0  0.50000  0.87064  0.71516  1.0000 0.116435654
H   H348      1.0  0.50000  0.87064  0.28484  1.0000 0.116435654
H   H349      1.0  0.50000  0.28484  0.87064  1.0000 0.116435654
H   H350      1.0  0.50000  0.71516  0.87064  1.0000 0.116435654
H   H351      1.0  0.50000  0.71516  0.12936  1.0000 0.116435654
H   H352      1.0  0.50000  0.28484  0.12936  1.0000 0.116435654
H   H353      1.0  0.28484  0.12936  0.50000  1.0000 0.116435654
H   H354      1.0  0.71516  0.12936  0.50000  1.0000 0.116435654
H   H355      1.0  0.71516  0.87064  0.50000  1.0000 0.116435654
H   H356      1.0  0.28484  0.87064  0.50000  1.0000 0.116435654
H   H357      1.0  0.12936  0.50000  0.71516  1.0000 0.116435654
H   H358      1.0  0.12936  0.50000  0.28484  1.0000 0.116435654
H   H359      1.0  0.87064  0.50000  0.28484  1.0000 0.116435654
H   H360      1.0  0.87064  0.50000  0.71516  1.0000 0.116435654
H   H361      1.0  0.78484  0.00000  0.62936  1.0000 0.116435654
H   H362      1.0  0.21516  0.00000  0.62936  1.0000 0.116435654
H   H363      1.0  0.21516  0.00000  0.37064  1.0000 0.116435654
H   H364      1.0  0.78484  0.00000  0.37064  1.0000 0.116435654
H   H365      1.0  0.62936  0.78484  0.00000  1.0000 0.116435654
H   H366      1.0  0.62936  0.21516  0.00000  1.0000 0.116435654
H   H367      1.0  0.37064  0.21516  0.00000  1.0000 0.116435654
H   H368      1.0  0.37064  0.78484  0.00000  1.0000 0.116435654
H   H369      1.0  0.00000  0.62936  0.78484  1.0000 0.116435654
H   H370      1.0  0.00000  0.62936  0.21516  1.0000 0.116435654
H   H371      1.0  0.00000  0.37064  0.21516  1.0000 0.116435654
H   H372      1.0  0.00000  0.37064  0.78484  1.0000 0.116435654
H   H373      1.0  0.00000  0.78484  0.37064  1.0000 0.116435654
H   H374      1.0  0.00000  0.21516  0.37064  1.0000 0.116435654
H   H375      1.0  0.00000  0.21516  0.62936  1.0000 0.116435654
H   H376      1.0  0.00000  0.78484  0.62936  1.0000 0.116435654
H   H377      1.0  0.78484  0.62936  0.00000  1.0000 0.116435654
H   H378      1.0  0.21516  0.62936  0.00000  1.0000 0.116435654
H   H379      1.0  0.21516  0.37064  0.00000  1.0000 0.116435654
H   H380      1.0  0.78484  0.37064  0.00000  1.0000 0.116435654
H   H381      1.0  0.62936  0.00000  0.21516  1.0000 0.116435654
H   H382      1.0  0.62936  0.00000  0.78484  1.0000 0.116435654
H   H383      1.0  0.37064  0.00000  0.78484  1.0000 0.116435654
H   H384      1.0  0.37064  0.00000  0.21516  1.0000 0.116435654
C   C1        1.0  0.17629  0.67146  0.14532  1.0000 0.0603318627
C   C2        1.0  0.82371  0.32854  0.14532  1.0000 0.0603318627
C   C3        1.0  0.82371  0.67146  0.85468  1.0000 0.0603318627
C   C4        1.0  0.17629  0.32854  0.85468  1.0000 0.0603318627
C   C5        1.0  0.14532  0.17629  0.67146  1.0000 0.0603318627
C   C6        1.0  0.14532  0.82371  0.32854  1.0000 0.0603318627
C   C7        1.0  0.85468  0.82371  0.67146  1.0000 0.0603318627
C   C8        1.0  0.85468  0.17629  0.32854  1.0000 0.0603318627
C   C9        1.0  0.67146  0.14532  0.17629  1.0000 0.0603318627
C   C10       1.0  0.32854  0.14532  0.82371  1.0000 0.0603318627
C   C11       1.0  0.67146  0.85468  0.82371  1.0000 0.0603318627
C   C12       1.0  0.32854  0.85468  0.17629  1.0000 0.0603318627
C   C13       1.0  0.67146  0.17629  0.85468  1.0000 0.0603318627
C   C14       1.0  0.32854  0.82371  0.85468  1.0000 0.0603318627
C   C15       1.0  0.67146  0.82371  0.14532  1.0000 0.0603318627
C   C16       1.0  0.32854  0.17629  0.14532  1.0000 0.0603318627
C   C17       1.0  0.17629  0.14532  0.32854  1.0000 0.0603318627
C   C18       1.0  0.82371  0.14532  0.67146  1.0000 0.0603318627
C   C19       1.0  0.82371  0.85468  0.32854  1.0000 0.0603318627
C   C20       1.0  0.17629  0.85468  0.67146  1.0000 0.0603318627
C   C21       1.0  0.14532  0.67146  0.82371  1.0000 0.0603318627
C   C22       1.0  0.14532  0.32854  0.17629  1.0000 0.0603318627
C   C23       1.0  0.85468  0.67146  0.17629  1.0000 0.0603318627
C   C24       1.0  0.85468  0.32854  0.82371  1.0000 0.0603318627
C   C25       1.0  0.82371  0.32854  0.85468  1.0000 0.0603318627
C   C26       1.0  0.17629  0.67146  0.85468  1.0000 0.0603318627
C   C27       1.0  0.17629  0.32854  0.14532  1.0000 0.0603318627
C   C28       1.0  0.82371  0.67146  0.14532  1.0000 0.0603318627
C   C29       1.0  0.85468  0.82371  0.32854  1.0000 0.0603318627
C   C30       1.0  0.85468  0.17629  0.67146  1.0000 0.0603318627
C   C31       1.0  0.14532  0.17629  0.32854  1.0000 0.0603318627
C   C32       1.0  0.14532  0.82371  0.67146  1.0000 0.0603318627
C   C33       1.0  0.32854  0.85468  0.82371  1.0000 0.0603318627
C   C34       1.0  0.67146  0.85468  0.17629  1.0000 0.0603318627
C   C35       1.0  0.32854  0.14532  0.17629  1.0000 0.0603318627
C   C36       1.0  0.67146  0.14532  0.82371  1.0000 0.0603318627
C   C37       1.0  0.32854  0.82371  0.14532  1.0000 0.0603318627
C   C38       1.0  0.67146  0.17629  0.14532  1.0000 0.0603318627
C   C39       1.0  0.32854  0.17629  0.85468  1.0000 0.0603318627
C   C40       1.0  0.67146  0.82371  0.85468  1.0000 0.0603318627
C   C41       1.0  0.82371  0.85468  0.67146  1.0000 0.0603318627
C   C42       1.0  0.17629  0.85468  0.32854  1.0000 0.0603318627
C   C43       1.0  0.17629  0.14532  0.67146  1.0000 0.0603318627
C   C44       1.0  0.82371  0.14532  0.32854  1.0000 0.0603318627
C   C45       1.0  0.85468  0.32854  0.17629  1.0000 0.0603318627
C   C46       1.0  0.85468  0.67146  0.82371  1.0000 0.0603318627
C   C47       1.0  0.14532  0.32854  0.82371  1.0000 0.0603318627
C   C48       1.0  0.14532  0.67146  0.17629  1.0000 0.0603318627
C   C49       1.0  0.67629  0.17146  0.64532  1.0000 0.0603318627
C   C50       1.0  0.32371  0.82854  0.64532  1.0000 0.0603318627
C   C51       1.0  0.32371  0.17146  0.35468  1.0000 0.0603318627
C   C52       1.0  0.67629  0.82854  0.35468  1.0000 0.0603318627
C   C53       1.0  0.64532  0.67629  0.17146  1.0000 0.0603318627
C   C54       1.0  0.64532  0.32371  0.82854  1.0000 0.0603318627
C   C55       1.0  0.35468  0.32371  0.17146  1.0000 0.0603318627
C   C56       1.0  0.35468  0.67629  0.82854  1.0000 0.0603318627
C   C57       1.0  0.17146  0.64532  0.67629  1.0000 0.0603318627
C   C58       1.0  0.82854  0.64532  0.32371  1.0000 0.0603318627
C   C59       1.0  0.17146  0.35468  0.32371  1.0000 0.0603318627
C   C60       1.0  0.82854  0.35468  0.67629  1.0000 0.0603318627
C   C61       1.0  0.17146  0.67629  0.35468  1.0000 0.0603318627
C   C62       1.0  0.82854  0.32371  0.35468  1.0000 0.0603318627
C   C63       1.0  0.17146  0.32371  0.64532  1.0000 0.0603318627
C   C64       1.0  0.82854  0.67629  0.64532  1.0000 0.0603318627
C   C65       1.0  0.67629  0.64532  0.82854  1.0000 0.0603318627
C   C66       1.0  0.32371  0.64532  0.17146  1.0000 0.0603318627
C   C67       1.0  0.32371  0.35468  0.82854  1.0000 0.0603318627
C   C68       1.0  0.67629  0.35468  0.17146  1.0000 0.0603318627
C   C69       1.0  0.64532  0.17146  0.32371  1.0000 0.0603318627
C   C70       1.0  0.64532  0.82854  0.67629  1.0000 0.0603318627
C   C71       1.0  0.35468  0.17146  0.67629  1.0000 0.0603318627
C   C72       1.0  0.35468  0.82854  0.32371  1.0000 0.0603318627
C   C73       1.0  0.32371  0.82854  0.35468  1.0000 0.0603318627
C   C74       1.0  0.67629  0.17146  0.35468  1.0000 0.0603318627
C   C75       1.0  0.67629  0.82854  0.64532  1.0000 0.0603318627
C   C76       1.0  0.32371  0.17146  0.64532  1.0000 0.0603318627
C   C77       1.0  0.35468  0.32371  0.82854  1.0000 0.0603318627
C   C78       1.0  0.35468  0.67629  0.17146  1.0000 0.0603318627
C   C79       1.0  0.64532  0.67629  0.82854  1.0000 0.0603318627
C   C80       1.0  0.64532  0.32371  0.17146  1.0000 0.0603318627
C   C81       1.0  0.82854  0.35468  0.32371  1.0000 0.0603318627
C   C82       1.0  0.17146  0.35468  0.67629  1.0000 0.0603318627
C   C83       1.0  0.82854  0.64532  0.67629  1.0000 0.0603318627
C   C84       1.0  0.17146  0.64532  0.32371  1.0000 0.0603318627
C   C85       1.0  0.82854  0.32371  0.64532  1.0000 0.0603318627
C   C86       1.0  0.17146  0.67629  0.64532  1.0000 0.0603318627
C   C87       1.0  0.82854  0.67629  0.35468  1.0000 0.0603318627
C   C88       1.0  0.17146  0.32371  0.35468  1.0000 0.0603318627
C   C89       1.0  0.32371  0.35468  0.17146  1.0000 0.0603318627
C   C90       1.0  0.67629  0.35468  0.82854  1.0000 0.0603318627
C   C91       1.0  0.67629  0.64532  0.17146  1.0000 0.0603318627
C   C92       1.0  0.32371  0.64532  0.82854  1.0000 0.0603318627
C   C93       1.0  0.35468  0.82854  0.67629  1.0000 0.0603318627
C   C94       1.0  0.35468  0.17146  0.32371  1.0000 0.0603318627
C   C95       1.0  0.64532  0.82854  0.32371  1.0000 0.0603318627
C   C96       1.0  0.64532  0.17146  0.67629  1.0000 0.0603318627
C   C97       1.0  0.19082  0.70787  0.11803  1.0000 0.5300277591
C   C98       1.0  0.80918  0.29213  0.11803  1.0000 0.5300277591
C   C99       1.0  0.80918  0.70787  0.88197  1.0000 0.5300277591
C   C100      1.0  0.19082  0.29213  0.88197  1.0000 0.5300277591
C   C101      1.0  0.11803  0.19082  0.70787  1.0000 0.5300277591
C   C102      1.0  0.11803  0.80918  0.29213  1.0000 0.5300277591
C   C103      1.0  0.88197  0.80918  0.70787  1.0000 0.5300277591
C   C104      1.0  0.88197  0.19082  0.29213  1.0000 0.5300277591
C   C105      1.0  0.70787  0.11803  0.19082  1.0000 0.5300277591
C   C106      1.0  0.29213  0.11803  0.80918  1.0000 0.5300277591
C   C107      1.0  0.70787  0.88197  0.80918  1.0000 0.5300277591
C   C108      1.0  0.29213  0.88197  0.19082  1.0000 0.5300277591
C   C109      1.0  0.70787  0.19082  0.88197  1.0000 0.5300277591
C   C110      1.0  0.29213  0.80918  0.88197  1.0000 0.5300277591
C   C111      1.0  0.70787  0.80918  0.11803  1.0000 0.5300277591
C   C112      1.0  0.29213  0.19082  0.11803  1.0000 0.5300277591
C   C113      1.0  0.19082  0.11803  0.29213  1.0000 0.5300277591
C   C114      1.0  0.80918  0.11803  0.70787  1.0000 0.5300277591
C   C115      1.0  0.80918  0.88197  0.29213  1.0000 0.5300277591
C   C116      1.0  0.19082  0.88197  0.70787  1.0000 0.5300277591
C   C117      1.0  0.11803  0.70787  0.80918  1.0000 0.5300277591
C   C118      1.0  0.11803  0.29213  0.19082  1.0000 0.5300277591
C   C119      1.0  0.88197  0.70787  0.19082  1.0000 0.5300277591
C   C120      1.0  0.88197  0.29213  0.80918  1.0000 0.5300277591
C   C121      1.0  0.80918  0.29213  0.88197  1.0000 0.5300277591
C   C122      1.0  0.19082  0.70787  0.88197  1.0000 0.5300277591
C   C123      1.0  0.19082  0.29213  0.11803  1.0000 0.5300277591
C   C124      1.0  0.80918  0.70787  0.11803  1.0000 0.5300277591
C   C125      1.0  0.88197  0.80918  0.29213  1.0000 0.5300277591
C   C126      1.0  0.88197  0.19082  0.70787  1.0000 0.5300277591
C   C127      1.0  0.11803  0.19082  0.29213  1.0000 0.5300277591
C   C128      1.0  0.11803  0.80918  0.70787  1.0000 0.5300277591
C   C129      1.0  0.29213  0.88197  0.80918  1.0000 0.5300277591
C   C130      1.0  0.70787  0.88197  0.19082  1.0000 0.5300277591
C   C131      1.0  0.29213  0.11803  0.19082  1.0000 0.5300277591
C   C132      1.0  0.70787  0.11803  0.80918  1.0000 0.5300277591
C   C133      1.0  0.29213  0.80918  0.11803  1.0000 0.5300277591
C   C134      1.0  0.70787  0.19082  0.11803  1.0000 0.5300277591
C   C135      1.0  0.29213  0.19082  0.88197  1.0000 0.5300277591
C   C136      1.0  0.70787  0.80918  0.88197  1.0000 0.5300277591
C   C137      1.0  0.80918  0.88197  0.70787  1.0000 0.5300277591
C   C138      1.0  0.19082  0.88197  0.29213  1.0000 0.5300277591
C   C139      1.0  0.19082  0.11803  0.70787  1.0000 0.5300277591
C   C140      1.0  0.80918  0.11803  0.29213  1.0000 0.5300277591
C   C141      1.0  0.88197  0.29213  0.19082  1.0000 0.5300277591
C   C142      1.0  0.88197  0.70787  0.80918  1.0000 0.5300277591
C   C143      1.0  0.11803  0.29213  0.80918  1.0000 0.5300277591
C   C144      1.0  0.11803  0.70787  0.19082  1.0000 0.5300277591
C   C145      1.0  0.69082  0.20787  0.61803  1.0000 0.5300277591
C   C146      1.0  0.30918  0.79213  0.61803  1.0000 0.5300277591
C   C147      1.0  0.30918  0.20787  0.38197  1.0000 0.5300277591
C   C148      1.0  0.69082  0.79213  0.38197  1.0000 0.5300277591
C   C149      1.0  0.61803  0.69082  0.20787  1.0000 0.5300277591
C   C150      1.0  0.61803  0.30918  0.79213  1.0000 0.5300277591
C   C151      1.0  0.38197  0.30918  0.20787  1.0000 0.5300277591
C   C152      1.0  0.38197  0.69082  0.79213  1.0000 0.5300277591
C   C153      1.0  0.20787  0.61803  0.69082  1.0000 0.5300277591
C   C154      1.0  0.79213  0.61803  0.30918  1.0000 0.5300277591
C   C155      1.0  0.20787  0.38197  0.30918  1.0000 0.5300277591
C   C156      1.0  0.79213  0.38197  0.69082  1.0000 0.5300277591
C   C157      1.0  0.20787  0.69082  0.38197  1.0000 0.5300277591
C   C158      1.0  0.79213  0.30918  0.38197  1.0000 0.5300277591
C   C159      1.0  0.20787  0.30918  0.61803  1.0000 0.5300277591
C   C160      1.0  0.79213  0.69082  0.61803  1.0000 0.5300277591
C   C161      1.0  0.69082  0.61803  0.79213  1.0000 0.5300277591
C   C162      1.0  0.30918  0.61803  0.20787  1.0000 0.5300277591
C   C163      1.0  0.30918  0.38197  0.79213  1.0000 0.5300277591
C   C164      1.0  0.69082  0.38197  0.20787  1.0000 0.5300277591
C   C165      1.0  0.61803  0.20787  0.30918  1.0000 0.5300277591
C   C166      1.0  0.61803  0.79213  0.69082  1.0000 0.5300277591
C   C167      1.0  0.38197  0.20787  0.69082  1.0000 0.5300277591
C   C168      1.0  0.38197  0.79213  0.30918  1.0000 0.5300277591
C   C169      1.0  0.30918  0.79213  0.38197  1.0000 0.5300277591
C   C170      1.0  0.69082  0.20787  0.38197  1.0000 0.5300277591
C   C171      1.0  0.69082  0.79213  0.61803  1.0000 0.5300277591
C   C172      1.0  0.30918  0.20787  0.61803  1.0000 0.5300277591
C   C173      1.0  0.38197  0.30918  0.79213  1.0000 0.5300277591
C   C174      1.0  0.38197  0.69082  0.20787  1.0000 0.5300277591
C   C175      1.0  0.61803  0.69082  0.79213  1.0000 0.5300277591
C   C176      1.0  0.61803  0.30918  0.20787  1.0000 0.5300277591
C   C177      1.0  0.79213  0.38197  0.30918  1.0000 0.5300277591
C   C178      1.0  0.20787  0.38197  0.69082  1.0000 0.5300277591
C   C179      1.0  0.79213  0.61803  0.69082  1.0000 0.5300277591
C   C180      1.0  0.20787  0.61803  0.30918  1.0000 0.5300277591
C   C181      1.0  0.79213  0.30918  0.61803  1.0000 0.5300277591
C   C182      1.0  0.20787  0.69082  0.61803  1.0000 0.5300277591
C   C183      1.0  0.79213  0.69082  0.38197  1.0000 0.5300277591
C   C184      1.0  0.20787  0.30918  0.38197  1.0000 0.5300277591
C   C185      1.0  0.30918  0.38197  0.20787  1.0000 0.5300277591
C   C186      1.0  0.69082  0.38197  0.79213  1.0000 0.5300277591
C   C187      1.0  0.69082  0.61803  0.20787  1.0000 0.5300277591
C   C188      1.0  0.30918  0.61803  0.79213  1.0000 0.5300277591
C   C189      1.0  0.38197  0.79213  0.69082  1.0000 0.5300277591
C   C190      1.0  0.38197  0.20787  0.30918  1.0000 0.5300277591
C   C191      1.0  0.61803  0.79213  0.30918  1.0000 0.5300277591
C   C192      1.0  0.61803  0.20787  0.69082  1.0000 0.5300277591
C   C193      1.0  0.19351  0.52283  0.08643  1.0000 0.0346166473
C   C194      1.0  0.80649  0.47717  0.08643  1.0000 0.0346166473
C   C195      1.0  0.80649  0.52283  0.91357  1.0000 0.0346166473
C   C196      1.0  0.19351  0.47717  0.91357  1.0000 0.0346166473
C   C197      1.0  0.08643  0.19351  0.52283  1.0000 0.0346166473
C   C198      1.0  0.08643  0.80649  0.47717  1.0000 0.0346166473
C   C199      1.0  0.91357  0.80649  0.52283  1.0000 0.0346166473
C   C200      1.0  0.91357  0.19351  0.47717  1.0000 0.0346166473
C   C201      1.0  0.52283  0.08643  0.19351  1.0000 0.0346166473
C   C202      1.0  0.47717  0.08643  0.80649  1.0000 0.0346166473
C   C203      1.0  0.52283  0.91357  0.80649  1.0000 0.0346166473
C   C204      1.0  0.47717  0.91357  0.19351  1.0000 0.0346166473
C   C205      1.0  0.52283  0.19351  0.91357  1.0000 0.0346166473
C   C206      1.0  0.47717  0.80649  0.91357  1.0000 0.0346166473
C   C207      1.0  0.52283  0.80649  0.08643  1.0000 0.0346166473
C   C208      1.0  0.47717  0.19351  0.08643  1.0000 0.0346166473
C   C209      1.0  0.19351  0.08643  0.47717  1.0000 0.0346166473
C   C210      1.0  0.80649  0.08643  0.52283  1.0000 0.0346166473
C   C211      1.0  0.80649  0.91357  0.47717  1.0000 0.0346166473
C   C212      1.0  0.19351  0.91357  0.52283  1.0000 0.0346166473
C   C213      1.0  0.08643  0.52283  0.80649  1.0000 0.0346166473
C   C214      1.0  0.08643  0.47717  0.19351  1.0000 0.0346166473
C   C215      1.0  0.91357  0.52283  0.19351  1.0000 0.0346166473
C   C216      1.0  0.91357  0.47717  0.80649  1.0000 0.0346166473
C   C217      1.0  0.80649  0.47717  0.91357  1.0000 0.0346166473
C   C218      1.0  0.19351  0.52283  0.91357  1.0000 0.0346166473
C   C219      1.0  0.19351  0.47717  0.08643  1.0000 0.0346166473
C   C220      1.0  0.80649  0.52283  0.08643  1.0000 0.0346166473
C   C221      1.0  0.91357  0.80649  0.47717  1.0000 0.0346166473
C   C222      1.0  0.91357  0.19351  0.52283  1.0000 0.0346166473
C   C223      1.0  0.08643  0.19351  0.47717  1.0000 0.0346166473
C   C224      1.0  0.08643  0.80649  0.52283  1.0000 0.0346166473
C   C225      1.0  0.47717  0.91357  0.80649  1.0000 0.0346166473
C   C226      1.0  0.52283  0.91357  0.19351  1.0000 0.0346166473
C   C227      1.0  0.47717  0.08643  0.19351  1.0000 0.0346166473
C   C228      1.0  0.52283  0.08643  0.80649  1.0000 0.0346166473
C   C229      1.0  0.47717  0.80649  0.08643  1.0000 0.0346166473
C   C230      1.0  0.52283  0.19351  0.08643  1.0000 0.0346166473
C   C231      1.0  0.47717  0.19351  0.91357  1.0000 0.0346166473
C   C232      1.0  0.52283  0.80649  0.91357  1.0000 0.0346166473
C   C233      1.0  0.80649  0.91357  0.52283  1.0000 0.0346166473
C   C234      1.0  0.19351  0.91357  0.47717  1.0000 0.0346166473
C   C235      1.0  0.19351  0.08643  0.52283  1.0000 0.0346166473
C   C236      1.0  0.80649  0.08643  0.47717  1.0000 0.0346166473
C   C237      1.0  0.91357  0.47717  0.19351  1.0000 0.0346166473
C   C238      1.0  0.91357  0.52283  0.80649  1.0000 0.0346166473
C   C239      1.0  0.08643  0.47717  0.80649  1.0000 0.0346166473
C   C240      1.0  0.08643  0.52283  0.19351  1.0000 0.0346166473
C   C241      1.0  0.69351  0.02283  0.58643  1.0000 0.0346166473
C   C242      1.0  0.30649  0.97717  0.58643  1.0000 0.0346166473
C   C243      1.0  0.30649  0.02283  0.41357  1.0000 0.0346166473
C   C244      1.0  0.69351  0.97717  0.41357  1.0000 0.0346166473
C   C245      1.0  0.58643  0.69351  0.02283  1.0000 0.0346166473
C   C246      1.0  0.58643  0.30649  0.97717  1.0000 0.0346166473
C   C247      1.0  0.41357  0.30649  0.02283  1.0000 0.0346166473
C   C248      1.0  0.41357  0.69351  0.97717  1.0000 0.0346166473
C   C249      1.0  0.02283  0.58643  0.69351  1.0000 0.0346166473
C   C250      1.0  0.97717  0.58643  0.30649  1.0000 0.0346166473
C   C251      1.0  0.02283  0.41357  0.30649  1.0000 0.0346166473
C   C252      1.0  0.97717  0.41357  0.69351  1.0000 0.0346166473
C   C253      1.0  0.02283  0.69351  0.41357  1.0000 0.0346166473
C   C254      1.0  0.97717  0.30649  0.41357  1.0000 0.0346166473
C   C255      1.0  0.02283  0.30649  0.58643  1.0000 0.0346166473
C   C256      1.0  0.97717  0.69351  0.58643  1.0000 0.0346166473
C   C257      1.0  0.69351  0.58643  0.97717  1.0000 0.0346166473
C   C258      1.0  0.30649  0.58643  0.02283  1.0000 0.0346166473
C   C259      1.0  0.30649  0.41357  0.97717  1.0000 0.0346166473
C   C260      1.0  0.69351  0.41357  0.02283  1.0000 0.0346166473
C   C261      1.0  0.58643  0.02283  0.30649  1.0000 0.0346166473
C   C262      1.0  0.58643  0.97717  0.69351  1.0000 0.0346166473
C   C263      1.0  0.41357  0.02283  0.69351  1.0000 0.0346166473
C   C264      1.0  0.41357  0.97717  0.30649  1.0000 0.0346166473
C   C265      1.0  0.30649  0.97717  0.41357  1.0000 0.0346166473
C   C266      1.0  0.69351  0.02283  0.41357  1.0000 0.0346166473
C   C267      1.0  0.69351  0.97717  0.58643  1.0000 0.0346166473
C   C268      1.0  0.30649  0.02283  0.58643  1.0000 0.0346166473
C   C269      1.0  0.41357  0.30649  0.97717  1.0000 0.0346166473
C   C270      1.0  0.41357  0.69351  0.02283  1.0000 0.0346166473
C   C271      1.0  0.58643  0.69351  0.97717  1.0000 0.0346166473
C   C272      1.0  0.58643  0.30649  0.02283  1.0000 0.0346166473
C   C273      1.0  0.97717  0.41357  0.30649  1.0000 0.0346166473
C   C274      1.0  0.02283  0.41357  0.69351  1.0000 0.0346166473
C   C275      1.0  0.97717  0.58643  0.69351  1.0000 0.0346166473
C   C276      1.0  0.02283  0.58643  0.30649  1.0000 0.0346166473
C   C277      1.0  0.97717  0.30649  0.58643  1.0000 0.0346166473
C   C278      1.0  0.02283  0.69351  0.58643  1.0000 0.0346166473
C   C279      1.0  0.97717  0.69351  0.41357  1.0000 0.0346166473
C   C280      1.0  0.02283  0.30649  0.41357  1.0000 0.0346166473
C   C281      1.0  0.30649  0.41357  0.02283  1.0000 0.0346166473
C   C282      1.0  0.69351  0.41357  0.97717  1.0000 0.0346166473
C   C283      1.0  0.69351  0.58643  0.02283  1.0000 0.0346166473
C   C284      1.0  0.30649  0.58643  0.97717  1.0000 0.0346166473
C   C285      1.0  0.41357  0.97717  0.69351  1.0000 0.0346166473
C   C286      1.0  0.41357  0.02283  0.30649  1.0000 0.0346166473
C   C287      1.0  0.58643  0.97717  0.30649  1.0000 0.0346166473
C   C288      1.0  0.58643  0.02283  0.69351  1.0000 0.0346166473
C   C289      1.0  0.16164  0.55073  0.06791  1.0000 0.50698747
C   C290      1.0  0.83836  0.44927  0.06791  1.0000 0.50698747
C   C291      1.0  0.83836  0.55073  0.93209  1.0000 0.50698747
C   C292      1.0  0.16164  0.44927  0.93209  1.0000 0.50698747
C   C293      1.0  0.06791  0.16164  0.55073  1.0000 0.50698747
C   C294      1.0  0.06791  0.83836  0.44927  1.0000 0.50698747
C   C295      1.0  0.93209  0.83836  0.55073  1.0000 0.50698747
C   C296      1.0  0.93209  0.16164  0.44927  1.0000 0.50698747
C   C297      1.0  0.55073  0.06791  0.16164  1.0000 0.50698747
C   C298      1.0  0.44927  0.06791  0.83836  1.0000 0.50698747
C   C299      1.0  0.55073  0.93209  0.83836  1.0000 0.50698747
C   C300      1.0  0.44927  0.93209  0.16164  1.0000 0.50698747
C   C301      1.0  0.55073  0.16164  0.93209  1.0000 0.50698747
C   C302      1.0  0.44927  0.83836  0.93209  1.0000 0.50698747
C   C303      1.0  0.55073  0.83836  0.06791  1.0000 0.50698747
C   C304      1.0  0.44927  0.16164  0.06791  1.0000 0.50698747
C   C305      1.0  0.16164  0.06791  0.44927  1.0000 0.50698747
C   C306      1.0  0.83836  0.06791  0.55073  1.0000 0.50698747
C   C307      1.0  0.83836  0.93209  0.44927  1.0000 0.50698747
C   C308      1.0  0.16164  0.93209  0.55073  1.0000 0.50698747
C   C309      1.0  0.06791  0.55073  0.83836  1.0000 0.50698747
C   C310      1.0  0.06791  0.44927  0.16164  1.0000 0.50698747
C   C311      1.0  0.93209  0.55073  0.16164  1.0000 0.50698747
C   C312      1.0  0.93209  0.44927  0.83836  1.0000 0.50698747
C   C313      1.0  0.83836  0.44927  0.93209  1.0000 0.50698747
C   C314      1.0  0.16164  0.55073  0.93209  1.0000 0.50698747
C   C315      1.0  0.16164  0.44927  0.06791  1.0000 0.50698747
C   C316      1.0  0.83836  0.55073  0.06791  1.0000 0.50698747
C   C317      1.0  0.93209  0.83836  0.44927  1.0000 0.50698747
C   C318      1.0  0.93209  0.16164  0.55073  1.0000 0.50698747
C   C319      1.0  0.06791  0.16164  0.44927  1.0000 0.50698747
C   C320      1.0  0.06791  0.83836  0.55073  1.0000 0.50698747
C   C321      1.0  0.44927  0.93209  0.83836  1.0000 0.50698747
C   C322      1.0  0.55073  0.93209  0.16164  1.0000 0.50698747
C   C323      1.0  0.44927  0.06791  0.16164  1.0000 0.50698747
C   C324      1.0  0.55073  0.06791  0.83836  1.0000 0.50698747
C   C325      1.0  0.44927  0.83836  0.06791  1.0000 0.50698747
C   C326      1.0  0.55073  0.16164  0.06791  1.0000 0.50698747
C   C327      1.0  0.44927  0.16164  0.93209  1.0000 0.50698747
C   C328      1.0  0.55073  0.83836  0.93209  1.0000 0.50698747
C   C329      1.0  0.83836  0.93209  0.55073  1.0000 0.50698747
C   C330      1.0  0.16164  0.93209  0.44927  1.0000 0.50698747
C   C331      1.0  0.16164  0.06791  0.55073  1.0000 0.50698747
C   C332      1.0  0.83836  0.06791  0.44927  1.0000 0.50698747
C   C333      1.0  0.93209  0.44927  0.16164  1.0000 0.50698747
C   C334      1.0  0.93209  0.55073  0.83836  1.0000 0.50698747
C   C335      1.0  0.06791  0.44927  0.83836  1.0000 0.50698747
C   C336      1.0  0.06791  0.55073  0.16164  1.0000 0.50698747
C   C337      1.0  0.66164  0.05073  0.56791  1.0000 0.50698747
C   C338      1.0  0.33836  0.94927  0.56791  1.0000 0.50698747
C   C339      1.0  0.33836  0.05073  0.43209  1.0000 0.50698747
C   C340      1.0  0.66164  0.94927  0.43209  1.0000 0.50698747
C   C341      1.0  0.56791  0.66164  0.05073  1.0000 0.50698747
C   C342      1.0  0.56791  0.33836  0.94927  1.0000 0.50698747
C   C343      1.0  0.43209  0.33836  0.05073  1.0000 0.50698747
C   C344      1.0  0.43209  0.66164  0.94927  1.0000 0.50698747
C   C345      1.0  0.05073  0.56791  0.66164  1.0000 0.50698747
C   C346      1.0  0.94927  0.56791  0.33836  1.0000 0.50698747
C   C347      1.0  0.05073  0.43209  0.33836  1.0000 0.50698747
C   C348      1.0  0.94927  0.43209  0.66164  1.0000 0.50698747
C   C349      1.0  0.05073  0.66164  0.43209  1.0000 0.50698747
C   C350      1.0  0.94927  0.33836  0.43209  1.0000 0.50698747
C   C351      1.0  0.05073  0.33836  0.56791  1.0000 0.50698747
C   C352      1.0  0.94927  0.66164  0.56791  1.0000 0.50698747
C   C353      1.0  0.66164  0.56791  0.94927  1.0000 0.50698747
C   C354      1.0  0.33836  0.56791  0.05073  1.0000 0.50698747
C   C355      1.0  0.33836  0.43209  0.94927  1.0000 0.50698747
C   C356      1.0  0.66164  0.43209  0.05073  1.0000 0.50698747
C   C357      1.0  0.56791  0.05073  0.33836  1.0000 0.50698747
C   C358      1.0  0.56791  0.94927  0.66164  1.0000 0.50698747
C   C359      1.0  0.43209  0.05073  0.66164  1.0000 0.50698747
C   C360      1.0  0.43209  0.94927  0.33836  1.0000 0.50698747
C   C361      1.0  0.33836  0.94927  0.43209  1.0000 0.50698747
C   C362      1.0  0.66164  0.05073  0.43209  1.0000 0.50698747
C   C363      1.0  0.66164  0.94927  0.56791  1.0000 0.50698747
C   C364      1.0  0.33836  0.05073  0.56791  1.0000 0.50698747
C   C365      1.0  0.43209  0.33836  0.94927  1.0000 0.50698747
C   C366      1.0  0.43209  0.66164  0.05073  1.0000 0.50698747
C   C367      1.0  0.56791  0.66164  0.94927  1.0000 0.50698747
C   C368      1.0  0.56791  0.33836  0.05073  1.0000 0.50698747
C   C369      1.0  0.94927  0.43209  0.33836  1.0000 0.50698747
C   C370      1.0  0.05073  0.43209  0.66164  1.0000 0.50698747
C   C371      1.0  0.94927  0.56791  0.66164  1.0000 0.50698747
C   C372      1.0  0.05073  0.56791  0.33836  1.0000 0.50698747
C   C373      1.0  0.94927  0.33836  0.56791  1.0000 0.50698747
C   C374      1.0  0.05073  0.66164  0.56791  1.0000 0.50698747
C   C375      1.0  0.94927  0.66164  0.43209  1.0000 0.50698747
C   C376      1.0  0.05073  0.33836  0.43209  1.0000 0.50698747
C   C377      1.0  0.33836  0.43209  0.05073  1.0000 0.50698747
C   C378      1.0  0.66164  0.43209  0.94927  1.0000 0.50698747
C   C379      1.0  0.66164  0.56791  0.05073  1.0000 0.50698747
C   C380      1.0  0.33836  0.56791  0.94927  1.0000 0.50698747
C   C381      1.0  0.43209  0.94927  0.66164  1.0000 0.50698747
C   C382      1.0  0.43209  0.05073  0.33836  1.0000 0.50698747
C   C383      1.0  0.56791  0.94927  0.33836  1.0000 0.50698747
C   C384      1.0  0.56791  0.05073  0.66164  1.0000 0.50698747
C   C385      1.0  0.16999  0.60117  0.16999  1.0000 0.2298182878
C   C386      1.0  0.83001  0.39883  0.16999  1.0000 0.2298182878
C   C387      1.0  0.83001  0.60117  0.83001  1.0000 0.2298182878
C   C388      1.0  0.16999  0.39883  0.83001  1.0000 0.2298182878
C   C389      1.0  0.16999  0.16999  0.60117  1.0000 0.2298182878
C   C390      1.0  0.16999  0.83001  0.39883  1.0000 0.2298182878
C   C391      1.0  0.83001  0.83001  0.60117  1.0000 0.2298182878
C   C392      1.0  0.83001  0.16999  0.39883  1.0000 0.2298182878
C   C393      1.0  0.60117  0.16999  0.16999  1.0000 0.2298182878
C   C394      1.0  0.39883  0.16999  0.83001  1.0000 0.2298182878
C   C395      1.0  0.60117  0.83001  0.83001  1.0000 0.2298182878
C   C396      1.0  0.39883  0.83001  0.16999  1.0000 0.2298182878
C   C397      1.0  0.60117  0.16999  0.83001  1.0000 0.2298182878
C   C398      1.0  0.39883  0.83001  0.83001  1.0000 0.2298182878
C   C399      1.0  0.60117  0.83001  0.16999  1.0000 0.2298182878
C   C400      1.0  0.39883  0.16999  0.16999  1.0000 0.2298182878
C   C401      1.0  0.16999  0.16999  0.39883  1.0000 0.2298182878
C   C402      1.0  0.83001  0.16999  0.60117  1.0000 0.2298182878
C   C403      1.0  0.83001  0.83001  0.39883  1.0000 0.2298182878
C   C404      1.0  0.16999  0.83001  0.60117  1.0000 0.2298182878
C   C405      1.0  0.16999  0.60117  0.83001  1.0000 0.2298182878
C   C406      1.0  0.16999  0.39883  0.16999  1.0000 0.2298182878
C   C407      1.0  0.83001  0.60117  0.16999  1.0000 0.2298182878
C   C408      1.0  0.83001  0.39883  0.83001  1.0000 0.2298182878
C   C409      1.0  0.66999  0.10117  0.66999  1.0000 0.2298182878
C   C410      1.0  0.33001  0.89883  0.66999  1.0000 0.2298182878
C   C411      1.0  0.33001  0.10117  0.33001  1.0000 0.2298182878
C   C412      1.0  0.66999  0.89883  0.33001  1.0000 0.2298182878
C   C413      1.0  0.66999  0.66999  0.10117  1.0000 0.2298182878
C   C414      1.0  0.66999  0.33001  0.89883  1.0000 0.2298182878
C   C415      1.0  0.33001  0.33001  0.10117  1.0000 0.2298182878
C   C416      1.0  0.33001  0.66999  0.89883  1.0000 0.2298182878
C   C417      1.0  0.10117  0.66999  0.66999  1.0000 0.2298182878
C   C418      1.0  0.89883  0.66999  0.33001  1.0000 0.2298182878
C   C419      1.0  0.10117  0.33001  0.33001  1.0000 0.2298182878
C   C420      1.0  0.89883  0.33001  0.66999  1.0000 0.2298182878
C   C421      1.0  0.10117  0.66999  0.33001  1.0000 0.2298182878
C   C422      1.0  0.89883  0.33001  0.33001  1.0000 0.2298182878
C   C423      1.0  0.10117  0.33001  0.66999  1.0000 0.2298182878
C   C424      1.0  0.89883  0.66999  0.66999  1.0000 0.2298182878
C   C425      1.0  0.66999  0.66999  0.89883  1.0000 0.2298182878
C   C426      1.0  0.33001  0.66999  0.10117  1.0000 0.2298182878
C   C427      1.0  0.33001  0.33001  0.89883  1.0000 0.2298182878
C   C428      1.0  0.66999  0.33001  0.10117  1.0000 0.2298182878
C   C429      1.0  0.66999  0.10117  0.33001  1.0000 0.2298182878
C   C430      1.0  0.66999  0.89883  0.66999  1.0000 0.2298182878
C   C431      1.0  0.33001  0.10117  0.66999  1.0000 0.2298182878
C   C432      1.0  0.33001  0.89883  0.33001  1.0000 0.2298182878
C   C433      1.0  0.25304  0.50000  0.11507  1.0000 0.2096852246
C   C434      1.0  0.74696  0.50000  0.11507  1.0000 0.2096852246
C   C435      1.0  0.74696  0.50000  0.88493  1.0000 0.2096852246
C   C436      1.0  0.25304  0.50000  0.88493  1.0000 0.2096852246
C   C437      1.0  0.11507  0.25304  0.50000  1.0000 0.2096852246
C   C438      1.0  0.11507  0.74696  0.50000  1.0000 0.2096852246
C   C439      1.0  0.88493  0.74696  0.50000  1.0000 0.2096852246
C   C440      1.0  0.88493  0.25304  0.50000  1.0000 0.2096852246
C   C441      1.0  0.50000  0.11507  0.25304  1.0000 0.2096852246
C   C442      1.0  0.50000  0.11507  0.74696  1.0000 0.2096852246
C   C443      1.0  0.50000  0.88493  0.74696  1.0000 0.2096852246
C   C444      1.0  0.50000  0.88493  0.25304  1.0000 0.2096852246
C   C445      1.0  0.50000  0.25304  0.88493  1.0000 0.2096852246
C   C446      1.0  0.50000  0.74696  0.88493  1.0000 0.2096852246
C   C447      1.0  0.50000  0.74696  0.11507  1.0000 0.2096852246
C   C448      1.0  0.50000  0.25304  0.11507  1.0000 0.2096852246
C   C449      1.0  0.25304  0.11507  0.50000  1.0000 0.2096852246
C   C450      1.0  0.74696  0.11507  0.50000  1.0000 0.2096852246
C   C451      1.0  0.74696  0.88493  0.50000  1.0000 0.2096852246
C   C452      1.0  0.25304  0.88493  0.50000  1.0000 0.2096852246
C   C453      1.0  0.11507  0.50000  0.74696  1.0000 0.2096852246
C   C454      1.0  0.11507  0.50000  0.25304  1.0000 0.2096852246
C   C455      1.0  0.88493  0.50000  0.25304  1.0000 0.2096852246
C   C456      1.0  0.88493  0.50000  0.74696  1.0000 0.2096852246
C   C457      1.0  0.75304  0.00000  0.61507  1.0000 0.2096852246
C   C458      1.0  0.24696  0.00000  0.61507  1.0000 0.2096852246
C   C459      1.0  0.24696  0.00000  0.38493  1.0000 0.2096852246
C   C460      1.0  0.75304  0.00000  0.38493  1.0000 0.2096852246
C   C461      1.0  0.61507  0.75304  0.00000  1.0000 0.2096852246
C   C462      1.0  0.61507  0.24696  0.00000  1.0000 0.2096852246
C   C463      1.0  0.38493  0.24696  0.00000  1.0000 0.2096852246
C   C464      1.0  0.38493  0.75304  0.00000  1.0000 0.2096852246
C   C465      1.0  0.00000  0.61507  0.75304  1.0000 0.2096852246
C   C466      1.0  0.00000  0.61507  0.24696  1.0000 0.2096852246
C   C467      1.0  0.00000  0.38493  0.24696  1.0000 0.2096852246
C   C468      1.0  0.00000  0.38493  0.75304  1.0000 0.2096852246
C   C469      1.0  0.00000  0.75304  0.38493  1.0000 0.2096852246
C   C470      1.0  0.00000  0.24696  0.38493  1.0000 0.2096852246
C   C471      1.0  0.00000  0.24696  0.61507  1.0000 0.2096852246
C   C472      1.0  0.00000  0.75304  0.61507  1.0000 0.2096852246
C   C473      1.0  0.75304  0.61507  0.00000  1.0000 0.2096852246
C   C474      1.0  0.24696  0.61507  0.00000  1.0000 0.2096852246
C   C475      1.0  0.24696  0.38493  0.00000  1.0000 0.2096852246
C   C476      1.0  0.75304  0.38493  0.00000  1.0000 0.2096852246
C   C477      1.0  0.61507  0.00000  0.24696  1.0000 0.2096852246
C   C478      1.0  0.61507  0.00000  0.75304  1.0000 0.2096852246
C   C479      1.0  0.38493  0.00000  0.75304  1.0000 0.2096852246
C   C480      1.0  0.38493  0.00000  0.24696  1.0000 0.2096852246
N   N1        1.0  0.19313  0.62893  0.13906  1.0000 -0.3518161996
N   N2        1.0  0.80687  0.37107  0.13906  1.0000 -0.3518161996
N   N3        1.0  0.80687  0.62893  0.86094  1.0000 -0.3518161996
N   N4        1.0  0.19313  0.37107  0.86094  1.0000 -0.3518161996
N   N5        1.0  0.13906  0.19313  0.62893  1.0000 -0.3518161996
N   N6        1.0  0.13906  0.80687  0.37107  1.0000 -0.3518161996
N   N7        1.0  0.86094  0.80687  0.62893  1.0000 -0.3518161996
N   N8        1.0  0.86094  0.19313  0.37107  1.0000 -0.3518161996
N   N9        1.0  0.62893  0.13906  0.19313  1.0000 -0.3518161996
N   N10       1.0  0.37107  0.13906  0.80687  1.0000 -0.3518161996
N   N11       1.0  0.62893  0.86094  0.80687  1.0000 -0.3518161996
N   N12       1.0  0.37107  0.86094  0.19313  1.0000 -0.3518161996
N   N13       1.0  0.62893  0.19313  0.86094  1.0000 -0.3518161996
N   N14       1.0  0.37107  0.80687  0.86094  1.0000 -0.3518161996
N   N15       1.0  0.62893  0.80687  0.13906  1.0000 -0.3518161996
N   N16       1.0  0.37107  0.19313  0.13906  1.0000 -0.3518161996
N   N17       1.0  0.19313  0.13906  0.37107  1.0000 -0.3518161996
N   N18       1.0  0.80687  0.13906  0.62893  1.0000 -0.3518161996
N   N19       1.0  0.80687  0.86094  0.37107  1.0000 -0.3518161996
N   N20       1.0  0.19313  0.86094  0.62893  1.0000 -0.3518161996
N   N21       1.0  0.13906  0.62893  0.80687  1.0000 -0.3518161996
N   N22       1.0  0.13906  0.37107  0.19313  1.0000 -0.3518161996
N   N23       1.0  0.86094  0.62893  0.19313  1.0000 -0.3518161996
N   N24       1.0  0.86094  0.37107  0.80687  1.0000 -0.3518161996
N   N25       1.0  0.80687  0.37107  0.86094  1.0000 -0.3518161996
N   N26       1.0  0.19313  0.62893  0.86094  1.0000 -0.3518161996
N   N27       1.0  0.19313  0.37107  0.13906  1.0000 -0.3518161996
N   N28       1.0  0.80687  0.62893  0.13906  1.0000 -0.3518161996
N   N29       1.0  0.86094  0.80687  0.37107  1.0000 -0.3518161996
N   N30       1.0  0.86094  0.19313  0.62893  1.0000 -0.3518161996
N   N31       1.0  0.13906  0.19313  0.37107  1.0000 -0.3518161996
N   N32       1.0  0.13906  0.80687  0.62893  1.0000 -0.3518161996
N   N33       1.0  0.37107  0.86094  0.80687  1.0000 -0.3518161996
N   N34       1.0  0.62893  0.86094  0.19313  1.0000 -0.3518161996
N   N35       1.0  0.37107  0.13906  0.19313  1.0000 -0.3518161996
N   N36       1.0  0.62893  0.13906  0.80687  1.0000 -0.3518161996
N   N37       1.0  0.37107  0.80687  0.13906  1.0000 -0.3518161996
N   N38       1.0  0.62893  0.19313  0.13906  1.0000 -0.3518161996
N   N39       1.0  0.37107  0.19313  0.86094  1.0000 -0.3518161996
N   N40       1.0  0.62893  0.80687  0.86094  1.0000 -0.3518161996
N   N41       1.0  0.80687  0.86094  0.62893  1.0000 -0.3518161996
N   N42       1.0  0.19313  0.86094  0.37107  1.0000 -0.3518161996
N   N43       1.0  0.19313  0.13906  0.62893  1.0000 -0.3518161996
N   N44       1.0  0.80687  0.13906  0.37107  1.0000 -0.3518161996
N   N45       1.0  0.86094  0.37107  0.19313  1.0000 -0.3518161996
N   N46       1.0  0.86094  0.62893  0.80687  1.0000 -0.3518161996
N   N47       1.0  0.13906  0.37107  0.80687  1.0000 -0.3518161996
N   N48       1.0  0.13906  0.62893  0.19313  1.0000 -0.3518161996
N   N49       1.0  0.69313  0.12893  0.63906  1.0000 -0.3518161996
N   N50       1.0  0.30687  0.87107  0.63906  1.0000 -0.3518161996
N   N51       1.0  0.30687  0.12893  0.36094  1.0000 -0.3518161996
N   N52       1.0  0.69313  0.87107  0.36094  1.0000 -0.3518161996
N   N53       1.0  0.63906  0.69313  0.12893  1.0000 -0.3518161996
N   N54       1.0  0.63906  0.30687  0.87107  1.0000 -0.3518161996
N   N55       1.0  0.36094  0.30687  0.12893  1.0000 -0.3518161996
N   N56       1.0  0.36094  0.69313  0.87107  1.0000 -0.3518161996
N   N57       1.0  0.12893  0.63906  0.69313  1.0000 -0.3518161996
N   N58       1.0  0.87107  0.63906  0.30687  1.0000 -0.3518161996
N   N59       1.0  0.12893  0.36094  0.30687  1.0000 -0.3518161996
N   N60       1.0  0.87107  0.36094  0.69313  1.0000 -0.3518161996
N   N61       1.0  0.12893  0.69313  0.36094  1.0000 -0.3518161996
N   N62       1.0  0.87107  0.30687  0.36094  1.0000 -0.3518161996
N   N63       1.0  0.12893  0.30687  0.63906  1.0000 -0.3518161996
N   N64       1.0  0.87107  0.69313  0.63906  1.0000 -0.3518161996
N   N65       1.0  0.69313  0.63906  0.87107  1.0000 -0.3518161996
N   N66       1.0  0.30687  0.63906  0.12893  1.0000 -0.3518161996
N   N67       1.0  0.30687  0.36094  0.87107  1.0000 -0.3518161996
N   N68       1.0  0.69313  0.36094  0.12893  1.0000 -0.3518161996
N   N69       1.0  0.63906  0.12893  0.30687  1.0000 -0.3518161996
N   N70       1.0  0.63906  0.87107  0.69313  1.0000 -0.3518161996
N   N71       1.0  0.36094  0.12893  0.69313  1.0000 -0.3518161996
N   N72       1.0  0.36094  0.87107  0.30687  1.0000 -0.3518161996
N   N73       1.0  0.30687  0.87107  0.36094  1.0000 -0.3518161996
N   N74       1.0  0.69313  0.12893  0.36094  1.0000 -0.3518161996
N   N75       1.0  0.69313  0.87107  0.63906  1.0000 -0.3518161996
N   N76       1.0  0.30687  0.12893  0.63906  1.0000 -0.3518161996
N   N77       1.0  0.36094  0.30687  0.87107  1.0000 -0.3518161996
N   N78       1.0  0.36094  0.69313  0.12893  1.0000 -0.3518161996
N   N79       1.0  0.63906  0.69313  0.87107  1.0000 -0.3518161996
N   N80       1.0  0.63906  0.30687  0.12893  1.0000 -0.3518161996
N   N81       1.0  0.87107  0.36094  0.30687  1.0000 -0.3518161996
N   N82       1.0  0.12893  0.36094  0.69313  1.0000 -0.3518161996
N   N83       1.0  0.87107  0.63906  0.69313  1.0000 -0.3518161996
N   N84       1.0  0.12893  0.63906  0.30687  1.0000 -0.3518161996
N   N85       1.0  0.87107  0.30687  0.63906  1.0000 -0.3518161996
N   N86       1.0  0.12893  0.69313  0.63906  1.0000 -0.3518161996
N   N87       1.0  0.87107  0.69313  0.36094  1.0000 -0.3518161996
N   N88       1.0  0.12893  0.30687  0.36094  1.0000 -0.3518161996
N   N89       1.0  0.30687  0.36094  0.12893  1.0000 -0.3518161996
N   N90       1.0  0.69313  0.36094  0.87107  1.0000 -0.3518161996
N   N91       1.0  0.69313  0.63906  0.12893  1.0000 -0.3518161996
N   N92       1.0  0.30687  0.63906  0.87107  1.0000 -0.3518161996
N   N93       1.0  0.36094  0.87107  0.69313  1.0000 -0.3518161996
N   N94       1.0  0.36094  0.12893  0.30687  1.0000 -0.3518161996
N   N95       1.0  0.63906  0.87107  0.30687  1.0000 -0.3518161996
N   N96       1.0  0.63906  0.12893  0.69313  1.0000 -0.3518161996
N   N97       1.0  0.23149  0.53697  0.10417  1.0000 -0.3263420483
N   N98       1.0  0.76851  0.46303  0.10417  1.0000 -0.3263420483
N   N99       1.0  0.76851  0.53697  0.89583  1.0000 -0.3263420483
N   N100      1.0  0.23149  0.46303  0.89583  1.0000 -0.3263420483
N   N101      1.0  0.10417  0.23149  0.53697  1.0000 -0.3263420483
N   N102      1.0  0.10417  0.76851  0.46303  1.0000 -0.3263420483
N   N103      1.0  0.89583  0.76851  0.53697  1.0000 -0.3263420483
N   N104      1.0  0.89583  0.23149  0.46303  1.0000 -0.3263420483
N   N105      1.0  0.53697  0.10417  0.23149  1.0000 -0.3263420483
N   N106      1.0  0.46303  0.10417  0.76851  1.0000 -0.3263420483
N   N107      1.0  0.53697  0.89583  0.76851  1.0000 -0.3263420483
N   N108      1.0  0.46303  0.89583  0.23149  1.0000 -0.3263420483
N   N109      1.0  0.53697  0.23149  0.89583  1.0000 -0.3263420483
N   N110      1.0  0.46303  0.76851  0.89583  1.0000 -0.3263420483
N   N111      1.0  0.53697  0.76851  0.10417  1.0000 -0.3263420483
N   N112      1.0  0.46303  0.23149  0.10417  1.0000 -0.3263420483
N   N113      1.0  0.23149  0.10417  0.46303  1.0000 -0.3263420483
N   N114      1.0  0.76851  0.10417  0.53697  1.0000 -0.3263420483
N   N115      1.0  0.76851  0.89583  0.46303  1.0000 -0.3263420483
N   N116      1.0  0.23149  0.89583  0.53697  1.0000 -0.3263420483
N   N117      1.0  0.10417  0.53697  0.76851  1.0000 -0.3263420483
N   N118      1.0  0.10417  0.46303  0.23149  1.0000 -0.3263420483
N   N119      1.0  0.89583  0.53697  0.23149  1.0000 -0.3263420483
N   N120      1.0  0.89583  0.46303  0.76851  1.0000 -0.3263420483
N   N121      1.0  0.76851  0.46303  0.89583  1.0000 -0.3263420483
N   N122      1.0  0.23149  0.53697  0.89583  1.0000 -0.3263420483
N   N123      1.0  0.23149  0.46303  0.10417  1.0000 -0.3263420483
N   N124      1.0  0.76851  0.53697  0.10417  1.0000 -0.3263420483
N   N125      1.0  0.89583  0.76851  0.46303  1.0000 -0.3263420483
N   N126      1.0  0.89583  0.23149  0.53697  1.0000 -0.3263420483
N   N127      1.0  0.10417  0.23149  0.46303  1.0000 -0.3263420483
N   N128      1.0  0.10417  0.76851  0.53697  1.0000 -0.3263420483
N   N129      1.0  0.46303  0.89583  0.76851  1.0000 -0.3263420483
N   N130      1.0  0.53697  0.89583  0.23149  1.0000 -0.3263420483
N   N131      1.0  0.46303  0.10417  0.23149  1.0000 -0.3263420483
N   N132      1.0  0.53697  0.10417  0.76851  1.0000 -0.3263420483
N   N133      1.0  0.46303  0.76851  0.10417  1.0000 -0.3263420483
N   N134      1.0  0.53697  0.23149  0.10417  1.0000 -0.3263420483
N   N135      1.0  0.46303  0.23149  0.89583  1.0000 -0.3263420483
N   N136      1.0  0.53697  0.76851  0.89583  1.0000 -0.3263420483
N   N137      1.0  0.76851  0.89583  0.53697  1.0000 -0.3263420483
N   N138      1.0  0.23149  0.89583  0.46303  1.0000 -0.3263420483
N   N139      1.0  0.23149  0.10417  0.53697  1.0000 -0.3263420483
N   N140      1.0  0.76851  0.10417  0.46303  1.0000 -0.3263420483
N   N141      1.0  0.89583  0.46303  0.23149  1.0000 -0.3263420483
N   N142      1.0  0.89583  0.53697  0.76851  1.0000 -0.3263420483
N   N143      1.0  0.10417  0.46303  0.76851  1.0000 -0.3263420483
N   N144      1.0  0.10417  0.53697  0.23149  1.0000 -0.3263420483
N   N145      1.0  0.73149  0.03697  0.60417  1.0000 -0.3263420483
N   N146      1.0  0.26851  0.96303  0.60417  1.0000 -0.3263420483
N   N147      1.0  0.26851  0.03697  0.39583  1.0000 -0.3263420483
N   N148      1.0  0.73149  0.96303  0.39583  1.0000 -0.3263420483
N   N149      1.0  0.60417  0.73149  0.03697  1.0000 -0.3263420483
N   N150      1.0  0.60417  0.26851  0.96303  1.0000 -0.3263420483
N   N151      1.0  0.39583  0.26851  0.03697  1.0000 -0.3263420483
N   N152      1.0  0.39583  0.73149  0.96303  1.0000 -0.3263420483
N   N153      1.0  0.03697  0.60417  0.73149  1.0000 -0.3263420483
N   N154      1.0  0.96303  0.60417  0.26851  1.0000 -0.3263420483
N   N155      1.0  0.03697  0.39583  0.26851  1.0000 -0.3263420483
N   N156      1.0  0.96303  0.39583  0.73149  1.0000 -0.3263420483
N   N157      1.0  0.03697  0.73149  0.39583  1.0000 -0.3263420483
N   N158      1.0  0.96303  0.26851  0.39583  1.0000 -0.3263420483
N   N159      1.0  0.03697  0.26851  0.60417  1.0000 -0.3263420483
N   N160      1.0  0.96303  0.73149  0.60417  1.0000 -0.3263420483
N   N161      1.0  0.73149  0.60417  0.96303  1.0000 -0.3263420483
N   N162      1.0  0.26851  0.60417  0.03697  1.0000 -0.3263420483
N   N163      1.0  0.26851  0.39583  0.96303  1.0000 -0.3263420483
N   N164      1.0  0.73149  0.39583  0.03697  1.0000 -0.3263420483
N   N165      1.0  0.60417  0.03697  0.26851  1.0000 -0.3263420483
N   N166      1.0  0.60417  0.96303  0.73149  1.0000 -0.3263420483
N   N167      1.0  0.39583  0.03697  0.73149  1.0000 -0.3263420483
N   N168      1.0  0.39583  0.96303  0.26851  1.0000 -0.3263420483
N   N169      1.0  0.26851  0.96303  0.39583  1.0000 -0.3263420483
N   N170      1.0  0.73149  0.03697  0.39583  1.0000 -0.3263420483
N   N171      1.0  0.73149  0.96303  0.60417  1.0000 -0.3263420483
N   N172      1.0  0.26851  0.03697  0.60417  1.0000 -0.3263420483
N   N173      1.0  0.39583  0.26851  0.96303  1.0000 -0.3263420483
N   N174      1.0  0.39583  0.73149  0.03697  1.0000 -0.3263420483
N   N175      1.0  0.60417  0.73149  0.96303  1.0000 -0.3263420483
N   N176      1.0  0.60417  0.26851  0.03697  1.0000 -0.3263420483
N   N177      1.0  0.96303  0.39583  0.26851  1.0000 -0.3263420483
N   N178      1.0  0.03697  0.39583  0.73149  1.0000 -0.3263420483
N   N179      1.0  0.96303  0.60417  0.73149  1.0000 -0.3263420483
N   N180      1.0  0.03697  0.60417  0.26851  1.0000 -0.3263420483
N   N181      1.0  0.96303  0.26851  0.60417  1.0000 -0.3263420483
N   N182      1.0  0.03697  0.73149  0.60417  1.0000 -0.3263420483
N   N183      1.0  0.96303  0.73149  0.39583  1.0000 -0.3263420483
N   N184      1.0  0.03697  0.26851  0.39583  1.0000 -0.3263420483
N   N185      1.0  0.26851  0.39583  0.03697  1.0000 -0.3263420483
N   N186      1.0  0.73149  0.39583  0.96303  1.0000 -0.3263420483
N   N187      1.0  0.73149  0.60417  0.03697  1.0000 -0.3263420483
N   N188      1.0  0.26851  0.60417  0.96303  1.0000 -0.3263420483
N   N189      1.0  0.39583  0.96303  0.73149  1.0000 -0.3263420483
N   N190      1.0  0.39583  0.03697  0.26851  1.0000 -0.3263420483
N   N191      1.0  0.60417  0.96303  0.26851  1.0000 -0.3263420483
N   N192      1.0  0.60417  0.03697  0.73149  1.0000 -0.3263420483
O   O1        1.0  0.20754  0.70027  0.08140  1.0000 -0.4963645655
O   O2        1.0  0.79246  0.29973  0.08140  1.0000 -0.4963645655
O   O3        1.0  0.79246  0.70027  0.91860  1.0000 -0.4963645655
O   O4        1.0  0.20754  0.29973  0.91860  1.0000 -0.4963645655
O   O5        1.0  0.08140  0.20754  0.70027  1.0000 -0.4963645655
O   O6        1.0  0.08140  0.79246  0.29973  1.0000 -0.4963645655
O   O7        1.0  0.91860  0.79246  0.70027  1.0000 -0.4963645655
O   O8        1.0  0.91860  0.20754  0.29973  1.0000 -0.4963645655
O   O9        1.0  0.70027  0.08140  0.20754  1.0000 -0.4963645655
O   O10       1.0  0.29973  0.08140  0.79246  1.0000 -0.4963645655
O   O11       1.0  0.70027  0.91860  0.79246  1.0000 -0.4963645655
O   O12       1.0  0.29973  0.91860  0.20754  1.0000 -0.4963645655
O   O13       1.0  0.70027  0.20754  0.91860  1.0000 -0.4963645655
O   O14       1.0  0.29973  0.79246  0.91860  1.0000 -0.4963645655
O   O15       1.0  0.70027  0.79246  0.08140  1.0000 -0.4963645655
O   O16       1.0  0.29973  0.20754  0.08140  1.0000 -0.4963645655
O   O17       1.0  0.20754  0.08140  0.29973  1.0000 -0.4963645655
O   O18       1.0  0.79246  0.08140  0.70027  1.0000 -0.4963645655
O   O19       1.0  0.79246  0.91860  0.29973  1.0000 -0.4963645655
O   O20       1.0  0.20754  0.91860  0.70027  1.0000 -0.4963645655
O   O21       1.0  0.08140  0.70027  0.79246  1.0000 -0.4963645655
O   O22       1.0  0.08140  0.29973  0.20754  1.0000 -0.4963645655
O   O23       1.0  0.91860  0.70027  0.20754  1.0000 -0.4963645655
O   O24       1.0  0.91860  0.29973  0.79246  1.0000 -0.4963645655
O   O25       1.0  0.79246  0.29973  0.91860  1.0000 -0.4963645655
O   O26       1.0  0.20754  0.70027  0.91860  1.0000 -0.4963645655
O   O27       1.0  0.20754  0.29973  0.08140  1.0000 -0.4963645655
O   O28       1.0  0.79246  0.70027  0.08140  1.0000 -0.4963645655
O   O29       1.0  0.91860  0.79246  0.29973  1.0000 -0.4963645655
O   O30       1.0  0.91860  0.20754  0.70027  1.0000 -0.4963645655
O   O31       1.0  0.08140  0.20754  0.29973  1.0000 -0.4963645655
O   O32       1.0  0.08140  0.79246  0.70027  1.0000 -0.4963645655
O   O33       1.0  0.29973  0.91860  0.79246  1.0000 -0.4963645655
O   O34       1.0  0.70027  0.91860  0.20754  1.0000 -0.4963645655
O   O35       1.0  0.29973  0.08140  0.20754  1.0000 -0.4963645655
O   O36       1.0  0.70027  0.08140  0.79246  1.0000 -0.4963645655
O   O37       1.0  0.29973  0.79246  0.08140  1.0000 -0.4963645655
O   O38       1.0  0.70027  0.20754  0.08140  1.0000 -0.4963645655
O   O39       1.0  0.29973  0.20754  0.91860  1.0000 -0.4963645655
O   O40       1.0  0.70027  0.79246  0.91860  1.0000 -0.4963645655
O   O41       1.0  0.79246  0.91860  0.70027  1.0000 -0.4963645655
O   O42       1.0  0.20754  0.91860  0.29973  1.0000 -0.4963645655
O   O43       1.0  0.20754  0.08140  0.70027  1.0000 -0.4963645655
O   O44       1.0  0.79246  0.08140  0.29973  1.0000 -0.4963645655
O   O45       1.0  0.91860  0.29973  0.20754  1.0000 -0.4963645655
O   O46       1.0  0.91860  0.70027  0.79246  1.0000 -0.4963645655
O   O47       1.0  0.08140  0.29973  0.79246  1.0000 -0.4963645655
O   O48       1.0  0.08140  0.70027  0.20754  1.0000 -0.4963645655
O   O49       1.0  0.70754  0.20027  0.58140  1.0000 -0.4963645655
O   O50       1.0  0.29246  0.79973  0.58140  1.0000 -0.4963645655
O   O51       1.0  0.29246  0.20027  0.41860  1.0000 -0.4963645655
O   O52       1.0  0.70754  0.79973  0.41860  1.0000 -0.4963645655
O   O53       1.0  0.58140  0.70754  0.20027  1.0000 -0.4963645655
O   O54       1.0  0.58140  0.29246  0.79973  1.0000 -0.4963645655
O   O55       1.0  0.41860  0.29246  0.20027  1.0000 -0.4963645655
O   O56       1.0  0.41860  0.70754  0.79973  1.0000 -0.4963645655
O   O57       1.0  0.20027  0.58140  0.70754  1.0000 -0.4963645655
O   O58       1.0  0.79973  0.58140  0.29246  1.0000 -0.4963645655
O   O59       1.0  0.20027  0.41860  0.29246  1.0000 -0.4963645655
O   O60       1.0  0.79973  0.41860  0.70754  1.0000 -0.4963645655
O   O61       1.0  0.20027  0.70754  0.41860  1.0000 -0.4963645655
O   O62       1.0  0.79973  0.29246  0.41860  1.0000 -0.4963645655
O   O63       1.0  0.20027  0.29246  0.58140  1.0000 -0.4963645655
O   O64       1.0  0.79973  0.70754  0.58140  1.0000 -0.4963645655
O   O65       1.0  0.70754  0.58140  0.79973  1.0000 -0.4963645655
O   O66       1.0  0.29246  0.58140  0.20027  1.0000 -0.4963645655
O   O67       1.0  0.29246  0.41860  0.79973  1.0000 -0.4963645655
O   O68       1.0  0.70754  0.41860  0.20027  1.0000 -0.4963645655
O   O69       1.0  0.58140  0.20027  0.29246  1.0000 -0.4963645655
O   O70       1.0  0.58140  0.79973  0.70754  1.0000 -0.4963645655
O   O71       1.0  0.41860  0.20027  0.70754  1.0000 -0.4963645655
O   O72       1.0  0.41860  0.79973  0.29246  1.0000 -0.4963645655
O   O73       1.0  0.29246  0.79973  0.41860  1.0000 -0.4963645655
O   O74       1.0  0.70754  0.20027  0.41860  1.0000 -0.4963645655
O   O75       1.0  0.70754  0.79973  0.58140  1.0000 -0.4963645655
O   O76       1.0  0.29246  0.20027  0.58140  1.0000 -0.4963645655
O   O77       1.0  0.41860  0.29246  0.79973  1.0000 -0.4963645655
O   O78       1.0  0.41860  0.70754  0.20027  1.0000 -0.4963645655
O   O79       1.0  0.58140  0.70754  0.79973  1.0000 -0.4963645655
O   O80       1.0  0.58140  0.29246  0.20027  1.0000 -0.4963645655
O   O81       1.0  0.79973  0.41860  0.29246  1.0000 -0.4963645655
O   O82       1.0  0.20027  0.41860  0.70754  1.0000 -0.4963645655
O   O83       1.0  0.79973  0.58140  0.70754  1.0000 -0.4963645655
O   O84       1.0  0.20027  0.58140  0.29246  1.0000 -0.4963645655
O   O85       1.0  0.79973  0.29246  0.58140  1.0000 -0.4963645655
O   O86       1.0  0.20027  0.70754  0.58140  1.0000 -0.4963645655
O   O87       1.0  0.79973  0.70754  0.41860  1.0000 -0.4963645655
O   O88       1.0  0.20027  0.29246  0.41860  1.0000 -0.4963645655
O   O89       1.0  0.29246  0.41860  0.20027  1.0000 -0.4963645655
O   O90       1.0  0.70754  0.41860  0.79973  1.0000 -0.4963645655
O   O91       1.0  0.70754  0.58140  0.20027  1.0000 -0.4963645655
O   O92       1.0  0.29246  0.58140  0.79973  1.0000 -0.4963645655
O   O93       1.0  0.41860  0.79973  0.70754  1.0000 -0.4963645655
O   O94       1.0  0.41860  0.20027  0.29246  1.0000 -0.4963645655
O   O95       1.0  0.58140  0.79973  0.29246  1.0000 -0.4963645655
O   O96       1.0  0.58140  0.20027  0.70754  1.0000 -0.4963645655
O   O97       1.0  0.18816  0.74661  0.13080  1.0000 -0.4397564669
O   O98       1.0  0.81184  0.25339  0.13080  1.0000 -0.4397564669
O   O99       1.0  0.81184  0.74661  0.86920  1.0000 -0.4397564669
O   O100      1.0  0.18816  0.25339  0.86920  1.0000 -0.4397564669
O   O101      1.0  0.13080  0.18816  0.74661  1.0000 -0.4397564669
O   O102      1.0  0.13080  0.81184  0.25339  1.0000 -0.4397564669
O   O103      1.0  0.86920  0.81184  0.74661  1.0000 -0.4397564669
O   O104      1.0  0.86920  0.18816  0.25339  1.0000 -0.4397564669
O   O105      1.0  0.74661  0.13080  0.18816  1.0000 -0.4397564669
O   O106      1.0  0.25339  0.13080  0.81184  1.0000 -0.4397564669
O   O107      1.0  0.74661  0.86920  0.81184  1.0000 -0.4397564669
O   O108      1.0  0.25339  0.86920  0.18816  1.0000 -0.4397564669
O   O109      1.0  0.74661  0.18816  0.86920  1.0000 -0.4397564669
O   O110      1.0  0.25339  0.81184  0.86920  1.0000 -0.4397564669
O   O111      1.0  0.74661  0.81184  0.13080  1.0000 -0.4397564669
O   O112      1.0  0.25339  0.18816  0.13080  1.0000 -0.4397564669
O   O113      1.0  0.18816  0.13080  0.25339  1.0000 -0.4397564669
O   O114      1.0  0.81184  0.13080  0.74661  1.0000 -0.4397564669
O   O115      1.0  0.81184  0.86920  0.25339  1.0000 -0.4397564669
O   O116      1.0  0.18816  0.86920  0.74661  1.0000 -0.4397564669
O   O117      1.0  0.13080  0.74661  0.81184  1.0000 -0.4397564669
O   O118      1.0  0.13080  0.25339  0.18816  1.0000 -0.4397564669
O   O119      1.0  0.86920  0.74661  0.18816  1.0000 -0.4397564669
O   O120      1.0  0.86920  0.25339  0.81184  1.0000 -0.4397564669
O   O121      1.0  0.81184  0.25339  0.86920  1.0000 -0.4397564669
O   O122      1.0  0.18816  0.74661  0.86920  1.0000 -0.4397564669
O   O123      1.0  0.18816  0.25339  0.13080  1.0000 -0.4397564669
O   O124      1.0  0.81184  0.74661  0.13080  1.0000 -0.4397564669
O   O125      1.0  0.86920  0.81184  0.25339  1.0000 -0.4397564669
O   O126      1.0  0.86920  0.18816  0.74661  1.0000 -0.4397564669
O   O127      1.0  0.13080  0.18816  0.25339  1.0000 -0.4397564669
O   O128      1.0  0.13080  0.81184  0.74661  1.0000 -0.4397564669
O   O129      1.0  0.25339  0.86920  0.81184  1.0000 -0.4397564669
O   O130      1.0  0.74661  0.86920  0.18816  1.0000 -0.4397564669
O   O131      1.0  0.25339  0.13080  0.18816  1.0000 -0.4397564669
O   O132      1.0  0.74661  0.13080  0.81184  1.0000 -0.4397564669
O   O133      1.0  0.25339  0.81184  0.13080  1.0000 -0.4397564669
O   O134      1.0  0.74661  0.18816  0.13080  1.0000 -0.4397564669
O   O135      1.0  0.25339  0.18816  0.86920  1.0000 -0.4397564669
O   O136      1.0  0.74661  0.81184  0.86920  1.0000 -0.4397564669
O   O137      1.0  0.81184  0.86920  0.74661  1.0000 -0.4397564669
O   O138      1.0  0.18816  0.86920  0.25339  1.0000 -0.4397564669
O   O139      1.0  0.18816  0.13080  0.74661  1.0000 -0.4397564669
O   O140      1.0  0.81184  0.13080  0.25339  1.0000 -0.4397564669
O   O141      1.0  0.86920  0.25339  0.18816  1.0000 -0.4397564669
O   O142      1.0  0.86920  0.74661  0.81184  1.0000 -0.4397564669
O   O143      1.0  0.13080  0.25339  0.81184  1.0000 -0.4397564669
O   O144      1.0  0.13080  0.74661  0.18816  1.0000 -0.4397564669
O   O145      1.0  0.68816  0.24661  0.63080  1.0000 -0.4397564669
O   O146      1.0  0.31184  0.75339  0.63080  1.0000 -0.4397564669
O   O147      1.0  0.31184  0.24661  0.36920  1.0000 -0.4397564669
O   O148      1.0  0.68816  0.75339  0.36920  1.0000 -0.4397564669
O   O149      1.0  0.63080  0.68816  0.24661  1.0000 -0.4397564669
O   O150      1.0  0.63080  0.31184  0.75339  1.0000 -0.4397564669
O   O151      1.0  0.36920  0.31184  0.24661  1.0000 -0.4397564669
O   O152      1.0  0.36920  0.68816  0.75339  1.0000 -0.4397564669
O   O153      1.0  0.24661  0.63080  0.68816  1.0000 -0.4397564669
O   O154      1.0  0.75339  0.63080  0.31184  1.0000 -0.4397564669
O   O155      1.0  0.24661  0.36920  0.31184  1.0000 -0.4397564669
O   O156      1.0  0.75339  0.36920  0.68816  1.0000 -0.4397564669
O   O157      1.0  0.24661  0.68816  0.36920  1.0000 -0.4397564669
O   O158      1.0  0.75339  0.31184  0.36920  1.0000 -0.4397564669
O   O159      1.0  0.24661  0.31184  0.63080  1.0000 -0.4397564669
O   O160      1.0  0.75339  0.68816  0.63080  1.0000 -0.4397564669
O   O161      1.0  0.68816  0.63080  0.75339  1.0000 -0.4397564669
O   O162      1.0  0.31184  0.63080  0.24661  1.0000 -0.4397564669
O   O163      1.0  0.31184  0.36920  0.75339  1.0000 -0.4397564669
O   O164      1.0  0.68816  0.36920  0.24661  1.0000 -0.4397564669
O   O165      1.0  0.63080  0.24661  0.31184  1.0000 -0.4397564669
O   O166      1.0  0.63080  0.75339  0.68816  1.0000 -0.4397564669
O   O167      1.0  0.36920  0.24661  0.68816  1.0000 -0.4397564669
O   O168      1.0  0.36920  0.75339  0.31184  1.0000 -0.4397564669
O   O169      1.0  0.31184  0.75339  0.36920  1.0000 -0.4397564669
O   O170      1.0  0.68816  0.24661  0.36920  1.0000 -0.4397564669
O   O171      1.0  0.68816  0.75339  0.63080  1.0000 -0.4397564669
O   O172      1.0  0.31184  0.24661  0.63080  1.0000 -0.4397564669
O   O173      1.0  0.36920  0.31184  0.75339  1.0000 -0.4397564669
O   O174      1.0  0.36920  0.68816  0.24661  1.0000 -0.4397564669
O   O175      1.0  0.63080  0.68816  0.75339  1.0000 -0.4397564669
O   O176      1.0  0.63080  0.31184  0.24661  1.0000 -0.4397564669
O   O177      1.0  0.75339  0.36920  0.31184  1.0000 -0.4397564669
O   O178      1.0  0.24661  0.36920  0.68816  1.0000 -0.4397564669
O   O179      1.0  0.75339  0.63080  0.68816  1.0000 -0.4397564669
O   O180      1.0  0.24661  0.63080  0.31184  1.0000 -0.4397564669
O   O181      1.0  0.75339  0.31184  0.63080  1.0000 -0.4397564669
O   O182      1.0  0.24661  0.68816  0.63080  1.0000 -0.4397564669
O   O183      1.0  0.75339  0.68816  0.36920  1.0000 -0.4397564669
O   O184      1.0  0.24661  0.31184  0.36920  1.0000 -0.4397564669
O   O185      1.0  0.31184  0.36920  0.24661  1.0000 -0.4397564669
O   O186      1.0  0.68816  0.36920  0.75339  1.0000 -0.4397564669
O   O187      1.0  0.68816  0.63080  0.24661  1.0000 -0.4397564669
O   O188      1.0  0.31184  0.63080  0.75339  1.0000 -0.4397564669
O   O189      1.0  0.36920  0.75339  0.68816  1.0000 -0.4397564669
O   O190      1.0  0.36920  0.24661  0.31184  1.0000 -0.4397564669
O   O191      1.0  0.63080  0.75339  0.31184  1.0000 -0.4397564669
O   O192      1.0  0.63080  0.24661  0.68816  1.0000 -0.4397564669
O   O193      1.0  0.16993  0.58960  0.05869  1.0000 -0.4261506838
O   O194      1.0  0.83007  0.41040  0.05869  1.0000 -0.4261506838
O   O195      1.0  0.83007  0.58960  0.94131  1.0000 -0.4261506838
O   O196      1.0  0.16993  0.41040  0.94131  1.0000 -0.4261506838
O   O197      1.0  0.05869  0.16993  0.58960  1.0000 -0.4261506838
O   O198      1.0  0.05869  0.83007  0.41040  1.0000 -0.4261506838
O   O199      1.0  0.94131  0.83007  0.58960  1.0000 -0.4261506838
O   O200      1.0  0.94131  0.16993  0.41040  1.0000 -0.4261506838
O   O201      1.0  0.58960  0.05869  0.16993  1.0000 -0.4261506838
O   O202      1.0  0.41040  0.05869  0.83007  1.0000 -0.4261506838
O   O203      1.0  0.58960  0.94131  0.83007  1.0000 -0.4261506838
O   O204      1.0  0.41040  0.94131  0.16993  1.0000 -0.4261506838
O   O205      1.0  0.58960  0.16993  0.94131  1.0000 -0.4261506838
O   O206      1.0  0.41040  0.83007  0.94131  1.0000 -0.4261506838
O   O207      1.0  0.58960  0.83007  0.05869  1.0000 -0.4261506838
O   O208      1.0  0.41040  0.16993  0.05869  1.0000 -0.4261506838
O   O209      1.0  0.16993  0.05869  0.41040  1.0000 -0.4261506838
O   O210      1.0  0.83007  0.05869  0.58960  1.0000 -0.4261506838
O   O211      1.0  0.83007  0.94131  0.41040  1.0000 -0.4261506838
O   O212      1.0  0.16993  0.94131  0.58960  1.0000 -0.4261506838
O   O213      1.0  0.05869  0.58960  0.83007  1.0000 -0.4261506838
O   O214      1.0  0.05869  0.41040  0.16993  1.0000 -0.4261506838
O   O215      1.0  0.94131  0.58960  0.16993  1.0000 -0.4261506838
O   O216      1.0  0.94131  0.41040  0.83007  1.0000 -0.4261506838
O   O217      1.0  0.83007  0.41040  0.94131  1.0000 -0.4261506838
O   O218      1.0  0.16993  0.58960  0.94131  1.0000 -0.4261506838
O   O219      1.0  0.16993  0.41040  0.05869  1.0000 -0.4261506838
O   O220      1.0  0.83007  0.58960  0.05869  1.0000 -0.4261506838
O   O221      1.0  0.94131  0.83007  0.41040  1.0000 -0.4261506838
O   O222      1.0  0.94131  0.16993  0.58960  1.0000 -0.4261506838
O   O223      1.0  0.05869  0.16993  0.41040  1.0000 -0.4261506838
O   O224      1.0  0.05869  0.83007  0.58960  1.0000 -0.4261506838
O   O225      1.0  0.41040  0.94131  0.83007  1.0000 -0.4261506838
O   O226      1.0  0.58960  0.94131  0.16993  1.0000 -0.4261506838
O   O227      1.0  0.41040  0.05869  0.16993  1.0000 -0.4261506838
O   O228      1.0  0.58960  0.05869  0.83007  1.0000 -0.4261506838
O   O229      1.0  0.41040  0.83007  0.05869  1.0000 -0.4261506838
O   O230      1.0  0.58960  0.16993  0.05869  1.0000 -0.4261506838
O   O231      1.0  0.41040  0.16993  0.94131  1.0000 -0.4261506838
O   O232      1.0  0.58960  0.83007  0.94131  1.0000 -0.4261506838
O   O233      1.0  0.83007  0.94131  0.58960  1.0000 -0.4261506838
O   O234      1.0  0.16993  0.94131  0.41040  1.0000 -0.4261506838
O   O235      1.0  0.16993  0.05869  0.58960  1.0000 -0.4261506838
O   O236      1.0  0.83007  0.05869  0.41040  1.0000 -0.4261506838
O   O237      1.0  0.94131  0.41040  0.16993  1.0000 -0.4261506838
O   O238      1.0  0.94131  0.58960  0.83007  1.0000 -0.4261506838
O   O239      1.0  0.05869  0.41040  0.83007  1.0000 -0.4261506838
O   O240      1.0  0.05869  0.58960  0.16993  1.0000 -0.4261506838
O   O241      1.0  0.66993  0.08960  0.55869  1.0000 -0.4261506838
O   O242      1.0  0.33007  0.91040  0.55869  1.0000 -0.4261506838
O   O243      1.0  0.33007  0.08960  0.44131  1.0000 -0.4261506838
O   O244      1.0  0.66993  0.91040  0.44131  1.0000 -0.4261506838
O   O245      1.0  0.55869  0.66993  0.08960  1.0000 -0.4261506838
O   O246      1.0  0.55869  0.33007  0.91040  1.0000 -0.4261506838
O   O247      1.0  0.44131  0.33007  0.08960  1.0000 -0.4261506838
O   O248      1.0  0.44131  0.66993  0.91040  1.0000 -0.4261506838
O   O249      1.0  0.08960  0.55869  0.66993  1.0000 -0.4261506838
O   O250      1.0  0.91040  0.55869  0.33007  1.0000 -0.4261506838
O   O251      1.0  0.08960  0.44131  0.33007  1.0000 -0.4261506838
O   O252      1.0  0.91040  0.44131  0.66993  1.0000 -0.4261506838
O   O253      1.0  0.08960  0.66993  0.44131  1.0000 -0.4261506838
O   O254      1.0  0.91040  0.33007  0.44131  1.0000 -0.4261506838
O   O255      1.0  0.08960  0.33007  0.55869  1.0000 -0.4261506838
O   O256      1.0  0.91040  0.66993  0.55869  1.0000 -0.4261506838
O   O257      1.0  0.66993  0.55869  0.91040  1.0000 -0.4261506838
O   O258      1.0  0.33007  0.55869  0.08960  1.0000 -0.4261506838
O   O259      1.0  0.33007  0.44131  0.91040  1.0000 -0.4261506838
O   O260      1.0  0.66993  0.44131  0.08960  1.0000 -0.4261506838
O   O261      1.0  0.55869  0.08960  0.33007  1.0000 -0.4261506838
O   O262      1.0  0.55869  0.91040  0.66993  1.0000 -0.4261506838
O   O263      1.0  0.44131  0.08960  0.66993  1.0000 -0.4261506838
O   O264      1.0  0.44131  0.91040  0.33007  1.0000 -0.4261506838
O   O265      1.0  0.33007  0.91040  0.44131  1.0000 -0.4261506838
O   O266      1.0  0.66993  0.08960  0.44131  1.0000 -0.4261506838
O   O267      1.0  0.66993  0.91040  0.55869  1.0000 -0.4261506838
O   O268      1.0  0.33007  0.08960  0.55869  1.0000 -0.4261506838
O   O269      1.0  0.44131  0.33007  0.91040  1.0000 -0.4261506838
O   O270      1.0  0.44131  0.66993  0.08960  1.0000 -0.4261506838
O   O271      1.0  0.55869  0.66993  0.91040  1.0000 -0.4261506838
O   O272      1.0  0.55869  0.33007  0.08960  1.0000 -0.4261506838
O   O273      1.0  0.91040  0.44131  0.33007  1.0000 -0.4261506838
O   O274      1.0  0.08960  0.44131  0.66993  1.0000 -0.4261506838
O   O275      1.0  0.91040  0.55869  0.66993  1.0000 -0.4261506838
O   O276      1.0  0.08960  0.55869  0.33007  1.0000 -0.4261506838
O   O277      1.0  0.91040  0.33007  0.55869  1.0000 -0.4261506838
O   O278      1.0  0.08960  0.66993  0.55869  1.0000 -0.4261506838
O   O279      1.0  0.91040  0.66993  0.44131  1.0000 -0.4261506838
O   O280      1.0  0.08960  0.33007  0.44131  1.0000 -0.4261506838
O   O281      1.0  0.33007  0.44131  0.08960  1.0000 -0.4261506838
O   O282      1.0  0.66993  0.44131  0.91040  1.0000 -0.4261506838
O   O283      1.0  0.66993  0.55869  0.08960  1.0000 -0.4261506838
O   O284      1.0  0.33007  0.55869  0.91040  1.0000 -0.4261506838
O   O285      1.0  0.44131  0.91040  0.66993  1.0000 -0.4261506838
O   O286      1.0  0.44131  0.08960  0.33007  1.0000 -0.4261506838
O   O287      1.0  0.55869  0.91040  0.33007  1.0000 -0.4261506838
O   O288      1.0  0.55869  0.08960  0.66993  1.0000 -0.4261506838
O   O289      1.0  0.12374  0.53815  0.05981  1.0000 -0.3168991933
O   O290      1.0  0.87626  0.46185  0.05981  1.0000 -0.3168991933
O   O291      1.0  0.87626  0.53815  0.94019  1.0000 -0.3168991933
O   O292      1.0  0.12374  0.46185  0.94019  1.0000 -0.3168991933
O   O293      1.0  0.05981  0.12374  0.53815  1.0000 -0.3168991933
O   O294      1.0  0.05981  0.87626  0.46185  1.0000 -0.3168991933
O   O295      1.0  0.94019  0.87626  0.53815  1.0000 -0.3168991933
O   O296      1.0  0.94019  0.12374  0.46185  1.0000 -0.3168991933
O   O297      1.0  0.53815  0.05981  0.12374  1.0000 -0.3168991933
O   O298      1.0  0.46185  0.05981  0.87626  1.0000 -0.3168991933
O   O299      1.0  0.53815  0.94019  0.87626  1.0000 -0.3168991933
O   O300      1.0  0.46185  0.94019  0.12374  1.0000 -0.3168991933
O   O301      1.0  0.53815  0.12374  0.94019  1.0000 -0.3168991933
O   O302      1.0  0.46185  0.87626  0.94019  1.0000 -0.3168991933
O   O303      1.0  0.53815  0.87626  0.05981  1.0000 -0.3168991933
O   O304      1.0  0.46185  0.12374  0.05981  1.0000 -0.3168991933
O   O305      1.0  0.12374  0.05981  0.46185  1.0000 -0.3168991933
O   O306      1.0  0.87626  0.05981  0.53815  1.0000 -0.3168991933
O   O307      1.0  0.87626  0.94019  0.46185  1.0000 -0.3168991933
O   O308      1.0  0.12374  0.94019  0.53815  1.0000 -0.3168991933
O   O309      1.0  0.05981  0.53815  0.87626  1.0000 -0.3168991933
O   O310      1.0  0.05981  0.46185  0.12374  1.0000 -0.3168991933
O   O311      1.0  0.94019  0.53815  0.12374  1.0000 -0.3168991933
O   O312      1.0  0.94019  0.46185  0.87626  1.0000 -0.3168991933
O   O313      1.0  0.87626  0.46185  0.94019  1.0000 -0.3168991933
O   O314      1.0  0.12374  0.53815  0.94019  1.0000 -0.3168991933
O   O315      1.0  0.12374  0.46185  0.05981  1.0000 -0.3168991933
O   O316      1.0  0.87626  0.53815  0.05981  1.0000 -0.3168991933
O   O317      1.0  0.94019  0.87626  0.46185  1.0000 -0.3168991933
O   O318      1.0  0.94019  0.12374  0.53815  1.0000 -0.3168991933
O   O319      1.0  0.05981  0.12374  0.46185  1.0000 -0.3168991933
O   O320      1.0  0.05981  0.87626  0.53815  1.0000 -0.3168991933
O   O321      1.0  0.46185  0.94019  0.87626  1.0000 -0.3168991933
O   O322      1.0  0.53815  0.94019  0.12374  1.0000 -0.3168991933
O   O323      1.0  0.46185  0.05981  0.12374  1.0000 -0.3168991933
O   O324      1.0  0.53815  0.05981  0.87626  1.0000 -0.3168991933
O   O325      1.0  0.46185  0.87626  0.05981  1.0000 -0.3168991933
O   O326      1.0  0.53815  0.12374  0.05981  1.0000 -0.3168991933
O   O327      1.0  0.46185  0.12374  0.94019  1.0000 -0.3168991933
O   O328      1.0  0.53815  0.87626  0.94019  1.0000 -0.3168991933
O   O329      1.0  0.87626  0.94019  0.53815  1.0000 -0.3168991933
O   O330      1.0  0.12374  0.94019  0.46185  1.0000 -0.3168991933
O   O331      1.0  0.12374  0.05981  0.53815  1.0000 -0.3168991933
O   O332      1.0  0.87626  0.05981  0.46185  1.0000 -0.3168991933
O   O333      1.0  0.94019  0.46185  0.12374  1.0000 -0.3168991933
O   O334      1.0  0.94019  0.53815  0.87626  1.0000 -0.3168991933
O   O335      1.0  0.05981  0.46185  0.87626  1.0000 -0.3168991933
O   O336      1.0  0.05981  0.53815  0.12374  1.0000 -0.3168991933
O   O337      1.0  0.62374  0.03815  0.55981  1.0000 -0.3168991933
O   O338      1.0  0.37626  0.96185  0.55981  1.0000 -0.3168991933
O   O339      1.0  0.37626  0.03815  0.44019  1.0000 -0.3168991933
O   O340      1.0  0.62374  0.96185  0.44019  1.0000 -0.3168991933
O   O341      1.0  0.55981  0.62374  0.03815  1.0000 -0.3168991933
O   O342      1.0  0.55981  0.37626  0.96185  1.0000 -0.3168991933
O   O343      1.0  0.44019  0.37626  0.03815  1.0000 -0.3168991933
O   O344      1.0  0.44019  0.62374  0.96185  1.0000 -0.3168991933
O   O345      1.0  0.03815  0.55981  0.62374  1.0000 -0.3168991933
O   O346      1.0  0.96185  0.55981  0.37626  1.0000 -0.3168991933
O   O347      1.0  0.03815  0.44019  0.37626  1.0000 -0.3168991933
O   O348      1.0  0.96185  0.44019  0.62374  1.0000 -0.3168991933
O   O349      1.0  0.03815  0.62374  0.44019  1.0000 -0.3168991933
O   O350      1.0  0.96185  0.37626  0.44019  1.0000 -0.3168991933
O   O351      1.0  0.03815  0.37626  0.55981  1.0000 -0.3168991933
O   O352      1.0  0.96185  0.62374  0.55981  1.0000 -0.3168991933
O   O353      1.0  0.62374  0.55981  0.96185  1.0000 -0.3168991933
O   O354      1.0  0.37626  0.55981  0.03815  1.0000 -0.3168991933
O   O355      1.0  0.37626  0.44019  0.96185  1.0000 -0.3168991933
O   O356      1.0  0.62374  0.44019  0.03815  1.0000 -0.3168991933
O   O357      1.0  0.55981  0.03815  0.37626  1.0000 -0.3168991933
O   O358      1.0  0.55981  0.96185  0.62374  1.0000 -0.3168991933
O   O359      1.0  0.44019  0.03815  0.62374  1.0000 -0.3168991933
O   O360      1.0  0.44019  0.96185  0.37626  1.0000 -0.3168991933
O   O361      1.0  0.37626  0.96185  0.44019  1.0000 -0.3168991933
O   O362      1.0  0.62374  0.03815  0.44019  1.0000 -0.3168991933
O   O363      1.0  0.62374  0.96185  0.55981  1.0000 -0.3168991933
O   O364      1.0  0.37626  0.03815  0.55981  1.0000 -0.3168991933
O   O365      1.0  0.44019  0.37626  0.96185  1.0000 -0.3168991933
O   O366      1.0  0.44019  0.62374  0.03815  1.0000 -0.3168991933
O   O367      1.0  0.55981  0.62374  0.96185  1.0000 -0.3168991933
O   O368      1.0  0.55981  0.37626  0.03815  1.0000 -0.3168991933
O   O369      1.0  0.96185  0.44019  0.37626  1.0000 -0.3168991933
O   O370      1.0  0.03815  0.44019  0.62374  1.0000 -0.3168991933
O   O371      1.0  0.96185  0.55981  0.62374  1.0000 -0.3168991933
O   O372      1.0  0.03815  0.55981  0.37626  1.0000 -0.3168991933
O   O373      1.0  0.96185  0.37626  0.55981  1.0000 -0.3168991933
O   O374      1.0  0.03815  0.62374  0.55981  1.0000 -0.3168991933
O   O375      1.0  0.96185  0.62374  0.44019  1.0000 -0.3168991933
O   O376      1.0  0.03815  0.37626  0.44019  1.0000 -0.3168991933
O   O377      1.0  0.37626  0.44019  0.03815  1.0000 -0.3168991933
O   O378      1.0  0.62374  0.44019  0.96185  1.0000 -0.3168991933
O   O379      1.0  0.62374  0.55981  0.03815  1.0000 -0.3168991933
O   O380      1.0  0.37626  0.55981  0.96185  1.0000 -0.3168991933
O   O381      1.0  0.44019  0.96185  0.62374  1.0000 -0.3168991933
O   O382      1.0  0.44019  0.03815  0.37626  1.0000 -0.3168991933
O   O383      1.0  0.55981  0.96185  0.37626  1.0000 -0.3168991933
O   O384      1.0  0.55981  0.03815  0.62374  1.0000 -0.3168991933
O   O385      1.0  0.18097  0.93527  0.18097  1.0000 -0.7902662206
O   O386      1.0  0.81903  0.06473  0.18097  1.0000 -0.7902662206
O   O387      1.0  0.81903  0.93527  0.81903  1.0000 -0.7902662206
O   O388      1.0  0.18097  0.06473  0.81903  1.0000 -0.7902662206
O   O389      1.0  0.18097  0.18097  0.93527  1.0000 -0.7902662206
O   O390      1.0  0.18097  0.81903  0.06473  1.0000 -0.7902662206
O   O391      1.0  0.81903  0.81903  0.93527  1.0000 -0.7902662206
O   O392      1.0  0.81903  0.18097  0.06473  1.0000 -0.7902662206
O   O393      1.0  0.93527  0.18097  0.18097  1.0000 -0.7902662206
O   O394      1.0  0.06473  0.18097  0.81903  1.0000 -0.7902662206
O   O395      1.0  0.93527  0.81903  0.81903  1.0000 -0.7902662206
O   O396      1.0  0.06473  0.81903  0.18097  1.0000 -0.7902662206
O   O397      1.0  0.93527  0.18097  0.81903  1.0000 -0.7902662206
O   O398      1.0  0.06473  0.81903  0.81903  1.0000 -0.7902662206
O   O399      1.0  0.93527  0.81903  0.18097  1.0000 -0.7902662206
O   O400      1.0  0.06473  0.18097  0.18097  1.0000 -0.7902662206
O   O401      1.0  0.18097  0.18097  0.06473  1.0000 -0.7902662206
O   O402      1.0  0.81903  0.18097  0.93527  1.0000 -0.7902662206
O   O403      1.0  0.81903  0.81903  0.06473  1.0000 -0.7902662206
O   O404      1.0  0.18097  0.81903  0.93527  1.0000 -0.7902662206
O   O405      1.0  0.18097  0.93527  0.81903  1.0000 -0.7902662206
O   O406      1.0  0.18097  0.06473  0.18097  1.0000 -0.7902662206
O   O407      1.0  0.81903  0.93527  0.18097  1.0000 -0.7902662206
O   O408      1.0  0.81903  0.06473  0.81903  1.0000 -0.7902662206
O   O409      1.0  0.68097  0.43527  0.68097  1.0000 -0.7902662206
O   O410      1.0  0.31903  0.56473  0.68097  1.0000 -0.7902662206
O   O411      1.0  0.31903  0.43527  0.31903  1.0000 -0.7902662206
O   O412      1.0  0.68097  0.56473  0.31903  1.0000 -0.7902662206
O   O413      1.0  0.68097  0.68097  0.43527  1.0000 -0.7902662206
O   O414      1.0  0.68097  0.31903  0.56473  1.0000 -0.7902662206
O   O415      1.0  0.31903  0.31903  0.43527  1.0000 -0.7902662206
O   O416      1.0  0.31903  0.68097  0.56473  1.0000 -0.7902662206
O   O417      1.0  0.43527  0.68097  0.68097  1.0000 -0.7902662206
O   O418      1.0  0.56473  0.68097  0.31903  1.0000 -0.7902662206
O   O419      1.0  0.43527  0.31903  0.31903  1.0000 -0.7902662206
O   O420      1.0  0.56473  0.31903  0.68097  1.0000 -0.7902662206
O   O421      1.0  0.43527  0.68097  0.31903  1.0000 -0.7902662206
O   O422      1.0  0.56473  0.31903  0.31903  1.0000 -0.7902662206
O   O423      1.0  0.43527  0.31903  0.68097  1.0000 -0.7902662206
O   O424      1.0  0.56473  0.68097  0.68097  1.0000 -0.7902662206
O   O425      1.0  0.68097  0.68097  0.56473  1.0000 -0.7902662206
O   O426      1.0  0.31903  0.68097  0.43527  1.0000 -0.7902662206
O   O427      1.0  0.31903  0.31903  0.56473  1.0000 -0.7902662206
O   O428      1.0  0.68097  0.31903  0.43527  1.0000 -0.7902662206
O   O429      1.0  0.68097  0.43527  0.31903  1.0000 -0.7902662206
O   O430      1.0  0.68097  0.56473  0.68097  1.0000 -0.7902662206
O   O431      1.0  0.31903  0.43527  0.68097  1.0000 -0.7902662206
O   O432      1.0  0.31903  0.56473  0.31903  1.0000 -0.7902662206
O   O433      1.0  0.16891  0.00000  0.23967  1.0000 -0.7902662206
O   O434      1.0  0.83109  0.00000  0.23967  1.0000 -0.7902662206
O   O435      1.0  0.83109  0.00000  0.76033  1.0000 -0.7902662206
O   O436      1.0  0.16891  0.00000  0.76033  1.0000 -0.7902662206
O   O437      1.0  0.23967  0.16891  0.00000  1.0000 -0.7902662206
O   O438      1.0  0.23967  0.83109  0.00000  1.0000 -0.7902662206
O   O439      1.0  0.76033  0.83109  0.00000  1.0000 -0.7902662206
O   O440      1.0  0.76033  0.16891  0.00000  1.0000 -0.7902662206
O   O441      1.0  0.00000  0.23967  0.16891  1.0000 -0.7902662206
O   O442      1.0  0.00000  0.23967  0.83109  1.0000 -0.7902662206
O   O443      1.0  0.00000  0.76033  0.83109  1.0000 -0.7902662206
O   O444      1.0  0.00000  0.76033  0.16891  1.0000 -0.7902662206
O   O445      1.0  0.00000  0.16891  0.76033  1.0000 -0.7902662206
O   O446      1.0  0.00000  0.83109  0.76033  1.0000 -0.7902662206
O   O447      1.0  0.00000  0.83109  0.23967  1.0000 -0.7902662206
O   O448      1.0  0.00000  0.16891  0.23967  1.0000 -0.7902662206
O   O449      1.0  0.16891  0.23967  0.00000  1.0000 -0.7902662206
O   O450      1.0  0.83109  0.23967  0.00000  1.0000 -0.7902662206
O   O451      1.0  0.83109  0.76033  0.00000  1.0000 -0.7902662206
O   O452      1.0  0.16891  0.76033  0.00000  1.0000 -0.7902662206
O   O453      1.0  0.23967  0.00000  0.83109  1.0000 -0.7902662206
O   O454      1.0  0.23967  0.00000  0.16891  1.0000 -0.7902662206
O   O455      1.0  0.76033  0.00000  0.16891  1.0000 -0.7902662206
O   O456      1.0  0.76033  0.00000  0.83109  1.0000 -0.7902662206
O   O457      1.0  0.66891  0.50000  0.73967  1.0000 -0.7902662206
O   O458      1.0  0.33109  0.50000  0.73967  1.0000 -0.7902662206
O   O459      1.0  0.33109  0.50000  0.26033  1.0000 -0.7902662206
O   O460      1.0  0.66891  0.50000  0.26033  1.0000 -0.7902662206
O   O461      1.0  0.73967  0.66891  0.50000  1.0000 -0.7902662206
O   O462      1.0  0.73967  0.33109  0.50000  1.0000 -0.7902662206
O   O463      1.0  0.26033  0.33109  0.50000  1.0000 -0.7902662206
O   O464      1.0  0.26033  0.66891  0.50000  1.0000 -0.7902662206
O   O465      1.0  0.50000  0.73967  0.66891  1.0000 -0.7902662206
O   O466      1.0  0.50000  0.73967  0.33109  1.0000 -0.7902662206
O   O467      1.0  0.50000  0.26033  0.33109  1.0000 -0.7902662206
O   O468      1.0  0.50000  0.26033  0.66891  1.0000 -0.7902662206
O   O469      1.0  0.50000  0.66891  0.26033  1.0000 -0.7902662206
O   O470      1.0  0.50000  0.33109  0.26033  1.0000 -0.7902662206
O   O471      1.0  0.50000  0.33109  0.73967  1.0000 -0.7902662206
O   O472      1.0  0.50000  0.66891  0.73967  1.0000 -0.7902662206
O   O473      1.0  0.66891  0.73967  0.50000  1.0000 -0.7902662206
O   O474      1.0  0.33109  0.73967  0.50000  1.0000 -0.7902662206
O   O475      1.0  0.33109  0.26033  0.50000  1.0000 -0.7902662206
O   O476      1.0  0.66891  0.26033  0.50000  1.0000 -0.7902662206
O   O477      1.0  0.73967  0.50000  0.33109  1.0000 -0.7902662206
O   O478      1.0  0.73967  0.50000  0.66891  1.0000 -0.7902662206
O   O479      1.0  0.26033  0.50000  0.66891  1.0000 -0.7902662206
O   O480      1.0  0.26033  0.50000  0.33109  1.0000 -0.7902662206
O   O481      1.0  0.16820  0.00000  0.10976  1.0000 -0.8497019415
O   O482      1.0  0.83180  0.00000  0.10976  1.0000 -0.8497019415
O   O483      1.0  0.83180  0.00000  0.89024  1.0000 -0.8497019415
O   O484      1.0  0.16820  0.00000  0.89024  1.0000 -0.8497019415
O   O485      1.0  0.10976  0.16820  0.00000  1.0000 -0.8497019415
O   O486      1.0  0.10976  0.83180  0.00000  1.0000 -0.8497019415
O   O487      1.0  0.89024  0.83180  0.00000  1.0000 -0.8497019415
O   O488      1.0  0.89024  0.16820  0.00000  1.0000 -0.8497019415
O   O489      1.0  0.00000  0.10976  0.16820  1.0000 -0.8497019415
O   O490      1.0  0.00000  0.10976  0.83180  1.0000 -0.8497019415
O   O491      1.0  0.00000  0.89024  0.83180  1.0000 -0.8497019415
O   O492      1.0  0.00000  0.89024  0.16820  1.0000 -0.8497019415
O   O493      1.0  0.00000  0.16820  0.89024  1.0000 -0.8497019415
O   O494      1.0  0.00000  0.83180  0.89024  1.0000 -0.8497019415
O   O495      1.0  0.00000  0.83180  0.10976  1.0000 -0.8497019415
O   O496      1.0  0.00000  0.16820  0.10976  1.0000 -0.8497019415
O   O497      1.0  0.16820  0.10976  0.00000  1.0000 -0.8497019415
O   O498      1.0  0.83180  0.10976  0.00000  1.0000 -0.8497019415
O   O499      1.0  0.83180  0.89024  0.00000  1.0000 -0.8497019415
O   O500      1.0  0.16820  0.89024  0.00000  1.0000 -0.8497019415
O   O501      1.0  0.10976  0.00000  0.83180  1.0000 -0.8497019415
O   O502      1.0  0.10976  0.00000  0.16820  1.0000 -0.8497019415
O   O503      1.0  0.89024  0.00000  0.16820  1.0000 -0.8497019415
O   O504      1.0  0.89024  0.00000  0.83180  1.0000 -0.8497019415
O   O505      1.0  0.66820  0.50000  0.60976  1.0000 -0.8497019415
O   O506      1.0  0.33180  0.50000  0.60976  1.0000 -0.8497019415
O   O507      1.0  0.33180  0.50000  0.39024  1.0000 -0.8497019415
O   O508      1.0  0.66820  0.50000  0.39024  1.0000 -0.8497019415
O   O509      1.0  0.60976  0.66820  0.50000  1.0000 -0.8497019415
O   O510      1.0  0.60976  0.33180  0.50000  1.0000 -0.8497019415
O   O511      1.0  0.39024  0.33180  0.50000  1.0000 -0.8497019415
O   O512      1.0  0.39024  0.66820  0.50000  1.0000 -0.8497019415
O   O513      1.0  0.50000  0.60976  0.66820  1.0000 -0.8497019415
O   O514      1.0  0.50000  0.60976  0.33180  1.0000 -0.8497019415
O   O515      1.0  0.50000  0.39024  0.33180  1.0000 -0.8497019415
O   O516      1.0  0.50000  0.39024  0.66820  1.0000 -0.8497019415
O   O517      1.0  0.50000  0.66820  0.39024  1.0000 -0.8497019415
O   O518      1.0  0.50000  0.33180  0.39024  1.0000 -0.8497019415
O   O519      1.0  0.50000  0.33180  0.60976  1.0000 -0.8497019415
O   O520      1.0  0.50000  0.66820  0.60976  1.0000 -0.8497019415
O   O521      1.0  0.66820  0.60976  0.50000  1.0000 -0.8497019415
O   O522      1.0  0.33180  0.60976  0.50000  1.0000 -0.8497019415
O   O523      1.0  0.33180  0.39024  0.50000  1.0000 -0.8497019415
O   O524      1.0  0.66820  0.39024  0.50000  1.0000 -0.8497019415
O   O525      1.0  0.60976  0.50000  0.33180  1.0000 -0.8497019415
O   O526      1.0  0.60976  0.50000  0.66820  1.0000 -0.8497019415
O   O527      1.0  0.39024  0.50000  0.66820  1.0000 -0.8497019415
O   O528      1.0  0.39024  0.50000  0.33180  1.0000 -0.8497019415
