# DDEC6 charges by PACMAN v1.1 (https://github.com/mtap-research/PACMAN-charge/)
data_2009[Ag][nbo]3[ION]1
_chemical_formula_sum              "Ag18 H144 C234 N36 O54 F54"
_cell_length_a       34.5383
_cell_length_b       34.5383
_cell_length_c       8.5169
_cell_angle_alpha    90
_cell_angle_beta     90
_cell_angle_gamma    120

_symmetry_space_group_name_H-M    "P 1"
_symmetry_Int_Tables_number       1

loop_
  _symmetry_equiv_pos_as_xyz
  'x, y, z'

loop_
  _atom_site_type_symbol
  _atom_site_label
  _atom_site_symmetry_multiplicity
  _atom_site_fract_x
  _atom_site_fract_y
  _atom_site_fract_z
  _atom_site_occupancy
  _atom_site_charge
Ag  Ag1       1.0  0.31747  0.14605  0.49392  1.0000 0.3342695875
Ag  Ag2       1.0  0.98414  0.47938  0.82725  1.0000 0.3342695875
Ag  Ag3       1.0  0.65081  0.81271  0.16058  1.0000 0.3342695875
Ag  Ag4       1.0  0.85395  0.17143  0.49392  1.0000 0.3342695875
Ag  Ag5       1.0  0.52062  0.50476  0.82725  1.0000 0.3342695875
Ag  Ag6       1.0  0.18729  0.83809  0.16058  1.0000 0.3342695875
Ag  Ag7       1.0  0.82857  0.68253  0.49392  1.0000 0.3342695875
Ag  Ag8       1.0  0.49524  0.01586  0.82725  1.0000 0.3342695875
Ag  Ag9       1.0  0.16191  0.34919  0.16058  1.0000 0.3342695875
Ag  Ag10      1.0  0.68253  0.85395  0.50608  1.0000 0.3342695875
Ag  Ag11      1.0  0.34919  0.18729  0.83942  1.0000 0.3342695875
Ag  Ag12      1.0  0.01586  0.52062  0.17275  1.0000 0.3342695875
Ag  Ag13      1.0  0.14605  0.82857  0.50608  1.0000 0.3342695875
Ag  Ag14      1.0  0.81271  0.16191  0.83942  1.0000 0.3342695875
Ag  Ag15      1.0  0.47938  0.49524  0.17275  1.0000 0.3342695875
Ag  Ag16      1.0  0.17143  0.31747  0.50608  1.0000 0.3342695875
Ag  Ag17      1.0  0.83809  0.65081  0.83942  1.0000 0.3342695875
Ag  Ag18      1.0  0.50476  0.98414  0.17275  1.0000 0.3342695875
H   H1        1.0  0.38690  0.20250  0.24700  1.0000 0.1093917246
H   H2        1.0  0.74533  0.93087  0.75667  1.0000 0.1259080532
H   H3        1.0  0.04267  0.63893  0.42863  1.0000 0.1259080532
H   H4        1.0  0.29090  0.21910  0.41000  1.0000 0.1093917246
H   H5        1.0  0.90517  0.54663  0.50303  1.0000 0.1259080532
H   H6        1.0  0.16240  0.18440  0.20800  1.0000 0.1399326152
H   H7        1.0  0.13800  0.22370  0.35280  1.0000 0.1093917246
H   H8        1.0  0.25980  0.32080  0.41300  1.0000 0.1172172944
H   H9        1.0  0.05357  0.53583  0.58033  1.0000 0.1093917246
H   H10       1.0  0.41200  0.26420  0.09000  1.0000 0.1259080532
H   H11       1.0  0.70933  0.97227  0.76197  1.0000 0.1259080532
H   H12       1.0  0.95757  0.55243  0.74333  1.0000 0.1093917246
H   H13       1.0  0.57183  0.87997  0.83637  1.0000 0.1259080532
H   H14       1.0  0.82907  0.51773  0.54133  1.0000 0.1399326152
H   H15       1.0  0.80467  0.55703  0.68613  1.0000 0.1093917246
H   H16       1.0  0.92647  0.65413  0.74633  1.0000 0.1172172944
H   H17       1.0  0.72023  0.86917  0.91367  1.0000 0.1093917246
H   H18       1.0  0.07867  0.59753  0.42333  1.0000 0.1259080532
H   H19       1.0  0.37600  0.30560  0.09530  1.0000 0.1259080532
H   H20       1.0  0.62423  0.88577  0.07667  1.0000 0.1093917246
H   H21       1.0  0.23850  0.21330  0.16970  1.0000 0.1259080532
H   H22       1.0  0.49573  0.85107  0.87467  1.0000 0.1399326152
H   H23       1.0  0.47133  0.89037  0.01947  1.0000 0.1093917246
H   H24       1.0  0.59313  0.98747  0.07967  1.0000 0.1172172944
H   H25       1.0  0.79750  0.18440  0.24700  1.0000 0.1093917246
H   H26       1.0  0.06913  0.81447  0.75667  1.0000 0.1259080532
H   H27       1.0  0.36107  0.40373  0.42863  1.0000 0.1259080532
H   H28       1.0  0.78090  0.07180  0.41000  1.0000 0.1093917246
H   H29       1.0  0.45337  0.35853  0.50303  1.0000 0.1259080532
H   H30       1.0  0.81560  0.97800  0.20800  1.0000 0.1399326152
H   H31       1.0  0.77630  0.91430  0.35280  1.0000 0.1093917246
H   H32       1.0  0.67920  0.93900  0.41300  1.0000 0.1172172944
H   H33       1.0  0.46417  0.51773  0.58033  1.0000 0.1093917246
H   H34       1.0  0.73580  0.14780  0.09000  1.0000 0.1259080532
H   H35       1.0  0.02773  0.73707  0.76197  1.0000 0.1259080532
H   H36       1.0  0.44757  0.40513  0.74333  1.0000 0.1093917246
H   H37       1.0  0.12003  0.69187  0.83637  1.0000 0.1259080532
H   H38       1.0  0.48227  0.31133  0.54133  1.0000 0.1399326152
H   H39       1.0  0.44297  0.24763  0.68613  1.0000 0.1093917246
H   H40       1.0  0.34587  0.27233  0.74633  1.0000 0.1172172944
H   H41       1.0  0.13083  0.85107  0.91367  1.0000 0.1093917246
H   H42       1.0  0.40247  0.48113  0.42333  1.0000 0.1259080532
H   H43       1.0  0.69440  0.07040  0.09530  1.0000 0.1259080532
H   H44       1.0  0.11423  0.73847  0.07667  1.0000 0.1093917246
H   H45       1.0  0.78670  0.02520  0.16970  1.0000 0.1172172944
H   H46       1.0  0.14893  0.64467  0.87467  1.0000 0.1399326152
H   H47       1.0  0.10963  0.58097  0.01947  1.0000 0.1093917246
H   H48       1.0  0.01253  0.60567  0.07967  1.0000 0.1172172944
H   H49       1.0  0.81560  0.61310  0.24700  1.0000 0.1093917246
H   H50       1.0  0.18553  0.25467  0.75667  1.0000 0.1259080532
H   H51       1.0  0.59627  0.95733  0.42863  1.0000 0.1259080532
H   H52       1.0  0.92820  0.70910  0.41000  1.0000 0.1093917246
H   H53       1.0  0.64147  0.09483  0.50303  1.0000 0.1259080532
H   H54       1.0  0.02200  0.83760  0.20800  1.0000 0.1399326152
H   H55       1.0  0.08570  0.86200  0.35280  1.0000 0.1093917246
H   H56       1.0  0.06100  0.74020  0.41300  1.0000 0.1172172944
H   H57       1.0  0.48227  0.94643  0.58033  1.0000 0.1093917246
H   H58       1.0  0.85220  0.58800  0.09000  1.0000 0.1259080532
H   H59       1.0  0.26293  0.29067  0.76197  1.0000 0.1259080532
H   H60       1.0  0.59487  0.04243  0.74333  1.0000 0.1093917246
H   H61       1.0  0.30813  0.42817  0.83637  1.0000 0.1259080532
H   H62       1.0  0.68867  0.17093  0.54133  1.0000 0.1399326152
H   H63       1.0  0.75237  0.19533  0.68613  1.0000 0.1093917246
H   H64       1.0  0.72767  0.07353  0.74633  1.0000 0.1172172944
H   H65       1.0  0.14893  0.27977  0.91367  1.0000 0.1093917246
H   H66       1.0  0.51887  0.92133  0.42333  1.0000 0.1259080532
H   H67       1.0  0.92960  0.62400  0.09530  1.0000 0.1259080532
H   H68       1.0  0.26153  0.37577  0.07667  1.0000 0.1093917246
H   H69       1.0  0.97480  0.76150  0.16970  1.0000 0.1259080532
H   H70       1.0  0.35533  0.50427  0.87467  1.0000 0.1399326152
H   H71       1.0  0.41903  0.52867  0.01947  1.0000 0.1093917246
H   H72       1.0  0.39433  0.40687  0.07967  1.0000 0.1172172944
H   H73       1.0  0.61310  0.79750  0.75300  1.0000 0.1093917246
H   H74       1.0  0.25467  0.06913  0.24333  1.0000 0.1259080532
H   H75       1.0  0.95733  0.36107  0.57137  1.0000 0.1259080532
H   H76       1.0  0.70910  0.78090  0.59000  1.0000 0.1093917246
H   H77       1.0  0.09483  0.45337  0.49697  1.0000 0.1259080532
H   H78       1.0  0.83760  0.81560  0.79200  1.0000 0.1399326152
H   H79       1.0  0.86200  0.77630  0.64720  1.0000 0.1093917246
H   H80       1.0  0.74020  0.67920  0.58700  1.0000 0.1172172944
H   H81       1.0  0.27977  0.13083  0.08633  1.0000 0.1093917246
H   H82       1.0  0.92133  0.40247  0.57667  1.0000 0.1259080532
H   H83       1.0  0.62400  0.69440  0.90470  1.0000 0.1259080532
H   H84       1.0  0.37577  0.11423  0.92333  1.0000 0.1093917246
H   H85       1.0  0.76150  0.78670  0.83030  1.0000 0.1259080532
H   H86       1.0  0.50427  0.14893  0.12533  1.0000 0.1399326152
H   H87       1.0  0.52867  0.10963  0.98053  1.0000 0.1093917246
H   H88       1.0  0.40687  0.01253  0.92033  1.0000 0.1172172944
H   H89       1.0  0.94643  0.46417  0.41967  1.0000 0.1093917246
H   H90       1.0  0.58800  0.73580  0.91000  1.0000 0.1259080532
H   H91       1.0  0.29067  0.02773  0.23803  1.0000 0.1259080532
H   H92       1.0  0.04243  0.44757  0.25667  1.0000 0.1093917246
H   H93       1.0  0.42817  0.12003  0.16363  1.0000 0.1259080532
H   H94       1.0  0.17093  0.48227  0.45867  1.0000 0.1399326152
H   H95       1.0  0.19533  0.44297  0.31387  1.0000 0.1093917246
H   H96       1.0  0.07353  0.34587  0.25367  1.0000 0.1172172944
H   H97       1.0  0.20250  0.81560  0.75300  1.0000 0.1093917246
H   H98       1.0  0.93087  0.18553  0.24333  1.0000 0.1259080532
H   H99       1.0  0.63893  0.59627  0.57137  1.0000 0.1259080532
H   H100      1.0  0.21910  0.92820  0.59000  1.0000 0.1093917246
H   H101      1.0  0.54663  0.64147  0.49697  1.0000 0.1259080532
H   H102      1.0  0.18440  0.02200  0.79200  1.0000 0.1399326152
H   H103      1.0  0.22370  0.08570  0.64720  1.0000 0.1093917246
H   H104      1.0  0.32080  0.06100  0.58700  1.0000 0.1172172944
H   H105      1.0  0.86917  0.14893  0.08633  1.0000 0.1093917246
H   H106      1.0  0.59753  0.51887  0.57667  1.0000 0.1259080532
H   H107      1.0  0.30560  0.92960  0.90470  1.0000 0.1259080532
H   H108      1.0  0.88577  0.26153  0.92333  1.0000 0.1093917246
H   H109      1.0  0.21330  0.97480  0.83030  1.0000 0.1259080532
H   H110      1.0  0.85107  0.35533  0.12533  1.0000 0.1399326152
H   H111      1.0  0.89037  0.41903  0.98053  1.0000 0.1093917246
H   H112      1.0  0.98747  0.39433  0.92033  1.0000 0.1172172944
H   H113      1.0  0.53583  0.48227  0.41967  1.0000 0.1093917246
H   H114      1.0  0.26420  0.85220  0.91000  1.0000 0.1259080532
H   H115      1.0  0.97227  0.26293  0.23803  1.0000 0.1259080532
H   H116      1.0  0.55243  0.59487  0.25667  1.0000 0.1093917246
H   H117      1.0  0.87997  0.30813  0.16363  1.0000 0.1259080532
H   H118      1.0  0.51773  0.68867  0.45867  1.0000 0.1399326152
H   H119      1.0  0.55703  0.75237  0.31387  1.0000 0.1093917246
H   H120      1.0  0.65413  0.72767  0.25367  1.0000 0.1172172944
H   H121      1.0  0.18440  0.38690  0.75300  1.0000 0.1093917246
H   H122      1.0  0.81447  0.74533  0.24333  1.0000 0.1259080532
H   H123      1.0  0.40373  0.04267  0.57137  1.0000 0.1259080532
H   H124      1.0  0.07180  0.29090  0.59000  1.0000 0.1093917246
H   H125      1.0  0.35853  0.90517  0.49697  1.0000 0.1259080532
H   H126      1.0  0.97800  0.16240  0.79200  1.0000 0.1399326152
H   H127      1.0  0.91430  0.13800  0.64720  1.0000 0.1093917246
H   H128      1.0  0.93900  0.25980  0.58700  1.0000 0.1172172944
H   H129      1.0  0.85107  0.72023  0.08633  1.0000 0.1093917246
H   H130      1.0  0.48113  0.07867  0.57667  1.0000 0.1259080532
H   H131      1.0  0.07040  0.37600  0.90470  1.0000 0.1259080532
H   H132      1.0  0.73847  0.62423  0.92333  1.0000 0.1093917246
H   H133      1.0  0.02520  0.23850  0.83030  1.0000 0.1259080532
H   H134      1.0  0.64467  0.49573  0.12533  1.0000 0.1399326152
H   H135      1.0  0.58097  0.47133  0.98053  1.0000 0.1093917246
H   H136      1.0  0.60567  0.59313  0.92033  1.0000 0.1172172944
H   H137      1.0  0.51773  0.05357  0.41967  1.0000 0.1093917246
H   H138      1.0  0.14780  0.41200  0.91000  1.0000 0.1259080532
H   H139      1.0  0.73707  0.70933  0.23803  1.0000 0.1259080532
H   H140      1.0  0.40513  0.95757  0.25667  1.0000 0.1093917246
H   H141      1.0  0.69187  0.57183  0.16363  1.0000 0.1259080532
H   H142      1.0  0.31133  0.82907  0.45867  1.0000 0.1399326152
H   H143      1.0  0.24763  0.80467  0.31387  1.0000 0.1093917246
H   H144      1.0  0.27233  0.92647  0.25367  1.0000 0.1172172944
C   C1        1.0  0.37203  0.21878  0.24920  1.0000 0.0692589661
C   C2        1.0  0.05401  0.58906  0.48813  1.0000 -0.1511192643
C   C3        1.0  0.03258  0.61346  0.49053  1.0000 -0.0390242127
C   C4        1.0  0.99559  0.59959  0.58663  1.0000 -0.0390242127
C   C5        1.0  0.31562  0.22850  0.34500  1.0000 0.0497504013
C   C6        1.0  0.97279  0.62667  0.59493  1.0000 0.3546099109
C   C7        1.0  0.25721  0.27044  0.28880  1.0000 -0.0501964372
C   C8        1.0  0.89466  0.56254  0.55983  1.0000 -0.069332746
C   C9        1.0  0.18291  0.21206  0.25000  1.0000 -0.1268087384
C   C10       1.0  0.16854  0.23595  0.33580  1.0000 0.0692589661
C   C11       1.0  0.23995  0.29275  0.37200  1.0000 0.0692589661
C   C12       1.0  0.40761  0.15207  0.53190  1.0000 0.3970586998
C   C13       1.0  0.78817  0.82787  0.23197  1.0000 0.5612144281
C   C14       1.0  0.03870  0.55211  0.58253  1.0000 0.0692589661
C   C15       1.0  0.72067  0.92240  0.82147  1.0000 -0.1511192643
C   C16       1.0  0.69924  0.94680  0.82387  1.0000 -0.0390242127
C   C17       1.0  0.66225  0.93293  0.91997  1.0000 -0.0390242127
C   C18       1.0  0.98229  0.56183  0.67833  1.0000 0.0497504013
C   C19       1.0  0.63945  0.96001  0.92827  1.0000 0.3546099109
C   C20       1.0  0.92388  0.60377  0.62213  1.0000 -0.0501964372
C   C21       1.0  0.56132  0.89588  0.89317  1.0000 -0.069332746
C   C22       1.0  0.84958  0.54539  0.58333  1.0000 -0.1268087384
C   C23       1.0  0.83521  0.56928  0.66913  1.0000 0.0692589661
C   C24       1.0  0.90662  0.62608  0.70533  1.0000 0.0692589661
C   C25       1.0  0.07428  0.48540  0.86523  1.0000 0.3970586998
C   C26       1.0  0.45484  0.16120  0.56530  1.0000 0.5612144281
C   C27       1.0  0.70536  0.88545  0.91587  1.0000 0.0692589661
C   C28       1.0  0.38734  0.25573  0.15480  1.0000 -0.1511192643
C   C29       1.0  0.36591  0.28013  0.15720  1.0000 -0.0390242127
C   C30       1.0  0.32892  0.26626  0.25330  1.0000 -0.0390242127
C   C31       1.0  0.64895  0.89517  0.01167  1.0000 0.0497504013
C   C32       1.0  0.30612  0.29334  0.26160  1.0000 0.3546099109
C   C33       1.0  0.59054  0.93711  0.95547  1.0000 -0.0501964372
C   C34       1.0  0.22799  0.22921  0.22650  1.0000 -0.069332746
C   C35       1.0  0.51624  0.87873  0.91667  1.0000 -0.1268087384
C   C36       1.0  0.50187  0.90262  0.00247  1.0000 0.0692589661
C   C37       1.0  0.57328  0.95942  0.03867  1.0000 0.0692589661
C   C38       1.0  0.74094  0.81874  0.19857  1.0000 0.3970586998
C   C39       1.0  0.12151  0.49453  0.89863  1.0000 0.5612144281
C   C40       1.0  0.78122  0.15325  0.24920  1.0000 0.0692589661
C   C41       1.0  0.41094  0.46494  0.48813  1.0000 -0.1511192643
C   C42       1.0  0.38654  0.41911  0.49053  1.0000 -0.0390242127
C   C43       1.0  0.40041  0.39599  0.58663  1.0000 -0.0390242127
C   C44       1.0  0.77150  0.08712  0.34500  1.0000 0.0497504013
C   C45       1.0  0.37333  0.34611  0.59493  1.0000 0.3546099109
C   C46       1.0  0.72956  0.98677  0.28880  1.0000 -0.0501964372
C   C47       1.0  0.43746  0.33211  0.55983  1.0000 -0.069332746
C   C48       1.0  0.78794  0.97085  0.25000  1.0000 -0.1268087384
C   C49       1.0  0.76405  0.93259  0.33580  1.0000 0.0692589661
C   C50       1.0  0.70725  0.94720  0.37200  1.0000 0.0692589661
C   C51       1.0  0.84793  0.25554  0.53190  1.0000 0.3970586998
C   C52       1.0  0.17213  0.96031  0.23197  1.0000 0.5612144281
C   C53       1.0  0.44789  0.48658  0.58253  1.0000 0.0692589661
C   C54       1.0  0.07760  0.79828  0.82147  1.0000 -0.1511192643
C   C55       1.0  0.05320  0.75245  0.82387  1.0000 -0.0390242127
C   C56       1.0  0.06707  0.72933  0.91997  1.0000 -0.0390242127
C   C57       1.0  0.43817  0.42045  0.67833  1.0000 0.0497504013
C   C58       1.0  0.03999  0.67945  0.92827  1.0000 0.3546099109
C   C59       1.0  0.39623  0.32010  0.62213  1.0000 -0.0501964372
C   C60       1.0  0.10412  0.66545  0.89317  1.0000 -0.069332746
C   C61       1.0  0.45461  0.30418  0.58333  1.0000 -0.1268087384
C   C62       1.0  0.43072  0.26592  0.66913  1.0000 0.0692589661
C   C63       1.0  0.37392  0.28053  0.70533  1.0000 0.0692589661
C   C64       1.0  0.51460  0.58887  0.86523  1.0000 0.3970586998
C   C65       1.0  0.83880  0.29364  0.56530  1.0000 0.5612144281
C   C66       1.0  0.11455  0.81992  0.91587  1.0000 0.0692589661
C   C67       1.0  0.74427  0.13161  0.15480  1.0000 -0.1511192643
C   C68       1.0  0.71987  0.08578  0.15720  1.0000 -0.0390242127
C   C69       1.0  0.73374  0.06266  0.25330  1.0000 -0.0390242127
C   C70       1.0  0.10483  0.75379  0.01167  1.0000 0.0497504013
C   C71       1.0  0.70666  0.01278  0.26160  1.0000 0.3546099109
C   C72       1.0  0.06289  0.65344  0.95547  1.0000 -0.0501964372
C   C73       1.0  0.77079  0.99878  0.22650  1.0000 -0.069332746
C   C74       1.0  0.12127  0.63752  0.91667  1.0000 -0.1268087384
C   C75       1.0  0.09738  0.59926  0.00247  1.0000 0.0692589661
C   C76       1.0  0.04058  0.61387  0.03867  1.0000 0.0692589661
C   C77       1.0  0.18126  0.92221  0.19857  1.0000 0.3970586998
C   C78       1.0  0.50547  0.62697  0.89863  1.0000 0.5612144281
C   C79       1.0  0.84675  0.62797  0.24920  1.0000 0.0692589661
C   C80       1.0  0.53506  0.94599  0.48813  1.0000 -0.1511192643
C   C81       1.0  0.58089  0.96742  0.49053  1.0000 -0.0390242127
C   C82       1.0  0.60401  0.00441  0.58663  1.0000 -0.0390242127
C   C83       1.0  0.91288  0.68438  0.34500  1.0000 0.0497504013
C   C84       1.0  0.65389  0.02721  0.59493  1.0000 0.3550614459
C   C85       1.0  0.01323  0.74279  0.28880  1.0000 -0.0501964372
C   C86       1.0  0.66789  0.10534  0.55983  1.0000 -0.069332746
C   C87       1.0  0.02915  0.81709  0.25000  1.0000 -0.1268087384
C   C88       1.0  0.06741  0.83146  0.33580  1.0000 0.0692589661
C   C89       1.0  0.05280  0.76005  0.37200  1.0000 0.0692589661
C   C90       1.0  0.74446  0.59239  0.53190  1.0000 0.3970586998
C   C91       1.0  0.03969  0.21183  0.23197  1.0000 0.5612144281
C   C92       1.0  0.51342  0.96130  0.58253  1.0000 0.0692589661
C   C93       1.0  0.20172  0.27933  0.82147  1.0000 -0.1511192643
C   C94       1.0  0.24755  0.30076  0.82387  1.0000 -0.0390242127
C   C95       1.0  0.27067  0.33775  0.91997  1.0000 -0.0390242127
C   C96       1.0  0.57955  0.01771  0.67833  1.0000 0.0497504013
C   C97       1.0  0.32055  0.36055  0.92827  1.0000 0.3546099109
C   C98       1.0  0.67990  0.07612  0.62213  1.0000 -0.0501964372
C   C99       1.0  0.33455  0.43868  0.89317  1.0000 -0.069332746
C   C100      1.0  0.69582  0.15042  0.58333  1.0000 -0.1268087384
C   C101      1.0  0.73408  0.16479  0.66913  1.0000 0.0692589661
C   C102      1.0  0.71947  0.09338  0.70533  1.0000 0.0692589661
C   C103      1.0  0.41113  0.92572  0.86523  1.0000 0.3970586998
C   C104      1.0  0.70636  0.54516  0.56530  1.0000 0.5612144281
C   C105      1.0  0.18008  0.29464  0.91587  1.0000 0.0692589661
C   C106      1.0  0.86839  0.61266  0.15480  1.0000 -0.1511192643
C   C107      1.0  0.91422  0.63409  0.15720  1.0000 -0.0390242127
C   C108      1.0  0.93734  0.67108  0.25330  1.0000 -0.0390242127
C   C109      1.0  0.24621  0.35105  0.01167  1.0000 0.0497504013
C   C110      1.0  0.98722  0.69388  0.26160  1.0000 0.3546099109
C   C111      1.0  0.34656  0.40946  0.95547  1.0000 -0.0501964372
C   C112      1.0  0.00122  0.77201  0.22650  1.0000 -0.069332746
C   C113      1.0  0.36248  0.48376  0.91667  1.0000 -0.1268087384
C   C114      1.0  0.40074  0.49813  0.00247  1.0000 0.0692589661
C   C115      1.0  0.38613  0.42672  0.03867  1.0000 0.0692589661
C   C116      1.0  0.07779  0.25906  0.19857  1.0000 0.3970586998
C   C117      1.0  0.37303  0.87849  0.89863  1.0000 0.5612144281
C   C118      1.0  0.62797  0.78122  0.75080  1.0000 0.0692589661
C   C119      1.0  0.94599  0.41094  0.51187  1.0000 -0.1511192643
C   C120      1.0  0.96742  0.38654  0.50947  1.0000 -0.0390242127
C   C121      1.0  0.00441  0.40041  0.41337  1.0000 -0.0390242127
C   C122      1.0  0.68438  0.77150  0.65500  1.0000 0.0497504013
C   C123      1.0  0.02721  0.37333  0.40507  1.0000 0.3546099109
C   C124      1.0  0.74279  0.72956  0.71120  1.0000 -0.0501964372
C   C125      1.0  0.10534  0.43746  0.44017  1.0000 -0.069332746
C   C126      1.0  0.81709  0.78794  0.75000  1.0000 -0.1268087384
C   C127      1.0  0.83146  0.76405  0.66420  1.0000 0.0692589661
C   C128      1.0  0.76005  0.70725  0.62800  1.0000 0.0692589661
C   C129      1.0  0.59239  0.84793  0.46810  1.0000 0.3970586998
C   C130      1.0  0.21183  0.17213  0.76803  1.0000 0.5612144281
C   C131      1.0  0.29464  0.11455  0.08413  1.0000 0.0692589661
C   C132      1.0  0.61266  0.74427  0.84520  1.0000 -0.1511192643
C   C133      1.0  0.63409  0.71987  0.84280  1.0000 -0.0390242127
C   C134      1.0  0.67108  0.73374  0.74670  1.0000 -0.0390242127
C   C135      1.0  0.35105  0.10483  0.98833  1.0000 0.0497504013
C   C136      1.0  0.69388  0.70666  0.73840  1.0000 0.3546099109
C   C137      1.0  0.40946  0.06289  0.04453  1.0000 -0.0501964372
C   C138      1.0  0.77201  0.77079  0.77350  1.0000 -0.069332746
C   C139      1.0  0.48376  0.12127  0.08333  1.0000 -0.1268087384
C   C140      1.0  0.49813  0.09738  0.99753  1.0000 0.0692589661
C   C141      1.0  0.42672  0.04058  0.96133  1.0000 0.0692589661
C   C142      1.0  0.25906  0.18126  0.80143  1.0000 0.3970586998
C   C143      1.0  0.87849  0.50547  0.10137  1.0000 0.5612144281
C   C144      1.0  0.96130  0.44789  0.41747  1.0000 0.0692589661
C   C145      1.0  0.27933  0.07760  0.17853  1.0000 -0.1511192643
C   C146      1.0  0.30076  0.05320  0.17613  1.0000 -0.0390242127
C   C147      1.0  0.33775  0.06707  0.08003  1.0000 -0.0390242127
C   C148      1.0  0.01771  0.43817  0.32167  1.0000 0.0497504013
C   C149      1.0  0.36055  0.03999  0.07173  1.0000 0.3546099109
C   C150      1.0  0.07612  0.39623  0.37787  1.0000 -0.0501964372
C   C151      1.0  0.43868  0.10412  0.10683  1.0000 -0.069332746
C   C152      1.0  0.15042  0.45461  0.41667  1.0000 -0.1268087384
C   C153      1.0  0.16479  0.43072  0.33087  1.0000 0.0692589661
C   C154      1.0  0.09338  0.37392  0.29467  1.0000 0.0692589661
C   C155      1.0  0.92572  0.51460  0.13477  1.0000 0.3970586998
C   C156      1.0  0.54516  0.83880  0.43470  1.0000 0.5612144281
C   C157      1.0  0.21878  0.84675  0.75080  1.0000 0.0692589661
C   C158      1.0  0.58906  0.53506  0.51187  1.0000 -0.1511192643
C   C159      1.0  0.61346  0.58089  0.50947  1.0000 -0.0390242127
C   C160      1.0  0.59959  0.60401  0.41337  1.0000 -0.0390242127
C   C161      1.0  0.22850  0.91288  0.65500  1.0000 0.0497504013
C   C162      1.0  0.62667  0.65389  0.40507  1.0000 0.3546099109
C   C163      1.0  0.27044  0.01323  0.71120  1.0000 -0.0501964372
C   C164      1.0  0.56254  0.66789  0.44017  1.0000 -0.069332746
C   C165      1.0  0.21206  0.02915  0.75000  1.0000 -0.1268087384
C   C166      1.0  0.23595  0.06741  0.66420  1.0000 0.0692589661
C   C167      1.0  0.29275  0.05280  0.62800  1.0000 0.0692589661
C   C168      1.0  0.15207  0.74446  0.46810  1.0000 0.3970586998
C   C169      1.0  0.82787  0.03969  0.76803  1.0000 0.5612144281
C   C170      1.0  0.88545  0.18008  0.08413  1.0000 0.0692589661
C   C171      1.0  0.25573  0.86839  0.84520  1.0000 -0.1511192643
C   C172      1.0  0.28013  0.91422  0.84280  1.0000 -0.0390242127
C   C173      1.0  0.26626  0.93734  0.74670  1.0000 -0.0390242127
C   C174      1.0  0.89517  0.24621  0.98833  1.0000 0.0497504013
C   C175      1.0  0.29334  0.98722  0.73840  1.0000 0.3546099109
C   C176      1.0  0.93711  0.34656  0.04453  1.0000 -0.0501964372
C   C177      1.0  0.22921  0.00122  0.77350  1.0000 -0.069332746
C   C178      1.0  0.87873  0.36248  0.08333  1.0000 -0.1268087384
C   C179      1.0  0.90262  0.40074  0.99753  1.0000 0.0692589661
C   C180      1.0  0.95942  0.38613  0.96133  1.0000 0.0692589661
C   C181      1.0  0.81874  0.07779  0.80143  1.0000 0.3970586998
C   C182      1.0  0.49453  0.37303  0.10137  1.0000 0.5612144281
C   C183      1.0  0.55211  0.51342  0.41747  1.0000 0.0692589661
C   C184      1.0  0.92240  0.20172  0.17853  1.0000 -0.1511192643
C   C185      1.0  0.94680  0.24755  0.17613  1.0000 -0.0390242127
C   C186      1.0  0.93293  0.27067  0.08003  1.0000 -0.0390242127
C   C187      1.0  0.56183  0.57955  0.32167  1.0000 0.0497504013
C   C188      1.0  0.96001  0.32055  0.07173  1.0000 0.3546099109
C   C189      1.0  0.60377  0.67990  0.37787  1.0000 -0.0501964372
C   C190      1.0  0.89588  0.33455  0.10683  1.0000 -0.069332746
C   C191      1.0  0.54539  0.69582  0.41667  1.0000 -0.1268087384
C   C192      1.0  0.56928  0.73408  0.33087  1.0000 0.0692589661
C   C193      1.0  0.62608  0.71947  0.29467  1.0000 0.0692589661
C   C194      1.0  0.48540  0.41113  0.13477  1.0000 0.3970586998
C   C195      1.0  0.16120  0.70636  0.43470  1.0000 0.5612144281
C   C196      1.0  0.15325  0.37203  0.75080  1.0000 0.0692589661
C   C197      1.0  0.46494  0.05401  0.51187  1.0000 -0.1511192643
C   C198      1.0  0.41911  0.03258  0.50947  1.0000 -0.0390242127
C   C199      1.0  0.39599  0.99559  0.41337  1.0000 -0.0390242127
C   C200      1.0  0.08712  0.31562  0.65500  1.0000 0.0497504013
C   C201      1.0  0.34611  0.97279  0.40507  1.0000 0.3546099109
C   C202      1.0  0.98677  0.25721  0.71120  1.0000 -0.0501964372
C   C203      1.0  0.33211  0.89466  0.44017  1.0000 -0.069332746
C   C204      1.0  0.97085  0.18291  0.75000  1.0000 -0.1268087384
C   C205      1.0  0.93259  0.16854  0.66420  1.0000 0.0692589661
C   C206      1.0  0.94720  0.23995  0.62800  1.0000 0.0692589661
C   C207      1.0  0.25554  0.40761  0.46810  1.0000 0.3970586998
C   C208      1.0  0.96031  0.78817  0.76803  1.0000 0.5612144281
C   C209      1.0  0.81992  0.70536  0.08413  1.0000 0.0692589661
C   C210      1.0  0.13161  0.38734  0.84520  1.0000 -0.1511192643
C   C211      1.0  0.08578  0.36591  0.84280  1.0000 -0.0390242127
C   C212      1.0  0.06266  0.32892  0.74670  1.0000 -0.0390242127
C   C213      1.0  0.75379  0.64895  0.98833  1.0000 0.0497504013
C   C214      1.0  0.01278  0.30612  0.73840  1.0000 0.3546099109
C   C215      1.0  0.65344  0.59054  0.04453  1.0000 -0.0501964372
C   C216      1.0  0.99878  0.22799  0.77350  1.0000 -0.069332746
C   C217      1.0  0.63752  0.51624  0.08333  1.0000 -0.1268087384
C   C218      1.0  0.59926  0.50187  0.99753  1.0000 0.0692589661
C   C219      1.0  0.61387  0.57328  0.96133  1.0000 0.0692589661
C   C220      1.0  0.92221  0.74094  0.80143  1.0000 0.3970586998
C   C221      1.0  0.62697  0.12151  0.10137  1.0000 0.5612144281
C   C222      1.0  0.48658  0.03870  0.41747  1.0000 0.0692589661
C   C223      1.0  0.79828  0.72067  0.17853  1.0000 -0.1511192643
C   C224      1.0  0.75245  0.69924  0.17613  1.0000 -0.0390242127
C   C225      1.0  0.72933  0.66225  0.08003  1.0000 -0.0390242127
C   C226      1.0  0.42045  0.98229  0.32167  1.0000 0.0497504013
C   C227      1.0  0.67945  0.63945  0.07173  1.0000 0.3546099109
C   C228      1.0  0.32010  0.92388  0.37787  1.0000 -0.0501964372
C   C229      1.0  0.66545  0.56132  0.10683  1.0000 -0.069332746
C   C230      1.0  0.30418  0.84958  0.41667  1.0000 -0.1268087384
C   C231      1.0  0.26592  0.83521  0.33087  1.0000 0.0692589661
C   C232      1.0  0.28053  0.90662  0.29467  1.0000 0.0692589661
C   C233      1.0  0.58887  0.07428  0.13477  1.0000 0.3970586998
C   C234      1.0  0.29364  0.45484  0.43470  1.0000 0.5612144281
N   N1        1.0  0.33689  0.20506  0.34390  1.0000 -0.1790011259
N   N2        1.0  0.19644  0.27611  0.39630  1.0000 -0.185511406
N   N3        1.0  0.00356  0.53839  0.67723  1.0000 -0.1790011259
N   N4        1.0  0.86311  0.60944  0.72963  1.0000 -0.185511406
N   N5        1.0  0.67022  0.87173  0.01057  1.0000 -0.1790011259
N   N6        1.0  0.52977  0.94278  0.06297  1.0000 -0.185511406
N   N7        1.0  0.79494  0.13183  0.34390  1.0000 -0.1790011259
N   N8        1.0  0.72389  0.92033  0.39630  1.0000 -0.185511406
N   N9        1.0  0.46161  0.46516  0.67723  1.0000 -0.1790011259
N   N10       1.0  0.39056  0.25366  0.72963  1.0000 -0.185511406
N   N11       1.0  0.12827  0.79850  0.01057  1.0000 -0.1790011259
N   N12       1.0  0.05722  0.58700  0.06297  1.0000 -0.185511406
N   N13       1.0  0.86817  0.66311  0.34390  1.0000 -0.1790011259
N   N14       1.0  0.07967  0.80356  0.39630  1.0000 -0.185511406
N   N15       1.0  0.53484  0.99644  0.67723  1.0000 -0.1790011259
N   N16       1.0  0.74634  0.13689  0.72963  1.0000 -0.185511406
N   N17       1.0  0.20150  0.32978  0.01057  1.0000 -0.1790011259
N   N18       1.0  0.41300  0.47023  0.06297  1.0000 -0.185511406
N   N19       1.0  0.66311  0.79494  0.65610  1.0000 -0.1790011259
N   N20       1.0  0.80356  0.72389  0.60370  1.0000 -0.185511406
N   N21       1.0  0.32978  0.12827  0.98943  1.0000 -0.1790011259
N   N22       1.0  0.47023  0.05722  0.93703  1.0000 -0.185511406
N   N23       1.0  0.99644  0.46161  0.32277  1.0000 -0.1790011259
N   N24       1.0  0.13689  0.39056  0.27037  1.0000 -0.185511406
N   N25       1.0  0.20506  0.86817  0.65610  1.0000 -0.1790011259
N   N26       1.0  0.27611  0.07967  0.60370  1.0000 -0.185511406
N   N27       1.0  0.87173  0.20150  0.98943  1.0000 -0.1790011259
N   N28       1.0  0.94278  0.41300  0.93703  1.0000 -0.185511406
N   N29       1.0  0.53839  0.53484  0.32277  1.0000 -0.1790011259
N   N30       1.0  0.60944  0.74634  0.27037  1.0000 -0.185511406
N   N31       1.0  0.13183  0.33689  0.65610  1.0000 -0.1790011259
N   N32       1.0  0.92033  0.19644  0.60370  1.0000 -0.185511406
N   N33       1.0  0.79850  0.67022  0.98943  1.0000 -0.1790011259
N   N34       1.0  0.58700  0.52977  0.93703  1.0000 -0.185511406
N   N35       1.0  0.46516  0.00356  0.32277  1.0000 -0.1790011259
N   N36       1.0  0.25366  0.86311  0.27037  1.0000 -0.185511406
O   O1        1.0  0.99413  0.66687  0.57603  1.0000 -0.3879734434
O   O2        1.0  0.72128  0.82131  0.31297  1.0000 -0.4907724964
O   O3        1.0  0.39493  0.14393  0.39620  1.0000 -0.4907724964
O   O4        1.0  0.66079  0.00021  0.90937  1.0000 -0.3879734434
O   O5        1.0  0.38795  0.15464  0.64630  1.0000 -0.4907724964
O   O6        1.0  0.06160  0.47726  0.72953  1.0000 -0.4907724964
O   O7        1.0  0.32746  0.33354  0.24270  1.0000 -0.3879734434
O   O8        1.0  0.05462  0.48797  0.97963  1.0000 -0.4907724964
O   O9        1.0  0.72826  0.81060  0.06287  1.0000 -0.4907724964
O   O10       1.0  0.33313  0.32725  0.57603  1.0000 -0.3879734434
O   O11       1.0  0.17869  0.89998  0.31297  1.0000 -0.4907724964
O   O12       1.0  0.85607  0.25100  0.39620  1.0000 -0.4907724964
O   O13       1.0  0.99979  0.66059  0.90937  1.0000 -0.3879734434
O   O14       1.0  0.84536  0.23331  0.64630  1.0000 -0.4907724964
O   O15       1.0  0.52274  0.58433  0.72953  1.0000 -0.4907724964
O   O16       1.0  0.66646  0.99392  0.24270  1.0000 -0.3879734434
O   O17       1.0  0.51203  0.56664  0.97963  1.0000 -0.4907724964
O   O18       1.0  0.18940  0.91767  0.06287  1.0000 -0.4907724964
O   O19       1.0  0.67275  0.00587  0.57603  1.0000 -0.3879734434
O   O20       1.0  0.10002  0.27872  0.31297  1.0000 -0.4907724964
O   O21       1.0  0.74900  0.60507  0.39620  1.0000 -0.4907724964
O   O22       1.0  0.33941  0.33921  0.90937  1.0000 -0.3879734434
O   O23       1.0  0.76669  0.61205  0.64630  1.0000 -0.4907724964
O   O24       1.0  0.41567  0.93840  0.72953  1.0000 -0.4907724964
O   O25       1.0  0.00608  0.67254  0.24270  1.0000 -0.3879734434
O   O26       1.0  0.43336  0.94538  0.97963  1.0000 -0.4907724964
O   O27       1.0  0.08233  0.27174  0.06287  1.0000 -0.4907724964
O   O28       1.0  0.00587  0.33313  0.42397  1.0000 -0.3879734434
O   O29       1.0  0.27872  0.17869  0.68703  1.0000 -0.4907724964
O   O30       1.0  0.60507  0.85607  0.60380  1.0000 -0.4907724964
O   O31       1.0  0.67254  0.66646  0.75730  1.0000 -0.3879734434
O   O32       1.0  0.94538  0.51203  0.02037  1.0000 -0.4907724964
O   O33       1.0  0.27174  0.18940  0.93713  1.0000 -0.4907724964
O   O34       1.0  0.33921  0.99979  0.09063  1.0000 -0.3879734434
O   O35       1.0  0.61205  0.84536  0.35370  1.0000 -0.4907724964
O   O36       1.0  0.93840  0.52274  0.27047  1.0000 -0.4907724964
O   O37       1.0  0.66687  0.67275  0.42397  1.0000 -0.3879734434
O   O38       1.0  0.82131  0.10002  0.68703  1.0000 -0.4907724964
O   O39       1.0  0.14393  0.74900  0.60380  1.0000 -0.4907724964
O   O40       1.0  0.33354  0.00608  0.75730  1.0000 -0.3879734434
O   O41       1.0  0.48797  0.43336  0.02037  1.0000 -0.4907724964
O   O42       1.0  0.81060  0.08233  0.93713  1.0000 -0.4907724964
O   O43       1.0  0.00021  0.33941  0.09063  1.0000 -0.3879734434
O   O44       1.0  0.15464  0.76669  0.35370  1.0000 -0.4907724964
O   O45       1.0  0.47726  0.41567  0.27047  1.0000 -0.4907724964
O   O46       1.0  0.32725  0.99413  0.42397  1.0000 -0.3879734434
O   O47       1.0  0.89998  0.72128  0.68703  1.0000 -0.4907724964
O   O48       1.0  0.25100  0.39493  0.60380  1.0000 -0.4907724964
O   O49       1.0  0.99392  0.32746  0.75730  1.0000 -0.3879734434
O   O50       1.0  0.56664  0.05462  0.02037  1.0000 -0.4907724964
O   O51       1.0  0.91767  0.72826  0.93713  1.0000 -0.4907724964
O   O52       1.0  0.66059  0.66079  0.09063  1.0000 -0.3879734434
O   O53       1.0  0.23331  0.38795  0.35370  1.0000 -0.4907724964
O   O54       1.0  0.58433  0.06160  0.27047  1.0000 -0.4907724964
F   F1        1.0  0.47290  0.15048  0.45050  1.0000 -0.2099886568
F   F2        1.0  0.81516  0.86997  0.26397  1.0000 -0.2371663682
F   F3        1.0  0.78777  0.80225  0.35337  1.0000 -0.2153092133
F   F4        1.0  0.13957  0.48381  0.78383  1.0000 -0.2099886568
F   F5        1.0  0.48183  0.20330  0.59730  1.0000 -0.2371663682
F   F6        1.0  0.45444  0.13558  0.68670  1.0000 -0.2099886568
F   F7        1.0  0.80623  0.81715  0.11717  1.0000 -0.2099886568
F   F8        1.0  0.14850  0.53663  0.93063  1.0000 -0.2371663682
F   F9        1.0  0.12111  0.46891  0.02003  1.0000 -0.2099886568
F   F10       1.0  0.84952  0.32242  0.45050  1.0000 -0.2099886568
F   F11       1.0  0.13003  0.94520  0.26397  1.0000 -0.2371663682
F   F12       1.0  0.19775  0.98553  0.35337  1.0000 -0.2099886568
F   F13       1.0  0.51619  0.65575  0.78383  1.0000 -0.2099886568
F   F14       1.0  0.79670  0.27853  0.59730  1.0000 -0.2371663682
F   F15       1.0  0.86442  0.31886  0.68670  1.0000 -0.2099886568
F   F16       1.0  0.18285  0.98909  0.11717  1.0000 -0.2099886568
F   F17       1.0  0.46337  0.61186  0.93063  1.0000 -0.2371663682
F   F18       1.0  0.53109  0.65219  0.02003  1.0000 -0.2099886568
F   F19       1.0  0.67758  0.52710  0.45050  1.0000 -0.2099886568
F   F20       1.0  0.05480  0.18484  0.26397  1.0000 -0.2371663682
F   F21       1.0  0.01447  0.21223  0.35337  1.0000 -0.2099886568
F   F22       1.0  0.34425  0.86043  0.78383  1.0000 -0.2099886568
F   F23       1.0  0.72147  0.51817  0.59730  1.0000 -0.2371663682
F   F24       1.0  0.68114  0.54556  0.68670  1.0000 -0.2099886568
F   F25       1.0  0.01091  0.19377  0.11717  1.0000 -0.2099886568
F   F26       1.0  0.38814  0.85150  0.93063  1.0000 -0.2371663682
F   F27       1.0  0.34781  0.87889  0.02003  1.0000 -0.2099886568
F   F28       1.0  0.52710  0.84952  0.54950  1.0000 -0.2099886568
F   F29       1.0  0.18484  0.13003  0.73603  1.0000 -0.2371663682
F   F30       1.0  0.21223  0.19775  0.64663  1.0000 -0.2099886568
F   F31       1.0  0.19377  0.18285  0.88283  1.0000 -0.2099886568
F   F32       1.0  0.85150  0.46337  0.06937  1.0000 -0.2371663682
F   F33       1.0  0.87889  0.53109  0.97997  1.0000 -0.2153092133
F   F34       1.0  0.86043  0.51619  0.21617  1.0000 -0.2099886568
F   F35       1.0  0.51817  0.79670  0.40270  1.0000 -0.2371663682
F   F36       1.0  0.54556  0.86442  0.31330  1.0000 -0.2099886568
F   F37       1.0  0.15048  0.67758  0.54950  1.0000 -0.2099886568
F   F38       1.0  0.86997  0.05480  0.73603  1.0000 -0.2371663682
F   F39       1.0  0.80225  0.01447  0.64663  1.0000 -0.2099886568
F   F40       1.0  0.81715  0.01091  0.88283  1.0000 -0.2099886568
F   F41       1.0  0.53663  0.38814  0.06937  1.0000 -0.2371663682
F   F42       1.0  0.46891  0.34781  0.97997  1.0000 -0.2099886568
F   F43       1.0  0.48381  0.34425  0.21617  1.0000 -0.2099886568
F   F44       1.0  0.20330  0.72147  0.40270  1.0000 -0.2371663682
F   F45       1.0  0.13558  0.68114  0.31330  1.0000 -0.2099886568
F   F46       1.0  0.32242  0.47290  0.54950  1.0000 -0.2099886568
F   F47       1.0  0.94520  0.81516  0.73603  1.0000 -0.2371663682
F   F48       1.0  0.98553  0.78777  0.64663  1.0000 -0.2099886568
F   F49       1.0  0.98909  0.80623  0.88283  1.0000 -0.2099886568
F   F50       1.0  0.61186  0.14850  0.06937  1.0000 -0.2371663682
F   F51       1.0  0.65219  0.12111  0.97997  1.0000 -0.2099886568
F   F52       1.0  0.65575  0.13957  0.21617  1.0000 -0.2099886568
F   F53       1.0  0.27853  0.48183  0.40270  1.0000 -0.2371663682
F   F54       1.0  0.31886  0.45444  0.31330  1.0000 -0.2099886568
