# DDEC6 charges by PACMAN v1.1 (https://github.com/mtap-research/PACMAN-charge/)
data_2009[In][gis]3[ION]1
_chemical_formula_sum              "In8 H192 C224 N8 O64"
_cell_length_a       31.745
_cell_length_b       31.745
_cell_length_c       8.2835
_cell_angle_alpha    90
_cell_angle_beta     90
_cell_angle_gamma    90

_symmetry_space_group_name_H-M    "P 1"
_symmetry_Int_Tables_number       1

loop_
  _symmetry_equiv_pos_as_xyz
  'x, y, z'

loop_
  _atom_site_type_symbol
  _atom_site_label
  _atom_site_symmetry_multiplicity
  _atom_site_fract_x
  _atom_site_fract_y
  _atom_site_fract_z
  _atom_site_occupancy
  _atom_site_charge
In  In1       1.0  0.44304  0.78458  0.09690  1.0000 1.2853606285
In  In2       1.0  0.55696  0.21542  0.09690  1.0000 1.2853606285
In  In3       1.0  0.28458  0.05696  0.09690  1.0000 1.2853606285
In  In4       1.0  0.71542  0.94304  0.09690  1.0000 1.2853606285
In  In5       1.0  0.05696  0.71542  0.90310  1.0000 1.2853606285
In  In6       1.0  0.94304  0.28458  0.90310  1.0000 1.2853606285
In  In7       1.0  0.21542  0.44304  0.90310  1.0000 1.2853606285
In  In8       1.0  0.78458  0.55696  0.90310  1.0000 1.2853606285
H   H1        1.0  0.42530  0.87030  0.64350  1.0000 0.1217485853
H   H2        1.0  0.57470  0.12970  0.64350  1.0000 0.1217485853
H   H3        1.0  0.37030  0.07470  0.64350  1.0000 0.1217485853
H   H4        1.0  0.62970  0.92530  0.64350  1.0000 0.1217485853
H   H5        1.0  0.07470  0.62970  0.35650  1.0000 0.1217485853
H   H6        1.0  0.92530  0.37030  0.35650  1.0000 0.1217485853
H   H7        1.0  0.12970  0.42530  0.35650  1.0000 0.1217485853
H   H8        1.0  0.87030  0.57470  0.35650  1.0000 0.1217485853
H   H9        1.0  0.42160  0.91180  0.38630  1.0000 0.1287002658
H   H10       1.0  0.57840  0.08820  0.38630  1.0000 0.1287002658
H   H11       1.0  0.41180  0.07840  0.38630  1.0000 0.1287002658
H   H12       1.0  0.58820  0.92160  0.38630  1.0000 0.1287002658
H   H13       1.0  0.07840  0.58820  0.61370  1.0000 0.1287002658
H   H14       1.0  0.92160  0.41180  0.61370  1.0000 0.1287002658
H   H15       1.0  0.08820  0.42160  0.61370  1.0000 0.1287002658
H   H16       1.0  0.91180  0.57840  0.61370  1.0000 0.1287002658
H   H17       1.0  0.39250  0.96380  0.23640  1.0000 0.1217485853
H   H18       1.0  0.60750  0.03620  0.23640  1.0000 0.1217485853
H   H19       1.0  0.46380  0.10750  0.23640  1.0000 0.1217485853
H   H20       1.0  0.53620  0.89250  0.23640  1.0000 0.1217485853
H   H21       1.0  0.10750  0.53620  0.76360  1.0000 0.1217485853
H   H22       1.0  0.89250  0.46380  0.76360  1.0000 0.1217485853
H   H23       1.0  0.03620  0.39250  0.76360  1.0000 0.1217485853
H   H24       1.0  0.96380  0.60750  0.76360  1.0000 0.1217485853
H   H25       1.0  0.32660  0.00400  0.62400  1.0000 0.1287002658
H   H26       1.0  0.67340  0.99600  0.62400  1.0000 0.1287002658
H   H27       1.0  0.50400  0.17340  0.62400  1.0000 0.1287002658
H   H28       1.0  0.49600  0.82660  0.62400  1.0000 0.1287002658
H   H29       1.0  0.17340  0.49600  0.37600  1.0000 0.1287002658
H   H30       1.0  0.82660  0.50400  0.37600  1.0000 0.1287002658
H   H31       1.0  0.99600  0.32660  0.37600  1.0000 0.1287002658
H   H32       1.0  0.00400  0.67340  0.37600  1.0000 0.1287002658
H   H33       1.0  0.33380  0.96420  0.88350  1.0000 0.1369380101
H   H34       1.0  0.66620  0.03580  0.88350  1.0000 0.1369380101
H   H35       1.0  0.46420  0.16620  0.88350  1.0000 0.1369380101
H   H36       1.0  0.53580  0.83380  0.88350  1.0000 0.1369380101
H   H37       1.0  0.16620  0.53580  0.11650  1.0000 0.1369380101
H   H38       1.0  0.83380  0.46420  0.11650  1.0000 0.1369380101
H   H39       1.0  0.03580  0.33380  0.11650  1.0000 0.1369380101
H   H40       1.0  0.96420  0.66620  0.11650  1.0000 0.1369380101
H   H41       1.0  0.35840  0.90760  0.02530  1.0000 0.1217485853
H   H42       1.0  0.64160  0.09240  0.02530  1.0000 0.1217485853
H   H43       1.0  0.40760  0.14160  0.02530  1.0000 0.1217485853
H   H44       1.0  0.59240  0.85840  0.02530  1.0000 0.1217485853
H   H45       1.0  0.14160  0.59240  0.97470  1.0000 0.1217485853
H   H46       1.0  0.85840  0.40760  0.97470  1.0000 0.1217485853
H   H47       1.0  0.09240  0.35840  0.97470  1.0000 0.1217485853
H   H48       1.0  0.90760  0.64160  0.97470  1.0000 0.1217485853
H   H49       1.0  0.53880  0.67790  0.27820  1.0000 0.1287002658
H   H50       1.0  0.46120  0.32210  0.27820  1.0000 0.1287002658
H   H51       1.0  0.17790  0.96120  0.27820  1.0000 0.1287002658
H   H52       1.0  0.82210  0.03880  0.27820  1.0000 0.1287002658
H   H53       1.0  0.96120  0.82210  0.72180  1.0000 0.1287002658
H   H54       1.0  0.03880  0.17790  0.72180  1.0000 0.1287002658
H   H55       1.0  0.32210  0.53880  0.72180  1.0000 0.1287002658
H   H56       1.0  0.67790  0.46120  0.72180  1.0000 0.1287002658
H   H57       1.0  0.59870  0.64000  0.27340  1.0000 0.1217485853
H   H58       1.0  0.40130  0.36000  0.27340  1.0000 0.1217485853
H   H59       1.0  0.14000  0.90130  0.27340  1.0000 0.1217485853
H   H60       1.0  0.86000  0.09870  0.27340  1.0000 0.1217485853
H   H61       1.0  0.90130  0.86000  0.72660  1.0000 0.1217485853
H   H62       1.0  0.09870  0.14000  0.72660  1.0000 0.1217485853
H   H63       1.0  0.36000  0.59870  0.72660  1.0000 0.1217485853
H   H64       1.0  0.64000  0.40130  0.72660  1.0000 0.1217485853
H   H65       1.0  0.66610  0.61910  0.13970  1.0000 0.1287002658
H   H66       1.0  0.33390  0.38090  0.13970  1.0000 0.1287002658
H   H67       1.0  0.11910  0.83390  0.13970  1.0000 0.1287002658
H   H68       1.0  0.88090  0.16610  0.13970  1.0000 0.1287002658
H   H69       1.0  0.83390  0.88090  0.86030  1.0000 0.1287002658
H   H70       1.0  0.16610  0.11910  0.86030  1.0000 0.1287002658
H   H71       1.0  0.38090  0.66610  0.86030  1.0000 0.1287002658
H   H72       1.0  0.61910  0.33390  0.86030  1.0000 0.1287002658
H   H73       1.0  0.69580  0.66960  0.71160  1.0000 0.1287002658
H   H74       1.0  0.30420  0.33040  0.71160  1.0000 0.1287002658
H   H75       1.0  0.16960  0.80420  0.71160  1.0000 0.1287002658
H   H76       1.0  0.83040  0.19580  0.71160  1.0000 0.1287002658
H   H77       1.0  0.80420  0.83040  0.28840  1.0000 0.1287002658
H   H78       1.0  0.19580  0.16960  0.28840  1.0000 0.1287002658
H   H79       1.0  0.33040  0.69580  0.28840  1.0000 0.1287002658
H   H80       1.0  0.66960  0.30420  0.28840  1.0000 0.1287002658
H   H81       1.0  0.63780  0.71170  0.72200  1.0000 0.1217485853
H   H82       1.0  0.36220  0.28830  0.72200  1.0000 0.1217485853
H   H83       1.0  0.21170  0.86220  0.72200  1.0000 0.1217485853
H   H84       1.0  0.78830  0.13780  0.72200  1.0000 0.1217485853
H   H85       1.0  0.86220  0.78830  0.27800  1.0000 0.1217485853
H   H86       1.0  0.13780  0.21170  0.27800  1.0000 0.1217485853
H   H87       1.0  0.28830  0.63780  0.27800  1.0000 0.1217485853
H   H88       1.0  0.71170  0.36220  0.27800  1.0000 0.1217485853
H   H89       1.0  0.57040  0.73190  0.85950  1.0000 0.1287002658
H   H90       1.0  0.42960  0.26810  0.85950  1.0000 0.1287002658
H   H91       1.0  0.23190  0.92960  0.85950  1.0000 0.1287002658
H   H92       1.0  0.76810  0.07040  0.85950  1.0000 0.1287002658
H   H93       1.0  0.92960  0.76810  0.14050  1.0000 0.1287002658
H   H94       1.0  0.07040  0.23190  0.14050  1.0000 0.1287002658
H   H95       1.0  0.26810  0.57040  0.14050  1.0000 0.1287002658
H   H96       1.0  0.73190  0.42960  0.14050  1.0000 0.1287002658
H   H97       1.0  0.77410  0.56720  0.46420  1.0000 0.2730390669
H   H98       1.0  0.76360  0.57060  0.29370  1.0000 0.2756165357
H   H99       1.0  0.73260  0.62540  0.51480  1.0000 0.0871297938
H   H100      1.0  0.72910  0.63030  0.32710  1.0000 0.0803207175
H   H101      1.0  0.80750  0.63290  0.48420  1.0000 0.1369380101
H   H102      1.0  0.78180  0.67390  0.44660  1.0000 0.1287002658
H   H103      1.0  0.79890  0.64600  0.30480  1.0000 0.1287002658
H   H104      1.0  0.69440  0.55830  0.34180  1.0000 0.0871297938
H   H105      1.0  0.70410  0.55760  0.52800  1.0000 0.0979446189
H   H106      1.0  0.70050  0.48830  0.39120  1.0000 0.1217485853
H   H107      1.0  0.73810  0.49480  0.51160  1.0000 0.1287002658
H   H108      1.0  0.74550  0.49930  0.32520  1.0000 0.1287002658
H   H109      1.0  0.22590  0.43280  0.46420  1.0000 0.2730390669
H   H110      1.0  0.23640  0.42940  0.29370  1.0000 0.2756165357
H   H111      1.0  0.26740  0.37460  0.51480  1.0000 0.0871297938
H   H112      1.0  0.27090  0.36970  0.32710  1.0000 0.0803207175
H   H113      1.0  0.19250  0.36710  0.48420  1.0000 0.1369380101
H   H114      1.0  0.21820  0.32610  0.44660  1.0000 0.1287002658
H   H115      1.0  0.20110  0.35400  0.30480  1.0000 0.1287002658
H   H116      1.0  0.30560  0.44170  0.34180  1.0000 0.0871297938
H   H117      1.0  0.29590  0.44240  0.52800  1.0000 0.0979446189
H   H118      1.0  0.29950  0.51170  0.39120  1.0000 0.1217485853
H   H119      1.0  0.26190  0.50520  0.51160  1.0000 0.1287002658
H   H120      1.0  0.25450  0.50070  0.32520  1.0000 0.1287002658
H   H121      1.0  0.93280  0.27410  0.46420  1.0000 0.2730390669
H   H122      1.0  0.92940  0.26360  0.29370  1.0000 0.2756165357
H   H123      1.0  0.87460  0.23260  0.51480  1.0000 0.0871297938
H   H124      1.0  0.86970  0.22910  0.32710  1.0000 0.0803207175
H   H125      1.0  0.86710  0.30750  0.48420  1.0000 0.1369380101
H   H126      1.0  0.82610  0.28180  0.44660  1.0000 0.1287002658
H   H127      1.0  0.85400  0.29890  0.30480  1.0000 0.1287002658
H   H128      1.0  0.94170  0.19440  0.34180  1.0000 0.0871297938
H   H129      1.0  0.94240  0.20410  0.52800  1.0000 0.0979446189
H   H130      1.0  0.01170  0.20050  0.39120  1.0000 0.1217485853
H   H131      1.0  0.00520  0.23810  0.51160  1.0000 0.1287002658
H   H132      1.0  0.00070  0.24550  0.32520  1.0000 0.1287002658
H   H133      1.0  0.06720  0.72590  0.46420  1.0000 0.2730390669
H   H134      1.0  0.07060  0.73640  0.29370  1.0000 0.2756165357
H   H135      1.0  0.12540  0.76740  0.51480  1.0000 0.0871297938
H   H136      1.0  0.13030  0.77090  0.32710  1.0000 0.0803207175
H   H137      1.0  0.13290  0.69250  0.48420  1.0000 0.1369380101
H   H138      1.0  0.17390  0.71820  0.44660  1.0000 0.1287002658
H   H139      1.0  0.14600  0.70110  0.30480  1.0000 0.1287002658
H   H140      1.0  0.05830  0.80560  0.34180  1.0000 0.0871297938
H   H141      1.0  0.05760  0.79590  0.52800  1.0000 0.0979446189
H   H142      1.0  0.98830  0.79950  0.39120  1.0000 0.1217485853
H   H143      1.0  0.99480  0.76190  0.51160  1.0000 0.1287002658
H   H144      1.0  0.99930  0.75450  0.32520  1.0000 0.1287002658
H   H145      1.0  0.72590  0.93280  0.53580  1.0000 0.2730390669
H   H146      1.0  0.73640  0.92940  0.70630  1.0000 0.2756165357
H   H147      1.0  0.76740  0.87460  0.48520  1.0000 0.0871297938
H   H148      1.0  0.77090  0.86970  0.67290  1.0000 0.0803207175
H   H149      1.0  0.69250  0.86710  0.51580  1.0000 0.1369380101
H   H150      1.0  0.71820  0.82610  0.55340  1.0000 0.1287002658
H   H151      1.0  0.70110  0.85400  0.69520  1.0000 0.1287002658
H   H152      1.0  0.80560  0.94170  0.65820  1.0000 0.0871297938
H   H153      1.0  0.79590  0.94240  0.47200  1.0000 0.0979446189
H   H154      1.0  0.79950  0.01170  0.60880  1.0000 0.1217485853
H   H155      1.0  0.76190  0.00520  0.48840  1.0000 0.1287002658
H   H156      1.0  0.75450  0.00070  0.67480  1.0000 0.1287002658
H   H157      1.0  0.27410  0.06720  0.53580  1.0000 0.2730390669
H   H158      1.0  0.26360  0.07060  0.70630  1.0000 0.2756165357
H   H159      1.0  0.23260  0.12540  0.48520  1.0000 0.0871297938
H   H160      1.0  0.22910  0.13030  0.67290  1.0000 0.0803207175
H   H161      1.0  0.30750  0.13290  0.51580  1.0000 0.1369380101
H   H162      1.0  0.28180  0.17390  0.55340  1.0000 0.1287002658
H   H163      1.0  0.29890  0.14600  0.69520  1.0000 0.1287002658
H   H164      1.0  0.19440  0.05830  0.65820  1.0000 0.0871297938
H   H165      1.0  0.20410  0.05760  0.47200  1.0000 0.0979446189
H   H166      1.0  0.20050  0.98830  0.60880  1.0000 0.1217485853
H   H167      1.0  0.23810  0.99480  0.48840  1.0000 0.1287002658
H   H168      1.0  0.24550  0.99930  0.67480  1.0000 0.1287002658
H   H169      1.0  0.56720  0.22590  0.53580  1.0000 0.2730390669
H   H170      1.0  0.57060  0.23640  0.70630  1.0000 0.2756165357
H   H171      1.0  0.62540  0.26740  0.48520  1.0000 0.0871297938
H   H172      1.0  0.63030  0.27090  0.67290  1.0000 0.0803207175
H   H173      1.0  0.63290  0.19250  0.51580  1.0000 0.1369380101
H   H174      1.0  0.67390  0.21820  0.55340  1.0000 0.1287002658
H   H175      1.0  0.64600  0.20110  0.69520  1.0000 0.1287002658
H   H176      1.0  0.55830  0.30560  0.65820  1.0000 0.0871297938
H   H177      1.0  0.55760  0.29590  0.47200  1.0000 0.0979446189
H   H178      1.0  0.48830  0.29950  0.60880  1.0000 0.1217485853
H   H179      1.0  0.49480  0.26190  0.48840  1.0000 0.1287002658
H   H180      1.0  0.49930  0.25450  0.67480  1.0000 0.1287002658
H   H181      1.0  0.43280  0.77410  0.53580  1.0000 0.2730390669
H   H182      1.0  0.42940  0.76360  0.70630  1.0000 0.2756165357
H   H183      1.0  0.37460  0.73260  0.48520  1.0000 0.0871297938
H   H184      1.0  0.36970  0.72910  0.67290  1.0000 0.0803207175
H   H185      1.0  0.36710  0.80750  0.51580  1.0000 0.1369380101
H   H186      1.0  0.32610  0.78180  0.55340  1.0000 0.1287002658
H   H187      1.0  0.35400  0.79890  0.69520  1.0000 0.1287002658
H   H188      1.0  0.44170  0.69440  0.65820  1.0000 0.0871297938
H   H189      1.0  0.44240  0.70410  0.47200  1.0000 0.0979446189
H   H190      1.0  0.51170  0.70050  0.60880  1.0000 0.1217485853
H   H191      1.0  0.50520  0.73810  0.48840  1.0000 0.1287002658
H   H192      1.0  0.50070  0.74550  0.67480  1.0000 0.1287002658
C   C1        1.0  0.40910  0.84490  0.93100  1.0000 0.5289901735
C   C2        1.0  0.59090  0.15510  0.93100  1.0000 0.5289901735
C   C3        1.0  0.34490  0.09090  0.93100  1.0000 0.5289901735
C   C4        1.0  0.65510  0.90910  0.93100  1.0000 0.5289901735
C   C5        1.0  0.09090  0.65510  0.06900  1.0000 0.5289901735
C   C6        1.0  0.90910  0.34490  0.06900  1.0000 0.5289901735
C   C7        1.0  0.15510  0.40910  0.06900  1.0000 0.5289901735
C   C8        1.0  0.84490  0.59090  0.06900  1.0000 0.5289901735
C   C9        1.0  0.39420  0.88270  0.84360  1.0000 -0.0201405968
C   C10       1.0  0.60580  0.11730  0.84360  1.0000 -0.0201405968
C   C11       1.0  0.38270  0.10580  0.84360  1.0000 -0.0201405968
C   C12       1.0  0.61730  0.89420  0.84360  1.0000 -0.0201405968
C   C13       1.0  0.10580  0.61730  0.15640  1.0000 -0.0201405968
C   C14       1.0  0.89420  0.38270  0.15640  1.0000 -0.0201405968
C   C15       1.0  0.11730  0.39420  0.15640  1.0000 -0.0201405968
C   C16       1.0  0.88270  0.60580  0.15640  1.0000 -0.0201405968
C   C17       1.0  0.40630  0.88900  0.69000  1.0000 -0.1481478353
C   C18       1.0  0.59370  0.11100  0.69000  1.0000 -0.1481478353
C   C19       1.0  0.38900  0.09370  0.69000  1.0000 -0.1481478353
C   C20       1.0  0.61100  0.90630  0.69000  1.0000 -0.1481478353
C   C21       1.0  0.09370  0.61100  0.31000  1.0000 -0.1481478353
C   C22       1.0  0.90630  0.38900  0.31000  1.0000 -0.1481478353
C   C23       1.0  0.11100  0.40630  0.31000  1.0000 -0.1481478353
C   C24       1.0  0.88900  0.59370  0.31000  1.0000 -0.1481478353
C   C25       1.0  0.39110  0.92310  0.59670  1.0000 0.0803207175
C   C26       1.0  0.60890  0.07690  0.59670  1.0000 0.0803207175
C   C27       1.0  0.42310  0.10890  0.59670  1.0000 0.0803207175
C   C28       1.0  0.57690  0.89110  0.59670  1.0000 0.0803207175
C   C29       1.0  0.10890  0.57690  0.40330  1.0000 0.0803207175
C   C30       1.0  0.89110  0.42310  0.40330  1.0000 0.0803207175
C   C31       1.0  0.07690  0.39110  0.40330  1.0000 0.0803207175
C   C32       1.0  0.92310  0.60890  0.40330  1.0000 0.0803207175
C   C33       1.0  0.40190  0.92960  0.43370  1.0000 -0.1312661974
C   C34       1.0  0.59810  0.07040  0.43370  1.0000 -0.1312661974
C   C35       1.0  0.42960  0.09810  0.43370  1.0000 -0.1312661974
C   C36       1.0  0.57040  0.90190  0.43370  1.0000 -0.1312661974
C   C37       1.0  0.09810  0.57040  0.56630  1.0000 -0.1312661974
C   C38       1.0  0.90190  0.42960  0.56630  1.0000 -0.1312661974
C   C39       1.0  0.07040  0.40190  0.56630  1.0000 -0.1312661974
C   C40       1.0  0.92960  0.59810  0.56630  1.0000 -0.1312661974
C   C41       1.0  0.38490  0.96030  0.34410  1.0000 -0.1039812623
C   C42       1.0  0.61510  0.03970  0.34410  1.0000 -0.1039812623
C   C43       1.0  0.46030  0.11510  0.34410  1.0000 -0.1039812623
C   C44       1.0  0.53970  0.88490  0.34410  1.0000 -0.1039812623
C   C45       1.0  0.11510  0.53970  0.65590  1.0000 -0.1039812623
C   C46       1.0  0.88490  0.46030  0.65590  1.0000 -0.1039812623
C   C47       1.0  0.03970  0.38490  0.65590  1.0000 -0.1039812623
C   C48       1.0  0.96030  0.61510  0.65590  1.0000 -0.1039812623
C   C49       1.0  0.35480  0.98780  0.41910  1.0000 -0.0289621751
C   C50       1.0  0.64520  0.01220  0.41910  1.0000 -0.0289621751
C   C51       1.0  0.48780  0.14520  0.41910  1.0000 -0.0289621751
C   C52       1.0  0.51220  0.85480  0.41910  1.0000 -0.0289621751
C   C53       1.0  0.14520  0.51220  0.58090  1.0000 -0.0289621751
C   C54       1.0  0.85480  0.48780  0.58090  1.0000 -0.0289621751
C   C55       1.0  0.01220  0.35480  0.58090  1.0000 -0.0289621751
C   C56       1.0  0.98780  0.64520  0.58090  1.0000 -0.0289621751
C   C57       1.0  0.34490  0.98460  0.57740  1.0000 -0.1481478353
C   C58       1.0  0.65510  0.01540  0.57740  1.0000 -0.1481478353
C   C59       1.0  0.48460  0.15510  0.57740  1.0000 -0.1481478353
C   C60       1.0  0.51540  0.84490  0.57740  1.0000 -0.1481478353
C   C61       1.0  0.15510  0.51540  0.42260  1.0000 -0.1481478353
C   C62       1.0  0.84490  0.48460  0.42260  1.0000 -0.1481478353
C   C63       1.0  0.01540  0.34490  0.42260  1.0000 -0.1481478353
C   C64       1.0  0.98460  0.65510  0.42260  1.0000 -0.1481478353
C   C65       1.0  0.36260  0.95140  0.67400  1.0000 0.0803207175
C   C66       1.0  0.63740  0.04860  0.67400  1.0000 0.0803207175
C   C67       1.0  0.45140  0.13740  0.67400  1.0000 0.0803207175
C   C68       1.0  0.54860  0.86260  0.67400  1.0000 0.0803207175
C   C69       1.0  0.13740  0.54860  0.32600  1.0000 0.0803207175
C   C70       1.0  0.86260  0.45140  0.32600  1.0000 0.0803207175
C   C71       1.0  0.04860  0.36260  0.32600  1.0000 0.0803207175
C   C72       1.0  0.95140  0.63740  0.32600  1.0000 0.0803207175
C   C73       1.0  0.35170  0.94510  0.83310  1.0000 -0.1312661974
C   C74       1.0  0.64830  0.05490  0.83310  1.0000 -0.1312661974
C   C75       1.0  0.44510  0.14830  0.83310  1.0000 -0.1312661974
C   C76       1.0  0.55490  0.85170  0.83310  1.0000 -0.1312661974
C   C77       1.0  0.14830  0.55490  0.16690  1.0000 -0.1312661974
C   C78       1.0  0.85170  0.44510  0.16690  1.0000 -0.1312661974
C   C79       1.0  0.05490  0.35170  0.16690  1.0000 -0.1312661974
C   C80       1.0  0.94510  0.64830  0.16690  1.0000 -0.1312661974
C   C81       1.0  0.36650  0.91150  0.91840  1.0000 -0.1039812623
C   C82       1.0  0.63350  0.08850  0.91840  1.0000 -0.1039812623
C   C83       1.0  0.41150  0.13350  0.91840  1.0000 -0.1039812623
C   C84       1.0  0.58850  0.86650  0.91840  1.0000 -0.1039812623
C   C85       1.0  0.13350  0.58850  0.08160  1.0000 -0.1039812623
C   C86       1.0  0.86650  0.41150  0.08160  1.0000 -0.1039812623
C   C87       1.0  0.08850  0.36650  0.08160  1.0000 -0.1039812623
C   C88       1.0  0.91150  0.63350  0.08160  1.0000 -0.1039812623
C   C89       1.0  0.33190  0.01760  0.31240  1.0000 0.5355393903
C   C90       1.0  0.66810  0.98240  0.31240  1.0000 0.5355393903
C   C91       1.0  0.51760  0.16810  0.31240  1.0000 0.5355393903
C   C92       1.0  0.48240  0.83190  0.31240  1.0000 0.5355393903
C   C93       1.0  0.16810  0.48240  0.68760  1.0000 0.5355393903
C   C94       1.0  0.83190  0.51760  0.68760  1.0000 0.5355393903
C   C95       1.0  0.98240  0.33190  0.68760  1.0000 0.5355393903
C   C96       1.0  0.01760  0.66810  0.68760  1.0000 0.5355393903
C   C97       1.0  0.50880  0.73590  0.07100  1.0000 0.5249753536
C   C98       1.0  0.49120  0.26410  0.07100  1.0000 0.5249753536
C   C99       1.0  0.23590  0.99120  0.07100  1.0000 0.5249753536
C   C100      1.0  0.76410  0.00880  0.07100  1.0000 0.5249753536
C   C101      1.0  0.99120  0.76410  0.92900  1.0000 0.5249753536
C   C102      1.0  0.00880  0.23590  0.92900  1.0000 0.5249753536
C   C103      1.0  0.26410  0.50880  0.92900  1.0000 0.5249753536
C   C104      1.0  0.73590  0.49120  0.92900  1.0000 0.5249753536
C   C105      1.0  0.54780  0.70980  0.06410  1.0000 -0.0105713408
C   C106      1.0  0.45220  0.29020  0.06410  1.0000 -0.0105713408
C   C107      1.0  0.20980  0.95220  0.06410  1.0000 -0.0105713408
C   C108      1.0  0.79020  0.04780  0.06410  1.0000 -0.0105713408
C   C109      1.0  0.95220  0.79020  0.93590  1.0000 -0.0105713408
C   C110      1.0  0.04780  0.20980  0.93590  1.0000 -0.0105713408
C   C111      1.0  0.29020  0.54780  0.93590  1.0000 -0.0105713408
C   C112      1.0  0.70980  0.45220  0.93590  1.0000 -0.0105713408
C   C113      1.0  0.55740  0.68090  0.19220  1.0000 -0.1039812623
C   C114      1.0  0.44260  0.31910  0.19220  1.0000 -0.1039812623
C   C115      1.0  0.18090  0.94260  0.19220  1.0000 -0.1039812623
C   C116      1.0  0.81910  0.05740  0.19220  1.0000 -0.1039812623
C   C117      1.0  0.94260  0.81910  0.80780  1.0000 -0.1039812623
C   C118      1.0  0.05740  0.18090  0.80780  1.0000 -0.1039812623
C   C119      1.0  0.31910  0.55740  0.80780  1.0000 -0.1039812623
C   C120      1.0  0.68090  0.44260  0.80780  1.0000 -0.1039812623
C   C121      1.0  0.59290  0.65820  0.18840  1.0000 -0.1481478353
C   C122      1.0  0.40710  0.34180  0.18840  1.0000 -0.1481478353
C   C123      1.0  0.15820  0.90710  0.18840  1.0000 -0.1481478353
C   C124      1.0  0.84180  0.09290  0.18840  1.0000 -0.1447441739
C   C125      1.0  0.90710  0.84180  0.81160  1.0000 -0.1447441739
C   C126      1.0  0.09290  0.15820  0.81160  1.0000 -0.1447441739
C   C127      1.0  0.34180  0.59290  0.81160  1.0000 -0.1447441739
C   C128      1.0  0.65820  0.40710  0.81160  1.0000 -0.1447441739
C   C129      1.0  0.62130  0.66110  0.06100  1.0000 0.0710456407
C   C130      1.0  0.37870  0.33890  0.06100  1.0000 0.0710456407
C   C131      1.0  0.16110  0.87870  0.06100  1.0000 0.0710456407
C   C132      1.0  0.83890  0.12130  0.06100  1.0000 0.0710456407
C   C133      1.0  0.87870  0.83890  0.93900  1.0000 0.0710456407
C   C134      1.0  0.12130  0.16110  0.93900  1.0000 0.0710456407
C   C135      1.0  0.33890  0.62130  0.93900  1.0000 0.0710456407
C   C136      1.0  0.66110  0.37870  0.93900  1.0000 0.0710456407
C   C137      1.0  0.65950  0.63720  0.05510  1.0000 -0.1481478353
C   C138      1.0  0.34050  0.36280  0.05510  1.0000 -0.1481478353
C   C139      1.0  0.13720  0.84050  0.05510  1.0000 -0.1481478353
C   C140      1.0  0.86280  0.15950  0.05510  1.0000 -0.1481478353
C   C141      1.0  0.84050  0.86280  0.94490  1.0000 -0.1481478353
C   C142      1.0  0.15950  0.13720  0.94490  1.0000 -0.1481478353
C   C143      1.0  0.36280  0.65950  0.94490  1.0000 -0.1481478353
C   C144      1.0  0.63720  0.34050  0.94490  1.0000 -0.1481478353
C   C145      1.0  0.68590  0.64060  0.92990  1.0000 0.0030005814
C   C146      1.0  0.31410  0.35940  0.92990  1.0000 0.0030005814
C   C147      1.0  0.14060  0.81410  0.92990  1.0000 0.0030005814
C   C148      1.0  0.85940  0.18590  0.92990  1.0000 0.0030005814
C   C149      1.0  0.81410  0.85940  0.07010  1.0000 0.0030005814
C   C150      1.0  0.18590  0.14060  0.07010  1.0000 0.0030005814
C   C151      1.0  0.35940  0.68590  0.07010  1.0000 0.0030005814
C   C152      1.0  0.64060  0.31410  0.07010  1.0000 0.0030005814
C   C153      1.0  0.67760  0.66820  0.79940  1.0000 -0.1200534918
C   C154      1.0  0.32240  0.33180  0.79940  1.0000 -0.1200534918
C   C155      1.0  0.16820  0.82240  0.79940  1.0000 -0.1200534918
C   C156      1.0  0.83180  0.17760  0.79940  1.0000 -0.1200534918
C   C157      1.0  0.82240  0.83180  0.20060  1.0000 -0.1200534918
C   C158      1.0  0.17760  0.16820  0.20060  1.0000 -0.1200534918
C   C159      1.0  0.33180  0.67760  0.20060  1.0000 -0.1200534918
C   C160      1.0  0.66820  0.32240  0.20060  1.0000 -0.1200534918
C   C161      1.0  0.64280  0.69260  0.80490  1.0000 -0.1447441739
C   C162      1.0  0.35720  0.30740  0.80490  1.0000 -0.1447441739
C   C163      1.0  0.19260  0.85720  0.80490  1.0000 -0.1447441739
C   C164      1.0  0.80740  0.14280  0.80490  1.0000 -0.1447441739
C   C165      1.0  0.85720  0.80740  0.19510  1.0000 -0.1447441739
C   C166      1.0  0.14280  0.19260  0.19510  1.0000 -0.1447441739
C   C167      1.0  0.30740  0.64280  0.19510  1.0000 -0.1447441739
C   C168      1.0  0.69260  0.35720  0.19510  1.0000 -0.1447441739
C   C169      1.0  0.61370  0.68960  0.93490  1.0000 0.0637586003
C   C170      1.0  0.38630  0.31040  0.93490  1.0000 0.0637586003
C   C171      1.0  0.18960  0.88630  0.93490  1.0000 0.0637586003
C   C172      1.0  0.81040  0.11370  0.93490  1.0000 0.0637586003
C   C173      1.0  0.88630  0.81040  0.06510  1.0000 0.0637586003
C   C174      1.0  0.11370  0.18960  0.06510  1.0000 0.0637586003
C   C175      1.0  0.31040  0.61370  0.06510  1.0000 0.0637586003
C   C176      1.0  0.68960  0.38630  0.06510  1.0000 0.0637586003
C   C177      1.0  0.57610  0.71300  0.94270  1.0000 -0.1481478353
C   C178      1.0  0.42390  0.28700  0.94270  1.0000 -0.1481478353
C   C179      1.0  0.21300  0.92390  0.94270  1.0000 -0.1481478353
C   C180      1.0  0.78700  0.07610  0.94270  1.0000 -0.1481478353
C   C181      1.0  0.92390  0.78700  0.05730  1.0000 -0.1481478353
C   C182      1.0  0.07610  0.21300  0.05730  1.0000 -0.1481478353
C   C183      1.0  0.28700  0.57610  0.05730  1.0000 -0.1481478353
C   C184      1.0  0.71300  0.42390  0.05730  1.0000 -0.1481478353
C   C185      1.0  0.72390  0.61190  0.92380  1.0000 0.5289901735
C   C186      1.0  0.27610  0.38810  0.92380  1.0000 0.5289901735
C   C187      1.0  0.11190  0.77610  0.92380  1.0000 0.5289901735
C   C188      1.0  0.88810  0.22390  0.92380  1.0000 0.5289901735
C   C189      1.0  0.77610  0.88810  0.07620  1.0000 0.5289901735
C   C190      1.0  0.22390  0.11190  0.07620  1.0000 0.5289901735
C   C191      1.0  0.38810  0.72390  0.07620  1.0000 0.5289901735
C   C192      1.0  0.61190  0.27610  0.07620  1.0000 0.5289901735
C   C193      1.0  0.74720  0.62040  0.41360  1.0000 -0.0289621751
C   C194      1.0  0.78750  0.64560  0.41200  1.0000 -0.4005989639
C   C195      1.0  0.71550  0.55110  0.42220  1.0000 -0.0201405968
C   C196      1.0  0.72590  0.50400  0.41160  1.0000 -0.4228814452
C   C197      1.0  0.25280  0.37960  0.41360  1.0000 -0.0289621751
C   C198      1.0  0.21250  0.35440  0.41200  1.0000 -0.4005989639
C   C199      1.0  0.28450  0.44890  0.42220  1.0000 -0.0201405968
C   C200      1.0  0.27410  0.49600  0.41160  1.0000 -0.4228814452
C   C201      1.0  0.87960  0.24720  0.41360  1.0000 -0.0289621751
C   C202      1.0  0.85440  0.28750  0.41200  1.0000 -0.4005989639
C   C203      1.0  0.94890  0.21550  0.42220  1.0000 -0.0201405968
C   C204      1.0  0.99600  0.22590  0.41160  1.0000 -0.4228814452
C   C205      1.0  0.12040  0.75280  0.41360  1.0000 -0.0289621751
C   C206      1.0  0.14560  0.71250  0.41200  1.0000 -0.4005989639
C   C207      1.0  0.05110  0.78450  0.42220  1.0000 -0.0201405968
C   C208      1.0  0.00400  0.77410  0.41160  1.0000 -0.4228814452
C   C209      1.0  0.75280  0.87960  0.58640  1.0000 -0.0289621751
C   C210      1.0  0.71250  0.85440  0.58800  1.0000 -0.4005989639
C   C211      1.0  0.78450  0.94890  0.57780  1.0000 -0.0201405968
C   C212      1.0  0.77410  0.99600  0.58840  1.0000 -0.4228814452
C   C213      1.0  0.24720  0.12040  0.58640  1.0000 -0.0289621751
C   C214      1.0  0.28750  0.14560  0.58800  1.0000 -0.4005989639
C   C215      1.0  0.21550  0.05110  0.57780  1.0000 -0.0201405968
C   C216      1.0  0.22590  0.00400  0.58840  1.0000 -0.4228814452
C   C217      1.0  0.62040  0.25280  0.58640  1.0000 -0.0289621751
C   C218      1.0  0.64560  0.21250  0.58800  1.0000 -0.4005989639
C   C219      1.0  0.55110  0.28450  0.57780  1.0000 -0.0201405968
C   C220      1.0  0.50400  0.27410  0.58840  1.0000 -0.4228814452
C   C221      1.0  0.37960  0.74720  0.58640  1.0000 -0.0289621751
C   C222      1.0  0.35440  0.78750  0.58800  1.0000 -0.4005989639
C   C223      1.0  0.44890  0.71550  0.57780  1.0000 -0.0201405968
C   C224      1.0  0.49600  0.72590  0.58840  1.0000 -0.4228814452
N   N1        1.0  0.75410  0.57560  0.39430  1.0000 -0.2174475325
N   N2        1.0  0.24590  0.42440  0.39430  1.0000 -0.2174475325
N   N3        1.0  0.92440  0.25410  0.39430  1.0000 -0.2174475325
N   N4        1.0  0.07560  0.74590  0.39430  1.0000 -0.2174475325
N   N5        1.0  0.74590  0.92440  0.60570  1.0000 -0.2174475325
N   N6        1.0  0.25410  0.07560  0.60570  1.0000 -0.2174475325
N   N7        1.0  0.57560  0.24590  0.60570  1.0000 -0.2174475325
N   N8        1.0  0.42440  0.75410  0.60570  1.0000 -0.2174475325
O   O1        1.0  0.39720  0.83790  0.07190  1.0000 -0.5084459184
O   O2        1.0  0.60280  0.16210  0.07190  1.0000 -0.5084459184
O   O3        1.0  0.33790  0.10280  0.07190  1.0000 -0.5084459184
O   O4        1.0  0.66210  0.89720  0.07190  1.0000 -0.5084459184
O   O5        1.0  0.10280  0.66210  0.92810  1.0000 -0.5084459184
O   O6        1.0  0.89720  0.33790  0.92810  1.0000 -0.5084459184
O   O7        1.0  0.16210  0.39720  0.92810  1.0000 -0.5084459184
O   O8        1.0  0.83790  0.60280  0.92810  1.0000 -0.5084459184
O   O9        1.0  0.43500  0.82050  0.86350  1.0000 -0.5375731459
O   O10       1.0  0.56500  0.17950  0.86350  1.0000 -0.5375731459
O   O11       1.0  0.32050  0.06500  0.86350  1.0000 -0.5375731459
O   O12       1.0  0.67950  0.93500  0.86350  1.0000 -0.5375731459
O   O13       1.0  0.06500  0.67950  0.13650  1.0000 -0.5375731459
O   O14       1.0  0.93500  0.32050  0.13650  1.0000 -0.5375731459
O   O15       1.0  0.17950  0.43500  0.13650  1.0000 -0.5375731459
O   O16       1.0  0.82050  0.56500  0.13650  1.0000 -0.5375731459
O   O17       1.0  0.30950  0.04740  0.36760  1.0000 -0.5498862474
O   O18       1.0  0.69050  0.95260  0.36760  1.0000 -0.5498862474
O   O19       1.0  0.54740  0.19050  0.36760  1.0000 -0.5498862474
O   O20       1.0  0.45260  0.80950  0.36760  1.0000 -0.5498862474
O   O21       1.0  0.19050  0.45260  0.63240  1.0000 -0.5498862474
O   O22       1.0  0.80950  0.54740  0.63240  1.0000 -0.5498862474
O   O23       1.0  0.95260  0.30950  0.63240  1.0000 -0.5498862474
O   O24       1.0  0.04740  0.69050  0.63240  1.0000 -0.5498862474
O   O25       1.0  0.33270  0.01090  0.16320  1.0000 -0.5084459184
O   O26       1.0  0.66730  0.98910  0.16320  1.0000 -0.5084459184
O   O27       1.0  0.51090  0.16730  0.16320  1.0000 -0.5084459184
O   O28       1.0  0.48910  0.83270  0.16320  1.0000 -0.5084459184
O   O29       1.0  0.16730  0.48910  0.83680  1.0000 -0.5084459184
O   O30       1.0  0.83270  0.51090  0.83680  1.0000 -0.5084459184
O   O31       1.0  0.98910  0.33270  0.83680  1.0000 -0.5084459184
O   O32       1.0  0.01090  0.66730  0.83680  1.0000 -0.5084459184
O   O33       1.0  0.50030  0.75970  0.95600  1.0000 -0.5084459184
O   O34       1.0  0.49970  0.24030  0.95600  1.0000 -0.5084459184
O   O35       1.0  0.25970  0.99970  0.95600  1.0000 -0.5084459184
O   O36       1.0  0.74030  0.00030  0.95600  1.0000 -0.5084459184
O   O37       1.0  0.99970  0.74030  0.04400  1.0000 -0.5084459184
O   O38       1.0  0.00030  0.25970  0.04400  1.0000 -0.5084459184
O   O39       1.0  0.24030  0.50030  0.04400  1.0000 -0.5084459184
O   O40       1.0  0.75970  0.49970  0.04400  1.0000 -0.5084459184
O   O41       1.0  0.48580  0.73470  0.19350  1.0000 -0.5084459184
O   O42       1.0  0.51420  0.26530  0.19350  1.0000 -0.5084459184
O   O43       1.0  0.23470  0.01420  0.19350  1.0000 -0.5084459184
O   O44       1.0  0.76530  0.98580  0.19350  1.0000 -0.5084459184
O   O45       1.0  0.01420  0.76530  0.80650  1.0000 -0.5084459184
O   O46       1.0  0.98580  0.23470  0.80650  1.0000 -0.5084459184
O   O47       1.0  0.26530  0.48580  0.80650  1.0000 -0.5084459184
O   O48       1.0  0.73470  0.51420  0.80650  1.0000 -0.5084459184
O   O49       1.0  0.74550  0.60900  0.79800  1.0000 -0.5084459184
O   O50       1.0  0.25450  0.39100  0.79800  1.0000 -0.5084459184
O   O51       1.0  0.10900  0.75450  0.79800  1.0000 -0.5084459184
O   O52       1.0  0.89100  0.24550  0.79800  1.0000 -0.5084459184
O   O53       1.0  0.75450  0.89100  0.20200  1.0000 -0.5084459184
O   O54       1.0  0.24550  0.10900  0.20200  1.0000 -0.5084459184
O   O55       1.0  0.39100  0.74550  0.20200  1.0000 -0.5084459184
O   O56       1.0  0.60900  0.25450  0.20200  1.0000 -0.5084459184
O   O57       1.0  0.73330  0.59080  0.04690  1.0000 -0.5375731459
O   O58       1.0  0.26670  0.40920  0.04690  1.0000 -0.5375731459
O   O59       1.0  0.09080  0.76670  0.04690  1.0000 -0.5375731459
O   O60       1.0  0.90920  0.23330  0.04690  1.0000 -0.5375731459
O   O61       1.0  0.76670  0.90920  0.95310  1.0000 -0.5375731459
O   O62       1.0  0.23330  0.09080  0.95310  1.0000 -0.5375731459
O   O63       1.0  0.40920  0.73330  0.95310  1.0000 -0.5375731459
O   O64       1.0  0.59080  0.26670  0.95310  1.0000 -0.5375731459
