# DDEC6 charges by PACMAN v1.1 (https://github.com/mtap-research/PACMAN-charge/)
data_2009[Cu][nan]3[ION]1
_chemical_formula_sum              "Cu10 H30 C30 N62 O6"
_cell_length_a       12.3634
_cell_length_b       12.3634
_cell_length_c       12.539
_cell_angle_alpha    90
_cell_angle_beta     90
_cell_angle_gamma    120

_symmetry_space_group_name_H-M    "P 1"
_symmetry_Int_Tables_number       1

loop_
  _symmetry_equiv_pos_as_xyz
  'x, y, z'

loop_
  _atom_site_type_symbol
  _atom_site_label
  _atom_site_symmetry_multiplicity
  _atom_site_fract_x
  _atom_site_fract_y
  _atom_site_fract_z
  _atom_site_occupancy
  _atom_site_charge
Cu  Cu1       1.0  0.33333  0.66667  0.10000  1.0000 0.4250886583
Cu  Cu2       1.0  0.66667  0.33333  0.60000  1.0000 0.4242669487
Cu  Cu3       1.0  0.66667  0.33333  0.90000  1.0000 0.4242669487
Cu  Cu4       1.0  0.33333  0.66667  0.40000  1.0000 0.4242669487
Cu  Cu5       1.0  0.00000  0.50000  0.00000  1.0000 0.5293447518
Cu  Cu6       1.0  0.50000  0.50000  0.00000  1.0000 0.5293447518
Cu  Cu7       1.0  0.50000  0.00000  0.00000  1.0000 0.5293447518
Cu  Cu8       1.0  0.00000  0.50000  0.50000  1.0000 0.5293447518
Cu  Cu9       1.0  0.50000  0.50000  0.50000  1.0000 0.5293447518
Cu  Cu10      1.0  0.50000  0.00000  0.50000  1.0000 0.5293447518
H   H1        1.0  0.04980  0.29020  0.86900  1.0000 0.1303186857
H   H2        1.0  0.70980  0.75960  0.86900  1.0000 0.1303186857
H   H3        1.0  0.24040  0.95020  0.86900  1.0000 0.1303186857
H   H4        1.0  0.95020  0.70980  0.36900  1.0000 0.1303186857
H   H5        1.0  0.29020  0.24040  0.36900  1.0000 0.1303186857
H   H6        1.0  0.75960  0.04980  0.36900  1.0000 0.1303186857
H   H7        1.0  0.29020  0.04980  0.13100  1.0000 0.1303186857
H   H8        1.0  0.75960  0.70980  0.13100  1.0000 0.1303186857
H   H9        1.0  0.95020  0.24040  0.13100  1.0000 0.1303186857
H   H10       1.0  0.70980  0.95020  0.63100  1.0000 0.1303186857
H   H11       1.0  0.24040  0.29020  0.63100  1.0000 0.1303186857
H   H12       1.0  0.04980  0.75960  0.63100  1.0000 0.1303186857
H   H13       1.0  0.95020  0.70980  0.13100  1.0000 0.1303186857
H   H14       1.0  0.29020  0.24040  0.13100  1.0000 0.1303186857
H   H15       1.0  0.75960  0.04980  0.13100  1.0000 0.1303186857
H   H16       1.0  0.04980  0.29020  0.63100  1.0000 0.1303186857
H   H17       1.0  0.70980  0.75960  0.63100  1.0000 0.1303186857
H   H18       1.0  0.24040  0.95020  0.63100  1.0000 0.1303186857
H   H19       1.0  0.70980  0.95020  0.86900  1.0000 0.1303186857
H   H20       1.0  0.24040  0.29020  0.86900  1.0000 0.1303186857
H   H21       1.0  0.04980  0.75960  0.86900  1.0000 0.1303186857
H   H22       1.0  0.29020  0.04980  0.36900  1.0000 0.1303186857
H   H23       1.0  0.75960  0.70980  0.36900  1.0000 0.1303186857
H   H24       1.0  0.95020  0.24040  0.36900  1.0000 0.1303186857
H   H25       1.0  0.89330  0.44665  0.25000  1.0000 0.1224118018
H   H26       1.0  0.55335  0.44665  0.25000  1.0000 0.1224118018
H   H27       1.0  0.55335  0.10670  0.25000  1.0000 0.1224118018
H   H28       1.0  0.10670  0.55335  0.75000  1.0000 0.1224118018
H   H29       1.0  0.44665  0.55335  0.75000  1.0000 0.1224118018
H   H30       1.0  0.44665  0.89330  0.75000  1.0000 0.1224118018
C   C1        1.0  0.12310  0.34880  0.90560  1.0000 -0.0705699331
C   C2        1.0  0.65120  0.77430  0.90560  1.0000 -0.0705699331
C   C3        1.0  0.22570  0.87690  0.90560  1.0000 -0.0705699331
C   C4        1.0  0.87690  0.65120  0.40560  1.0000 -0.0705699331
C   C5        1.0  0.34880  0.22570  0.40560  1.0000 -0.0705699331
C   C6        1.0  0.77430  0.12310  0.40560  1.0000 -0.0705699331
C   C7        1.0  0.34880  0.12310  0.09440  1.0000 -0.0705699331
C   C8        1.0  0.77430  0.65120  0.09440  1.0000 -0.0705699331
C   C9        1.0  0.87690  0.22570  0.09440  1.0000 -0.0705699331
C   C10       1.0  0.65120  0.87690  0.59440  1.0000 -0.0705699331
C   C11       1.0  0.22570  0.34880  0.59440  1.0000 -0.0705699331
C   C12       1.0  0.12310  0.77430  0.59440  1.0000 -0.0705699331
C   C13       1.0  0.87690  0.65120  0.09440  1.0000 -0.0705699331
C   C14       1.0  0.34880  0.22570  0.09440  1.0000 -0.0705699331
C   C15       1.0  0.77430  0.12310  0.09440  1.0000 -0.0705699331
C   C16       1.0  0.12310  0.34880  0.59440  1.0000 -0.0705699331
C   C17       1.0  0.65120  0.77430  0.59440  1.0000 -0.0705699331
C   C18       1.0  0.22570  0.87690  0.59440  1.0000 -0.0705699331
C   C19       1.0  0.65120  0.87690  0.90560  1.0000 -0.0705699331
C   C20       1.0  0.22570  0.34880  0.90560  1.0000 -0.0705699331
C   C21       1.0  0.12310  0.77430  0.90560  1.0000 -0.0705699331
C   C22       1.0  0.34880  0.12310  0.40560  1.0000 -0.0705699331
C   C23       1.0  0.77430  0.65120  0.40560  1.0000 -0.0705699331
C   C24       1.0  0.87690  0.22570  0.40560  1.0000 -0.0705699331
C   C25       1.0  0.98200  0.49100  0.25000  1.0000 0.1455770178
C   C26       1.0  0.50900  0.49100  0.25000  1.0000 0.1455770178
C   C27       1.0  0.50900  0.01800  0.25000  1.0000 0.1455770178
C   C28       1.0  0.01800  0.50900  0.75000  1.0000 0.1455770178
C   C29       1.0  0.49100  0.50900  0.75000  1.0000 0.1455770178
C   C30       1.0  0.49100  0.98200  0.75000  1.0000 0.1455770178
N   N1        1.0  0.25175  0.50350  0.00210  1.0000 -0.0299335049
N   N2        1.0  0.49650  0.74825  0.00210  1.0000 -0.0299335049
N   N3        1.0  0.25175  0.74825  0.00210  1.0000 -0.0299335049
N   N4        1.0  0.74825  0.49650  0.50210  1.0000 -0.0299335049
N   N5        1.0  0.50350  0.25175  0.50210  1.0000 -0.0299335049
N   N6        1.0  0.74825  0.25175  0.50210  1.0000 -0.0299335049
N   N7        1.0  0.50350  0.25175  0.99790  1.0000 -0.0299335049
N   N8        1.0  0.74825  0.49650  0.99790  1.0000 -0.0299335049
N   N9        1.0  0.74825  0.25175  0.99790  1.0000 -0.0299335049
N   N10       1.0  0.49650  0.74825  0.49790  1.0000 -0.0299335049
N   N11       1.0  0.25175  0.50350  0.49790  1.0000 -0.0299335049
N   N12       1.0  0.25175  0.74825  0.49790  1.0000 -0.0299335049
N   N13       1.0  0.13360  0.44560  0.96610  1.0000 -0.1640451855
N   N14       1.0  0.55440  0.68800  0.96610  1.0000 -0.1640451855
N   N15       1.0  0.31200  0.86640  0.96610  1.0000 -0.1640451855
N   N16       1.0  0.86640  0.55440  0.46610  1.0000 -0.1640451855
N   N17       1.0  0.44560  0.31200  0.46610  1.0000 -0.1640451855
N   N18       1.0  0.68800  0.13360  0.46610  1.0000 -0.1640451855
N   N19       1.0  0.44560  0.13360  0.03390  1.0000 -0.1640451855
N   N20       1.0  0.68800  0.55440  0.03390  1.0000 -0.1640451855
N   N21       1.0  0.86640  0.31200  0.03390  1.0000 -0.1640451855
N   N22       1.0  0.55440  0.86640  0.53390  1.0000 -0.1640451855
N   N23       1.0  0.31200  0.44560  0.53390  1.0000 -0.1640451855
N   N24       1.0  0.13360  0.68800  0.53390  1.0000 -0.1640451855
N   N25       1.0  0.86640  0.55440  0.03390  1.0000 -0.1640451855
N   N26       1.0  0.44560  0.31200  0.03390  1.0000 -0.1640451855
N   N27       1.0  0.68800  0.13360  0.03390  1.0000 -0.1640451855
N   N28       1.0  0.13360  0.44560  0.53390  1.0000 -0.1640451855
N   N29       1.0  0.55440  0.68800  0.53390  1.0000 -0.1640451855
N   N30       1.0  0.31200  0.86640  0.53390  1.0000 -0.1640451855
N   N31       1.0  0.55440  0.86640  0.96610  1.0000 -0.1640451855
N   N32       1.0  0.31200  0.44560  0.96610  1.0000 -0.1640451855
N   N33       1.0  0.13360  0.68800  0.96610  1.0000 -0.1640451855
N   N34       1.0  0.44560  0.13360  0.46610  1.0000 -0.1640451855
N   N35       1.0  0.68800  0.55440  0.46610  1.0000 -0.1640451855
N   N36       1.0  0.86640  0.31200  0.46610  1.0000 -0.1640451855
N   N37       1.0  0.17370  0.58685  0.19610  1.0000 -0.0209454733
N   N38       1.0  0.41315  0.58685  0.19610  1.0000 -0.0209454733
N   N39       1.0  0.41315  0.82630  0.19610  1.0000 -0.0209454733
N   N40       1.0  0.82630  0.41315  0.69610  1.0000 -0.0209454733
N   N41       1.0  0.58685  0.41315  0.69610  1.0000 -0.0209454733
N   N42       1.0  0.58685  0.17370  0.69610  1.0000 -0.0209454733
N   N43       1.0  0.58685  0.17370  0.80390  1.0000 -0.0209454733
N   N44       1.0  0.58685  0.41315  0.80390  1.0000 -0.0209454733
N   N45       1.0  0.82630  0.41315  0.80390  1.0000 -0.0209454733
N   N46       1.0  0.41315  0.82630  0.30390  1.0000 -0.0209454733
N   N47       1.0  0.41315  0.58685  0.30390  1.0000 -0.0209454733
N   N48       1.0  0.17370  0.58685  0.30390  1.0000 -0.0209454733
N   N49       1.0  0.05460  0.52730  0.16500  1.0000 -0.1657052642
N   N50       1.0  0.47270  0.52730  0.16500  1.0000 -0.1657052642
N   N51       1.0  0.47270  0.94540  0.16500  1.0000 -0.1657052642
N   N52       1.0  0.94540  0.47270  0.66500  1.0000 -0.1657052642
N   N53       1.0  0.52730  0.47270  0.66500  1.0000 -0.1657052642
N   N54       1.0  0.52730  0.05460  0.66500  1.0000 -0.1657052642
N   N55       1.0  0.52730  0.05460  0.83500  1.0000 -0.1657052642
N   N56       1.0  0.52730  0.47270  0.83500  1.0000 -0.1657052642
N   N57       1.0  0.94540  0.47270  0.83500  1.0000 -0.1657052642
N   N58       1.0  0.47270  0.94540  0.33500  1.0000 -0.1657052642
N   N59       1.0  0.47270  0.52730  0.33500  1.0000 -0.1657052642
N   N60       1.0  0.05460  0.52730  0.33500  1.0000 -0.1657052642
N   N61       1.0  0.33333  0.66667  0.75000  1.0000 0.7117401504
N   N62       1.0  0.66667  0.33333  0.25000  1.0000 0.7117401504
O   O1        1.0  0.27365  0.54730  0.75000  1.0000 -0.4672076559
O   O2        1.0  0.45270  0.72635  0.75000  1.0000 -0.4672076559
O   O3        1.0  0.27365  0.72635  0.75000  1.0000 -0.4672076559
O   O4        1.0  0.72635  0.45270  0.25000  1.0000 -0.4672076559
O   O5        1.0  0.54730  0.27365  0.25000  1.0000 -0.4672076559
O   O6        1.0  0.72635  0.27365  0.25000  1.0000 -0.4672076559
