# DDEC6 charges by PACMAN v1.1 (https://github.com/mtap-research/PACMAN-charge/)
data_2009[Ag][nbo]3[ION]4
_chemical_formula_sum              "Ag18 H144 C252 N36 O54 F90"
_cell_length_a       34.565
_cell_length_b       34.565
_cell_length_c       8.3337
_cell_angle_alpha    90
_cell_angle_beta     90
_cell_angle_gamma    120

_symmetry_space_group_name_H-M    "P 1"
_symmetry_Int_Tables_number       1

loop_
  _symmetry_equiv_pos_as_xyz
  'x, y, z'

loop_
  _atom_site_type_symbol
  _atom_site_label
  _atom_site_symmetry_multiplicity
  _atom_site_fract_x
  _atom_site_fract_y
  _atom_site_fract_z
  _atom_site_occupancy
  _atom_site_charge
Ag  Ag1       1.0  0.32285  0.14043  0.49754  1.0000 0.3472790847
Ag  Ag2       1.0  0.98952  0.47376  0.83087  1.0000 0.3472790847
Ag  Ag3       1.0  0.65618  0.80710  0.16421  1.0000 0.3472790847
Ag  Ag4       1.0  0.85957  0.18242  0.49754  1.0000 0.3472790847
Ag  Ag5       1.0  0.52624  0.51575  0.83087  1.0000 0.3472790847
Ag  Ag6       1.0  0.19290  0.84909  0.16421  1.0000 0.3472790847
Ag  Ag7       1.0  0.81758  0.67715  0.49754  1.0000 0.3472790847
Ag  Ag8       1.0  0.48425  0.01048  0.83087  1.0000 0.3472790847
Ag  Ag9       1.0  0.15091  0.34382  0.16421  1.0000 0.3472790847
Ag  Ag10      1.0  0.67715  0.85957  0.50246  1.0000 0.3472790847
Ag  Ag11      1.0  0.34382  0.19290  0.83579  1.0000 0.3472790847
Ag  Ag12      1.0  0.01048  0.52624  0.16913  1.0000 0.3472790847
Ag  Ag13      1.0  0.14043  0.81758  0.50246  1.0000 0.3472790847
Ag  Ag14      1.0  0.80710  0.15091  0.83579  1.0000 0.3472790847
Ag  Ag15      1.0  0.47376  0.48425  0.16913  1.0000 0.3472790847
Ag  Ag16      1.0  0.18242  0.32285  0.50246  1.0000 0.3472790847
Ag  Ag17      1.0  0.84909  0.65618  0.83579  1.0000 0.3472790847
Ag  Ag18      1.0  0.51575  0.98952  0.16913  1.0000 0.3472790847
H   H1        1.0  0.29890  0.21590  0.42650  1.0000 0.1110688475
H   H2        1.0  0.05497  0.63963  0.45523  1.0000 0.1304468608
H   H3        1.0  0.75253  0.92727  0.75767  1.0000 0.1304468608
H   H4        1.0  0.39200  0.19640  0.24140  1.0000 0.1110688475
H   H5        1.0  0.27240  0.32410  0.44190  1.0000 0.1206804316
H   H6        1.0  0.91957  0.55293  0.50473  1.0000 0.1206804316
H   H7        1.0  0.84357  0.52813  0.51133  1.0000 0.1373496002
H   H8        1.0  0.15100  0.23410  0.32070  1.0000 0.1110688475
H   H9        1.0  0.96557  0.54923  0.75983  1.0000 0.1110688475
H   H10       1.0  0.72163  0.97297  0.78857  1.0000 0.1304468608
H   H11       1.0  0.41920  0.26060  0.09100  1.0000 0.1304468608
H   H12       1.0  0.05867  0.52973  0.57473  1.0000 0.1110688475
H   H13       1.0  0.93907  0.65743  0.77523  1.0000 0.1206804316
H   H14       1.0  0.58623  0.88627  0.83807  1.0000 0.1206804316
H   H15       1.0  0.51023  0.86147  0.84467  1.0000 0.1373496002
H   H16       1.0  0.81767  0.56743  0.65403  1.0000 0.1110688475
H   H17       1.0  0.63223  0.88257  0.09317  1.0000 0.1110688475
H   H18       1.0  0.38830  0.30630  0.12190  1.0000 0.1304468608
H   H19       1.0  0.08587  0.59393  0.42433  1.0000 0.1304468608
H   H20       1.0  0.72533  0.86307  0.90807  1.0000 0.1110688475
H   H21       1.0  0.60573  0.99077  0.10857  1.0000 0.1206804316
H   H22       1.0  0.25290  0.21960  0.17140  1.0000 0.1206804316
H   H23       1.0  0.17690  0.19480  0.17800  1.0000 0.1373496002
H   H24       1.0  0.48433  0.90077  0.98737  1.0000 0.1110688475
H   H25       1.0  0.78410  0.08300  0.42650  1.0000 0.1110688475
H   H26       1.0  0.36037  0.41533  0.45523  1.0000 0.1304468608
H   H27       1.0  0.07273  0.82527  0.75767  1.0000 0.1304468608
H   H28       1.0  0.80360  0.19560  0.24140  1.0000 0.1110688475
H   H29       1.0  0.67590  0.94830  0.44190  1.0000 0.1206804316
H   H30       1.0  0.44707  0.36663  0.50473  1.0000 0.1206804316
H   H31       1.0  0.47187  0.31543  0.51133  1.0000 0.1373496002
H   H32       1.0  0.76590  0.91690  0.32070  1.0000 0.1110688475
H   H33       1.0  0.45077  0.41633  0.75983  1.0000 0.1110688475
H   H34       1.0  0.02703  0.74867  0.78857  1.0000 0.1304468608
H   H35       1.0  0.73940  0.15860  0.09100  1.0000 0.1304468608
H   H36       1.0  0.47027  0.52893  0.57473  1.0000 0.1110688475
H   H37       1.0  0.34257  0.28163  0.77523  1.0000 0.1206804316
H   H38       1.0  0.11373  0.69997  0.83807  1.0000 0.1206804316
H   H39       1.0  0.13853  0.64877  0.84467  1.0000 0.1373496002
H   H40       1.0  0.43257  0.25023  0.65403  1.0000 0.1110688475
H   H41       1.0  0.11743  0.74967  0.09317  1.0000 0.1110688475
H   H42       1.0  0.69370  0.08200  0.12190  1.0000 0.1304468608
H   H43       1.0  0.40607  0.49193  0.42433  1.0000 0.1304468608
H   H44       1.0  0.13693  0.86227  0.90807  1.0000 0.1110688475
H   H45       1.0  0.00923  0.61497  0.10857  1.0000 0.1206804316
H   H46       1.0  0.78040  0.03330  0.17140  1.0000 0.1206804316
H   H47       1.0  0.80520  0.98210  0.17800  1.0000 0.1373496002
H   H48       1.0  0.09923  0.58357  0.98737  1.0000 0.1110688475
H   H49       1.0  0.91700  0.70110  0.42650  1.0000 0.1110688475
H   H50       1.0  0.58467  0.94503  0.45523  1.0000 0.1304468608
H   H51       1.0  0.17473  0.24747  0.75767  1.0000 0.1304468608
H   H52       1.0  0.80440  0.60800  0.24140  1.0000 0.1110688475
H   H53       1.0  0.05170  0.72760  0.44190  1.0000 0.1206804316
H   H54       1.0  0.63337  0.08043  0.50473  1.0000 0.1206804316
H   H55       1.0  0.68457  0.15643  0.51133  1.0000 0.1373496002
H   H56       1.0  0.08310  0.84900  0.32070  1.0000 0.1110688475
H   H57       1.0  0.58367  0.03443  0.75983  1.0000 0.1110688475
H   H58       1.0  0.25133  0.27837  0.78857  1.0000 0.1304468608
H   H59       1.0  0.84140  0.58080  0.09100  1.0000 0.1304468608
H   H60       1.0  0.47107  0.94133  0.57473  1.0000 0.1110688475
H   H61       1.0  0.71837  0.06093  0.77523  1.0000 0.1206804316
H   H62       1.0  0.30003  0.41377  0.83807  1.0000 0.1206804316
H   H63       1.0  0.35123  0.48977  0.84467  1.0000 0.1373496002
H   H64       1.0  0.74977  0.18233  0.65403  1.0000 0.1110688475
H   H65       1.0  0.25033  0.36777  0.09317  1.0000 0.1110688475
H   H66       1.0  0.91800  0.61170  0.12190  1.0000 0.1304468608
H   H67       1.0  0.50807  0.91413  0.42433  1.0000 0.1304468608
H   H68       1.0  0.13773  0.27467  0.90807  1.0000 0.1110688475
H   H69       1.0  0.38503  0.39427  0.10857  1.0000 0.1206804316
H   H70       1.0  0.96670  0.74710  0.17140  1.0000 0.1206804316
H   H71       1.0  0.01790  0.82310  0.17800  1.0000 0.1373496002
H   H72       1.0  0.41643  0.51567  0.98737  1.0000 0.1110688475
H   H73       1.0  0.70110  0.78410  0.57350  1.0000 0.1110688475
H   H74       1.0  0.94503  0.36037  0.54477  1.0000 0.1304468608
H   H75       1.0  0.24747  0.07273  0.24233  1.0000 0.1304468608
H   H76       1.0  0.60800  0.80360  0.75860  1.0000 0.1110688475
H   H77       1.0  0.72760  0.67590  0.55810  1.0000 0.1206804316
H   H78       1.0  0.08043  0.44707  0.49527  1.0000 0.1206804316
H   H79       1.0  0.15643  0.47187  0.48867  1.0000 0.1373496002
H   H80       1.0  0.84900  0.76590  0.67930  1.0000 0.1110688475
H   H81       1.0  0.36777  0.11743  0.90683  1.0000 0.1110688475
H   H82       1.0  0.61170  0.69370  0.87810  1.0000 0.1304468608
H   H83       1.0  0.91413  0.40607  0.57567  1.0000 0.1304468608
H   H84       1.0  0.27467  0.13693  0.09193  1.0000 0.1110688475
H   H85       1.0  0.39427  0.00923  0.89143  1.0000 0.1206804316
H   H86       1.0  0.74710  0.78040  0.82860  1.0000 0.1206804316
H   H87       1.0  0.82310  0.80520  0.82200  1.0000 0.1373496002
H   H88       1.0  0.51567  0.09923  0.01263  1.0000 0.1110688475
H   H89       1.0  0.03443  0.45077  0.24017  1.0000 0.1110688475
H   H90       1.0  0.27837  0.02703  0.21143  1.0000 0.1304468608
H   H91       1.0  0.58080  0.73940  0.90900  1.0000 0.1304468608
H   H92       1.0  0.94133  0.47027  0.42527  1.0000 0.1110688475
H   H93       1.0  0.06093  0.34257  0.22477  1.0000 0.1206804316
H   H94       1.0  0.41377  0.11373  0.16193  1.0000 0.1206804316
H   H95       1.0  0.48977  0.13853  0.15533  1.0000 0.1373496002
H   H96       1.0  0.18233  0.43257  0.34597  1.0000 0.1110688475
H   H97       1.0  0.21590  0.91700  0.57350  1.0000 0.1110688475
H   H98       1.0  0.63963  0.58467  0.54477  1.0000 0.1304468608
H   H99       1.0  0.92727  0.17473  0.24233  1.0000 0.1304468608
H   H100      1.0  0.19640  0.80440  0.75860  1.0000 0.1110688475
H   H101      1.0  0.32410  0.05170  0.55810  1.0000 0.1206804316
H   H102      1.0  0.55293  0.63337  0.49527  1.0000 0.1206804316
H   H103      1.0  0.52813  0.68457  0.48867  1.0000 0.1373496002
H   H104      1.0  0.23410  0.08310  0.67930  1.0000 0.1110688475
H   H105      1.0  0.88257  0.25033  0.90683  1.0000 0.1110688475
H   H106      1.0  0.30630  0.91800  0.87810  1.0000 0.1304468608
H   H107      1.0  0.59393  0.50807  0.57567  1.0000 0.1304468608
H   H108      1.0  0.86307  0.13773  0.09193  1.0000 0.1110688475
H   H109      1.0  0.99077  0.38503  0.89143  1.0000 0.1206804316
H   H110      1.0  0.21960  0.96670  0.82860  1.0000 0.1206804316
H   H111      1.0  0.19480  0.01790  0.82200  1.0000 0.1373496002
H   H112      1.0  0.90077  0.41643  0.01263  1.0000 0.1110688475
H   H113      1.0  0.54923  0.58367  0.24017  1.0000 0.1110688475
H   H114      1.0  0.97297  0.25133  0.21143  1.0000 0.1304468608
H   H115      1.0  0.26060  0.84140  0.90900  1.0000 0.1304468608
H   H116      1.0  0.52973  0.47107  0.42527  1.0000 0.1110688475
H   H117      1.0  0.65743  0.71837  0.22477  1.0000 0.1206804316
H   H118      1.0  0.88627  0.30003  0.16193  1.0000 0.1206804316
H   H119      1.0  0.86147  0.35123  0.15533  1.0000 0.1373496002
H   H120      1.0  0.56743  0.74977  0.34597  1.0000 0.1110688475
H   H121      1.0  0.08300  0.29890  0.57350  1.0000 0.1110688475
H   H122      1.0  0.41533  0.05497  0.54477  1.0000 0.1304468608
H   H123      1.0  0.82527  0.75253  0.24233  1.0000 0.1304468608
H   H124      1.0  0.19560  0.39200  0.75860  1.0000 0.1110688475
H   H125      1.0  0.94830  0.27240  0.55810  1.0000 0.1206804316
H   H126      1.0  0.36663  0.91957  0.49527  1.0000 0.1206804316
H   H127      1.0  0.31543  0.84357  0.48867  1.0000 0.1373496002
H   H128      1.0  0.91690  0.15100  0.67930  1.0000 0.1110688475
H   H129      1.0  0.74967  0.63223  0.90683  1.0000 0.1110688475
H   H130      1.0  0.08200  0.38830  0.87810  1.0000 0.1304468608
H   H131      1.0  0.49193  0.08587  0.57567  1.0000 0.1304468608
H   H132      1.0  0.86227  0.72533  0.09193  1.0000 0.1110688475
H   H133      1.0  0.61497  0.60573  0.89143  1.0000 0.1206804316
H   H134      1.0  0.03330  0.25290  0.82860  1.0000 0.1206804316
H   H135      1.0  0.98210  0.17690  0.82200  1.0000 0.1373496002
H   H136      1.0  0.58357  0.48433  0.01263  1.0000 0.1110688475
H   H137      1.0  0.41633  0.96557  0.24017  1.0000 0.1110688475
H   H138      1.0  0.74867  0.72163  0.21143  1.0000 0.1304468608
H   H139      1.0  0.15860  0.41920  0.90900  1.0000 0.1304468608
H   H140      1.0  0.52893  0.05867  0.42527  1.0000 0.1110688475
H   H141      1.0  0.28163  0.93907  0.22477  1.0000 0.1206804316
H   H142      1.0  0.69997  0.58623  0.16193  1.0000 0.1206804316
H   H143      1.0  0.64877  0.51023  0.15533  1.0000 0.1373496002
H   H144      1.0  0.25023  0.81767  0.34597  1.0000 0.1110688475
C   C1        1.0  0.32400  0.22570  0.36170  1.0000 0.0352467792
C   C2        1.0  0.33994  0.26555  0.27800  1.0000 -0.0321876106
C   C3        1.0  0.04327  0.61273  0.51073  1.0000 -0.0433760264
C   C4        1.0  0.06217  0.58603  0.49463  1.0000 -0.1611064751
C   C5        1.0  0.37870  0.21390  0.25100  1.0000 0.0728005938
C   C6        1.0  0.32010  0.29515  0.30150  1.0000 0.3628001359
C   C7        1.0  0.25300  0.29770  0.38890  1.0000 0.0728005938
C   C8        1.0  0.27090  0.27490  0.30840  1.0000 -0.0507067495
C   C9        1.0  0.90867  0.56883  0.56043  1.0000 -0.0634578627
C   C10       1.0  0.19690  0.22080  0.23170  1.0000 -0.1323563344
C   C11       1.0  0.18160  0.24490  0.31660  1.0000 0.0728005938
C   C12       1.0  0.41620  0.15740  0.54970  1.0000 0.4515803304
C   C13       1.0  0.79693  0.84217  0.20757  1.0000 0.1110688475
C   C14       1.0  0.81413  0.83867  0.37097  1.0000 0.6127267328
C   C15       1.0  0.99067  0.55903  0.69503  1.0000 0.0352467792
C   C16       1.0  0.00661  0.59888  0.61133  1.0000 -0.0321876106
C   C17       1.0  0.70993  0.94607  0.84407  1.0000 -0.0433760264
C   C18       1.0  0.72883  0.91937  0.82797  1.0000 -0.1611064751
C   C19       1.0  0.04537  0.54723  0.58433  1.0000 0.0728005938
C   C20       1.0  0.98677  0.62848  0.63483  1.0000 0.3628001359
C   C21       1.0  0.91967  0.63103  0.72223  1.0000 0.0728005938
C   C22       1.0  0.93757  0.60823  0.64173  1.0000 -0.0507067495
C   C23       1.0  0.57533  0.90217  0.89377  1.0000 -0.0634578627
C   C24       1.0  0.86357  0.55413  0.56503  1.0000 -0.1323563344
C   C25       1.0  0.84827  0.57823  0.64993  1.0000 0.0728005938
C   C26       1.0  0.08287  0.49073  0.88303  1.0000 0.4515803304
C   C27       1.0  0.46360  0.17550  0.54090  1.0000 0.1110688475
C   C28       1.0  0.48080  0.17200  0.70430  1.0000 0.6127267328
C   C29       1.0  0.65733  0.89237  0.02837  1.0000 0.0352467792
C   C30       1.0  0.67327  0.93222  0.94467  1.0000 -0.0321876106
C   C31       1.0  0.37660  0.27940  0.17740  1.0000 -0.0433760264
C   C32       1.0  0.39550  0.25270  0.16130  1.0000 -0.1611064751
C   C33       1.0  0.71203  0.88057  0.91767  1.0000 0.0728005938
C   C34       1.0  0.65343  0.96182  0.96817  1.0000 0.3628001359
C   C35       1.0  0.58633  0.96437  0.05557  1.0000 0.0728005938
C   C36       1.0  0.60423  0.94157  0.97507  1.0000 -0.0507067495
C   C37       1.0  0.24200  0.23550  0.22710  1.0000 -0.0634578627
C   C38       1.0  0.53023  0.88747  0.89837  1.0000 -0.1323563344
C   C39       1.0  0.51493  0.91157  0.98327  1.0000 0.0728005938
C   C40       1.0  0.74953  0.82407  0.21637  1.0000 0.4515803304
C   C41       1.0  0.13027  0.50883  0.87423  1.0000 0.1110688475
C   C42       1.0  0.14747  0.50533  0.03763  1.0000 0.6127267328
C   C43       1.0  0.77430  0.09830  0.36170  1.0000 0.0352467792
C   C44       1.0  0.73445  0.07439  0.27800  1.0000 -0.0321876106
C   C45       1.0  0.38727  0.43053  0.51073  1.0000 -0.0433760264
C   C46       1.0  0.41397  0.47613  0.49463  1.0000 -0.1611064751
C   C47       1.0  0.78610  0.16480  0.25100  1.0000 0.0728005938
C   C48       1.0  0.70485  0.02495  0.30150  1.0000 0.3628001359
C   C49       1.0  0.70230  0.95530  0.38890  1.0000 0.0728005938
C   C50       1.0  0.72510  0.99600  0.30840  1.0000 -0.0507067495
C   C51       1.0  0.43117  0.33983  0.56043  1.0000 -0.0634578627
C   C52       1.0  0.77920  0.97610  0.23170  1.0000 -0.1323563344
C   C53       1.0  0.75510  0.93670  0.31660  1.0000 0.0728005938
C   C54       1.0  0.84260  0.25880  0.54970  1.0000 0.4515803304
C   C55       1.0  0.15783  0.95477  0.20757  1.0000 0.1110688475
C   C56       1.0  0.16133  0.97547  0.37097  1.0000 0.6127267328
C   C57       1.0  0.44097  0.43163  0.69503  1.0000 0.0352467792
C   C58       1.0  0.40112  0.40772  0.61133  1.0000 -0.0321876106
C   C59       1.0  0.05393  0.76387  0.84407  1.0000 -0.0433760264
C   C60       1.0  0.08063  0.80947  0.82797  1.0000 -0.1611064751
C   C61       1.0  0.45277  0.49813  0.58433  1.0000 0.0728005938
C   C62       1.0  0.37152  0.35828  0.63483  1.0000 0.3628001359
C   C63       1.0  0.36897  0.28863  0.72223  1.0000 0.0728005938
C   C64       1.0  0.39177  0.32933  0.64173  1.0000 -0.0507067495
C   C65       1.0  0.09783  0.67317  0.89377  1.0000 -0.0634578627
C   C66       1.0  0.44587  0.30943  0.56503  1.0000 -0.1323563344
C   C67       1.0  0.42177  0.27003  0.64993  1.0000 0.0728005938
C   C68       1.0  0.50927  0.59213  0.88303  1.0000 0.4515803304
C   C69       1.0  0.82450  0.28810  0.54090  1.0000 0.1110688475
C   C70       1.0  0.82800  0.30880  0.70430  1.0000 0.6127267328
C   C71       1.0  0.10763  0.76497  0.02837  1.0000 0.0352467792
C   C72       1.0  0.06778  0.74106  0.94467  1.0000 -0.0321876106
C   C73       1.0  0.72060  0.09720  0.17740  1.0000 -0.0433760264
C   C74       1.0  0.74730  0.14280  0.16130  1.0000 -0.1611064751
C   C75       1.0  0.11943  0.83147  0.91767  1.0000 0.0728005938
C   C76       1.0  0.03818  0.69162  0.96817  1.0000 0.3628001359
C   C77       1.0  0.03563  0.62197  0.05557  1.0000 0.0728005938
C   C78       1.0  0.05843  0.66267  0.97507  1.0000 -0.0507067495
C   C79       1.0  0.76450  0.00650  0.22710  1.0000 -0.0634578627
C   C80       1.0  0.11253  0.64277  0.89837  1.0000 -0.1323563344
C   C81       1.0  0.08843  0.60337  0.98327  1.0000 0.0728005938
C   C82       1.0  0.17593  0.92547  0.21637  1.0000 0.4515803304
C   C83       1.0  0.49117  0.62143  0.87423  1.0000 0.1110688475
C   C84       1.0  0.49467  0.64213  0.03763  1.0000 0.6127267328
C   C85       1.0  0.90170  0.67600  0.36170  1.0000 0.0352467792
C   C86       1.0  0.92561  0.66006  0.27800  1.0000 -0.0321876106
C   C87       1.0  0.56947  0.95673  0.51073  1.0000 -0.0433760264
C   C88       1.0  0.52387  0.93783  0.49463  1.0000 -0.1611064751
C   C89       1.0  0.83520  0.62130  0.25100  1.0000 0.0728005938
C   C90       1.0  0.97505  0.67990  0.30150  1.0000 0.3628001359
C   C91       1.0  0.04470  0.74700  0.38890  1.0000 0.0728005938
C   C92       1.0  0.00400  0.72910  0.30840  1.0000 -0.0507067495
C   C93       1.0  0.66017  0.09133  0.56043  1.0000 -0.0634578627
C   C94       1.0  0.02390  0.80310  0.23170  1.0000 -0.1323563344
C   C95       1.0  0.06330  0.81840  0.31660  1.0000 0.0728005938
C   C96       1.0  0.74120  0.58380  0.54970  1.0000 0.4515803304
C   C97       1.0  0.04523  0.20307  0.20757  1.0000 0.1110688475
C   C98       1.0  0.02453  0.18587  0.37097  1.0000 0.6127267328
C   C99       1.0  0.56837  0.00933  0.69503  1.0000 0.0352467792
C   C100      1.0  0.59228  0.99339  0.61133  1.0000 -0.0321876106
C   C101      1.0  0.23613  0.29007  0.84407  1.0000 -0.0433760264
C   C102      1.0  0.19053  0.27117  0.82797  1.0000 -0.1611064751
C   C103      1.0  0.50187  0.95463  0.58433  1.0000 0.0728005938
C   C104      1.0  0.64172  0.01323  0.63483  1.0000 0.3628001359
C   C105      1.0  0.71137  0.08033  0.72223  1.0000 0.0728005938
C   C106      1.0  0.67067  0.06243  0.64173  1.0000 -0.0507067495
C   C107      1.0  0.32683  0.42467  0.89377  1.0000 -0.0634578627
C   C108      1.0  0.69057  0.13643  0.56503  1.0000 -0.1323563344
C   C109      1.0  0.72997  0.15173  0.64993  1.0000 0.0728005938
C   C110      1.0  0.40787  0.91713  0.88303  1.0000 0.4515803304
C   C111      1.0  0.71190  0.53640  0.54090  1.0000 0.1110688475
C   C112      1.0  0.69120  0.51920  0.70430  1.0000 0.6127267328
C   C113      1.0  0.23503  0.34267  0.02837  1.0000 0.0352467792
C   C114      1.0  0.25894  0.32673  0.94467  1.0000 -0.0321876106
C   C115      1.0  0.90280  0.62340  0.17740  1.0000 -0.0433760264
C   C116      1.0  0.85720  0.60450  0.16130  1.0000 -0.1611064751
C   C117      1.0  0.16853  0.28797  0.91767  1.0000 0.0728005938
C   C118      1.0  0.30838  0.34657  0.96817  1.0000 0.3628001359
C   C119      1.0  0.37803  0.41367  0.05557  1.0000 0.0728005938
C   C120      1.0  0.33733  0.39577  0.97507  1.0000 -0.0507067495
C   C121      1.0  0.99350  0.75800  0.22710  1.0000 -0.0634578627
C   C122      1.0  0.35723  0.46977  0.89837  1.0000 -0.1323563344
C   C123      1.0  0.39663  0.48507  0.98327  1.0000 0.0728005938
C   C124      1.0  0.07453  0.25047  0.21637  1.0000 0.4515803304
C   C125      1.0  0.37857  0.86973  0.87423  1.0000 0.1110688475
C   C126      1.0  0.35787  0.85253  0.03763  1.0000 0.6127267328
C   C127      1.0  0.67600  0.77430  0.63830  1.0000 0.0352467792
C   C128      1.0  0.66006  0.73445  0.72200  1.0000 -0.0321876106
C   C129      1.0  0.95673  0.38727  0.48927  1.0000 -0.0433760264
C   C130      1.0  0.93783  0.41397  0.50537  1.0000 -0.1611064751
C   C131      1.0  0.62130  0.78610  0.74900  1.0000 0.0728005938
C   C132      1.0  0.67990  0.70485  0.69850  1.0000 0.3628001359
C   C133      1.0  0.74700  0.70230  0.61110  1.0000 0.0728005938
C   C134      1.0  0.72910  0.72510  0.69160  1.0000 -0.0507067495
C   C135      1.0  0.09133  0.43117  0.43957  1.0000 -0.0634578627
C   C136      1.0  0.80310  0.77920  0.76830  1.0000 -0.1323563344
C   C137      1.0  0.81840  0.75510  0.68340  1.0000 0.0728005938
C   C138      1.0  0.58380  0.84260  0.45030  1.0000 0.4515803304
C   C139      1.0  0.20307  0.15783  0.79243  1.0000 0.1110688475
C   C140      1.0  0.18587  0.16133  0.62903  1.0000 0.6127267328
C   C141      1.0  0.34267  0.10763  0.97163  1.0000 0.0352467792
C   C142      1.0  0.32673  0.06778  0.05533  1.0000 -0.0321876106
C   C143      1.0  0.62340  0.72060  0.82260  1.0000 -0.0433760264
C   C144      1.0  0.60450  0.74730  0.83870  1.0000 -0.1611064751
C   C145      1.0  0.28797  0.11943  0.08233  1.0000 0.0728005938
C   C146      1.0  0.34657  0.03818  0.03183  1.0000 0.3628001359
C   C147      1.0  0.41367  0.03563  0.94443  1.0000 0.0728005938
C   C148      1.0  0.39577  0.05843  0.02493  1.0000 -0.0507067495
C   C149      1.0  0.75800  0.76450  0.77290  1.0000 -0.0634578627
C   C150      1.0  0.46977  0.11253  0.10163  1.0000 -0.1323563344
C   C151      1.0  0.48507  0.08843  0.01673  1.0000 0.0728005938
C   C152      1.0  0.25047  0.17593  0.78363  1.0000 0.4515803304
C   C153      1.0  0.86973  0.49117  0.12577  1.0000 0.1110688475
C   C154      1.0  0.85253  0.49467  0.96237  1.0000 0.6127267328
C   C155      1.0  0.00933  0.44097  0.30497  1.0000 0.0352467792
C   C156      1.0  0.99339  0.40112  0.38867  1.0000 -0.0321876106
C   C157      1.0  0.29007  0.05393  0.15593  1.0000 -0.0433760264
C   C158      1.0  0.27117  0.08063  0.17203  1.0000 -0.1611064751
C   C159      1.0  0.95463  0.45277  0.41567  1.0000 0.0728005938
C   C160      1.0  0.01323  0.37152  0.36517  1.0000 0.3628001359
C   C161      1.0  0.08033  0.36897  0.27777  1.0000 0.0728005938
C   C162      1.0  0.06243  0.39177  0.35827  1.0000 -0.0507067495
C   C163      1.0  0.42467  0.09783  0.10623  1.0000 -0.0634578627
C   C164      1.0  0.13643  0.44587  0.43497  1.0000 -0.1323563344
C   C165      1.0  0.15173  0.42177  0.35007  1.0000 0.0728005938
C   C166      1.0  0.91713  0.50927  0.11697  1.0000 0.4515803304
C   C167      1.0  0.53640  0.82450  0.45910  1.0000 0.1110688475
C   C168      1.0  0.51920  0.82800  0.29570  1.0000 0.6127267328
C   C169      1.0  0.22570  0.90170  0.63830  1.0000 0.0352467792
C   C170      1.0  0.26555  0.92561  0.72200  1.0000 -0.0321876106
C   C171      1.0  0.61273  0.56947  0.48927  1.0000 -0.0433760264
C   C172      1.0  0.58603  0.52387  0.50537  1.0000 -0.1611064751
C   C173      1.0  0.21390  0.83520  0.74900  1.0000 0.0728005938
C   C174      1.0  0.29515  0.97505  0.69850  1.0000 0.3628001359
C   C175      1.0  0.29770  0.04470  0.61110  1.0000 0.0728005938
C   C176      1.0  0.27490  0.00400  0.69160  1.0000 -0.0507067495
C   C177      1.0  0.56883  0.66017  0.43957  1.0000 -0.0634578627
C   C178      1.0  0.22080  0.02390  0.76830  1.0000 -0.1323563344
C   C179      1.0  0.24490  0.06330  0.68340  1.0000 0.0728005938
C   C180      1.0  0.15740  0.74120  0.45030  1.0000 0.4515803304
C   C181      1.0  0.84217  0.04523  0.79243  1.0000 0.1110688475
C   C182      1.0  0.83867  0.02453  0.62903  1.0000 0.6127267328
C   C183      1.0  0.89237  0.23503  0.97163  1.0000 0.0352467792
C   C184      1.0  0.93222  0.25894  0.05533  1.0000 -0.0321876106
C   C185      1.0  0.27940  0.90280  0.82260  1.0000 -0.0433760264
C   C186      1.0  0.25270  0.85720  0.83870  1.0000 -0.1611064751
C   C187      1.0  0.88057  0.16853  0.08233  1.0000 0.0728005938
C   C188      1.0  0.96182  0.30838  0.03183  1.0000 0.3628001359
C   C189      1.0  0.96437  0.37803  0.94443  1.0000 0.0728005938
C   C190      1.0  0.94157  0.33733  0.02493  1.0000 -0.0507067495
C   C191      1.0  0.23550  0.99350  0.77290  1.0000 -0.0634578627
C   C192      1.0  0.88747  0.35723  0.10163  1.0000 -0.1323563344
C   C193      1.0  0.91157  0.39663  0.01673  1.0000 0.0728005938
C   C194      1.0  0.82407  0.07453  0.78363  1.0000 0.4515803304
C   C195      1.0  0.50883  0.37857  0.12577  1.0000 0.1110688475
C   C196      1.0  0.50533  0.35787  0.96237  1.0000 0.6127267328
C   C197      1.0  0.55903  0.56837  0.30497  1.0000 0.0352467792
C   C198      1.0  0.59888  0.59228  0.38867  1.0000 -0.0321876106
C   C199      1.0  0.94607  0.23613  0.15593  1.0000 -0.0433760264
C   C200      1.0  0.91937  0.19053  0.17203  1.0000 -0.1611064751
C   C201      1.0  0.54723  0.50187  0.41567  1.0000 0.0728005938
C   C202      1.0  0.62848  0.64172  0.36517  1.0000 0.3628001359
C   C203      1.0  0.63103  0.71137  0.27777  1.0000 0.0728005938
C   C204      1.0  0.60823  0.67067  0.35827  1.0000 -0.0507067495
C   C205      1.0  0.90217  0.32683  0.10623  1.0000 -0.0634578627
C   C206      1.0  0.55413  0.69057  0.43497  1.0000 -0.1323563344
C   C207      1.0  0.57823  0.72997  0.35007  1.0000 0.0728005938
C   C208      1.0  0.49073  0.40787  0.11697  1.0000 0.4515803304
C   C209      1.0  0.17550  0.71190  0.45910  1.0000 0.1110688475
C   C210      1.0  0.17200  0.69120  0.29570  1.0000 0.6127267328
C   C211      1.0  0.09830  0.32400  0.63830  1.0000 0.0352467792
C   C212      1.0  0.07439  0.33994  0.72200  1.0000 -0.0321876106
C   C213      1.0  0.43053  0.04327  0.48927  1.0000 -0.0433760264
C   C214      1.0  0.47613  0.06217  0.50537  1.0000 -0.1611064751
C   C215      1.0  0.16480  0.37870  0.74900  1.0000 0.0728005938
C   C216      1.0  0.02495  0.32010  0.69850  1.0000 0.3628001359
C   C217      1.0  0.95530  0.25300  0.61110  1.0000 0.0728005938
C   C218      1.0  0.99600  0.27090  0.69160  1.0000 -0.0507067495
C   C219      1.0  0.33983  0.90867  0.43957  1.0000 -0.0634578627
C   C220      1.0  0.97610  0.19690  0.76830  1.0000 -0.1323563344
C   C221      1.0  0.93670  0.18160  0.68340  1.0000 0.0728005938
C   C222      1.0  0.25880  0.41620  0.45030  1.0000 0.4515803304
C   C223      1.0  0.95477  0.79693  0.79243  1.0000 0.1110688475
C   C224      1.0  0.97547  0.81413  0.62903  1.0000 0.6127267328
C   C225      1.0  0.76497  0.65733  0.97163  1.0000 0.0352467792
C   C226      1.0  0.74106  0.67327  0.05533  1.0000 -0.0321876106
C   C227      1.0  0.09720  0.37660  0.82260  1.0000 -0.0433760264
C   C228      1.0  0.14280  0.39550  0.83870  1.0000 -0.1611064751
C   C229      1.0  0.83147  0.71203  0.08233  1.0000 0.0728005938
C   C230      1.0  0.69162  0.65343  0.03183  1.0000 0.3628001359
C   C231      1.0  0.62197  0.58633  0.94443  1.0000 0.0728005938
C   C232      1.0  0.66267  0.60423  0.02493  1.0000 -0.0507067495
C   C233      1.0  0.00650  0.24200  0.77290  1.0000 -0.0634578627
C   C234      1.0  0.64277  0.53023  0.10163  1.0000 -0.1323563344
C   C235      1.0  0.60337  0.51493  0.01673  1.0000 0.0728005938
C   C236      1.0  0.92547  0.74953  0.78363  1.0000 0.4515803304
C   C237      1.0  0.62143  0.13027  0.12577  1.0000 0.1110688475
C   C238      1.0  0.64213  0.14747  0.96237  1.0000 0.6127267328
C   C239      1.0  0.43163  0.99067  0.30497  1.0000 0.0352467792
C   C240      1.0  0.40772  0.00661  0.38867  1.0000 -0.0321876106
C   C241      1.0  0.76387  0.70993  0.15593  1.0000 -0.0433760264
C   C242      1.0  0.80947  0.72883  0.17203  1.0000 -0.1611064751
C   C243      1.0  0.49813  0.04537  0.41567  1.0000 0.0728005938
C   C244      1.0  0.35828  0.98677  0.36517  1.0000 0.3628001359
C   C245      1.0  0.28863  0.91967  0.27777  1.0000 0.0728005938
C   C246      1.0  0.32933  0.93757  0.35827  1.0000 -0.0507067495
C   C247      1.0  0.67317  0.57533  0.10623  1.0000 -0.0634578627
C   C248      1.0  0.30943  0.86357  0.43497  1.0000 -0.1323563344
C   C249      1.0  0.27003  0.84827  0.35007  1.0000 0.0728005938
C   C250      1.0  0.59213  0.08287  0.11697  1.0000 0.4515803304
C   C251      1.0  0.28810  0.46360  0.45910  1.0000 0.1110688475
C   C252      1.0  0.30880  0.48080  0.29570  1.0000 0.6127267328
N   N1        1.0  0.34402  0.20066  0.35100  1.0000 -0.1868754416
N   N2        1.0  0.20911  0.28324  0.39330  1.0000 -0.1868754416
N   N3        1.0  0.01069  0.53399  0.68433  1.0000 -0.1868754416
N   N4        1.0  0.87578  0.61657  0.72663  1.0000 -0.1868754416
N   N5        1.0  0.67735  0.86733  0.01767  1.0000 -0.1868754416
N   N6        1.0  0.54244  0.94991  0.05997  1.0000 -0.1868754416
N   N7        1.0  0.79934  0.14336  0.35100  1.0000 -0.1868754416
N   N8        1.0  0.71676  0.92587  0.39330  1.0000 -0.1868754416
N   N9        1.0  0.46601  0.47669  0.68433  1.0000 -0.1868754416
N   N10       1.0  0.38343  0.25920  0.72663  1.0000 -0.1868754416
N   N11       1.0  0.13267  0.81003  0.01767  1.0000 -0.1868754416
N   N12       1.0  0.05009  0.59254  0.05997  1.0000 -0.1868754416
N   N13       1.0  0.85664  0.65598  0.35100  1.0000 -0.1868754416
N   N14       1.0  0.07413  0.79089  0.39330  1.0000 -0.1868754416
N   N15       1.0  0.52331  0.98931  0.68433  1.0000 -0.1868754416
N   N16       1.0  0.74080  0.12422  0.72663  1.0000 -0.1868754416
N   N17       1.0  0.18997  0.32265  0.01767  1.0000 -0.1868754416
N   N18       1.0  0.40746  0.45756  0.05997  1.0000 -0.1868754416
N   N19       1.0  0.65598  0.79934  0.64900  1.0000 -0.1868754416
N   N20       1.0  0.79089  0.71676  0.60670  1.0000 -0.1868754416
N   N21       1.0  0.32265  0.13267  0.98233  1.0000 -0.1868754416
N   N22       1.0  0.45756  0.05009  0.94003  1.0000 -0.1868754416
N   N23       1.0  0.98931  0.46601  0.31567  1.0000 -0.1868754416
N   N24       1.0  0.12422  0.38343  0.27337  1.0000 -0.1868754416
N   N25       1.0  0.20066  0.85664  0.64900  1.0000 -0.1868754416
N   N26       1.0  0.28324  0.07413  0.60670  1.0000 -0.1868754416
N   N27       1.0  0.86733  0.18997  0.98233  1.0000 -0.1868754416
N   N28       1.0  0.94991  0.40746  0.94003  1.0000 -0.1868754416
N   N29       1.0  0.53399  0.52331  0.31567  1.0000 -0.1868754416
N   N30       1.0  0.61657  0.74080  0.27337  1.0000 -0.1868754416
N   N31       1.0  0.14336  0.34402  0.64900  1.0000 -0.1868754416
N   N32       1.0  0.92587  0.20911  0.60670  1.0000 -0.1868754416
N   N33       1.0  0.81003  0.67735  0.98233  1.0000 -0.1868754416
N   N34       1.0  0.59254  0.54244  0.94003  1.0000 -0.1868754416
N   N35       1.0  0.47669  0.01069  0.31567  1.0000 -0.1868754416
N   N36       1.0  0.25920  0.87578  0.27337  1.0000 -0.1868754416
O   O1        1.0  0.01134  0.66880  0.64573  1.0000 -0.3842545801
O   O2        1.0  0.39800  0.13960  0.42220  1.0000 -0.4646871093
O   O3        1.0  0.73193  0.83207  0.32987  1.0000 -0.5072267473
O   O4        1.0  0.67800  0.00214  0.97907  1.0000 -0.3842545801
O   O5        1.0  0.06467  0.47293  0.75553  1.0000 -0.4646871093
O   O6        1.0  0.39860  0.16540  0.66320  1.0000 -0.5072267473
O   O7        1.0  0.34467  0.33547  0.31240  1.0000 -0.3842545801
O   O8        1.0  0.73133  0.80627  0.08887  1.0000 -0.4646871093
O   O9        1.0  0.06527  0.49873  0.99653  1.0000 -0.5072267473
O   O10       1.0  0.33120  0.34253  0.64573  1.0000 -0.3842545801
O   O11       1.0  0.86040  0.25840  0.42220  1.0000 -0.4646871093
O   O12       1.0  0.16793  0.89987  0.32987  1.0000 -0.5072267473
O   O13       1.0  0.99786  0.67587  0.97907  1.0000 -0.3842545801
O   O14       1.0  0.52707  0.59173  0.75553  1.0000 -0.4646871093
O   O15       1.0  0.83460  0.23320  0.66320  1.0000 -0.5072267473
O   O16       1.0  0.66453  0.00920  0.31240  1.0000 -0.3842545801
O   O17       1.0  0.19373  0.92507  0.08887  1.0000 -0.4646871093
O   O18       1.0  0.50127  0.56653  0.99653  1.0000 -0.5072267473
O   O19       1.0  0.65747  0.98866  0.64573  1.0000 -0.3842545801
O   O20       1.0  0.74160  0.60200  0.42220  1.0000 -0.4646871093
O   O21       1.0  0.10013  0.26807  0.32987  1.0000 -0.5072267473
O   O22       1.0  0.32413  0.32200  0.97907  1.0000 -0.3842545801
O   O23       1.0  0.40827  0.93533  0.75553  1.0000 -0.4646871093
O   O24       1.0  0.76680  0.60140  0.66320  1.0000 -0.5072267473
O   O25       1.0  0.99080  0.65533  0.31240  1.0000 -0.3842545801
O   O26       1.0  0.07493  0.26867  0.08887  1.0000 -0.4646871093
O   O27       1.0  0.43347  0.93473  0.99653  1.0000 -0.5072267473
O   O28       1.0  0.98866  0.33120  0.35427  1.0000 -0.3842545801
O   O29       1.0  0.60200  0.86040  0.57780  1.0000 -0.4646871093
O   O30       1.0  0.26807  0.16793  0.67013  1.0000 -0.5072267473
O   O31       1.0  0.65533  0.66453  0.68760  1.0000 -0.3842545801
O   O32       1.0  0.26867  0.19373  0.91113  1.0000 -0.4646871093
O   O33       1.0  0.93473  0.50127  0.00347  1.0000 -0.5072267473
O   O34       1.0  0.32200  0.99786  0.02093  1.0000 -0.3842545801
O   O35       1.0  0.93533  0.52707  0.24447  1.0000 -0.4646871093
O   O36       1.0  0.60140  0.83460  0.33680  1.0000 -0.5072267473
O   O37       1.0  0.66880  0.65747  0.35427  1.0000 -0.3842545801
O   O38       1.0  0.13960  0.74160  0.57780  1.0000 -0.4646871093
O   O39       1.0  0.83207  0.10013  0.67013  1.0000 -0.5072267473
O   O40       1.0  0.33547  0.99080  0.68760  1.0000 -0.3842545801
O   O41       1.0  0.80627  0.07493  0.91113  1.0000 -0.4646871093
O   O42       1.0  0.49873  0.43347  0.00347  1.0000 -0.5072267473
O   O43       1.0  0.00214  0.32413  0.02093  1.0000 -0.3842545801
O   O44       1.0  0.47293  0.40827  0.24447  1.0000 -0.4646871093
O   O45       1.0  0.16540  0.76680  0.33680  1.0000 -0.5072267473
O   O46       1.0  0.34253  0.01134  0.35427  1.0000 -0.3842545801
O   O47       1.0  0.25840  0.39800  0.57780  1.0000 -0.4646871093
O   O48       1.0  0.89987  0.73193  0.67013  1.0000 -0.5072267473
O   O49       1.0  0.00920  0.34467  0.68760  1.0000 -0.3842545801
O   O50       1.0  0.92507  0.73133  0.91113  1.0000 -0.4646871093
O   O51       1.0  0.56653  0.06527  0.00347  1.0000 -0.5072267473
O   O52       1.0  0.67587  0.67800  0.02093  1.0000 -0.3842545801
O   O53       1.0  0.59173  0.06467  0.24447  1.0000 -0.4646871093
O   O54       1.0  0.23320  0.39860  0.33680  1.0000 -0.5072267473
F   F1        1.0  0.48020  0.15560  0.45390  1.0000 -0.1410737389
F   F2        1.0  0.83123  0.89077  0.19967  1.0000 -0.1506737242
F   F3        1.0  0.78683  0.79407  0.39797  1.0000 -0.2051491939
F   F4        1.0  0.80803  0.86627  0.48167  1.0000 -0.2150319421
F   F5        1.0  0.85863  0.85527  0.36567  1.0000 -0.1868754416
F   F6        1.0  0.14687  0.48893  0.78723  1.0000 -0.1410737389
F   F7        1.0  0.49790  0.22410  0.53300  1.0000 -0.1506737242
F   F8        1.0  0.45350  0.12740  0.73130  1.0000 -0.2051491939
F   F9        1.0  0.47470  0.19960  0.81500  1.0000 -0.2150319421
F   F10       1.0  0.52530  0.18860  0.69900  1.0000 -0.1868754416
F   F11       1.0  0.81353  0.82227  0.12057  1.0000 -0.1410737389
F   F12       1.0  0.16457  0.55743  0.86633  1.0000 -0.1506737242
F   F13       1.0  0.12017  0.46073  0.06463  1.0000 -0.2051491939
F   F14       1.0  0.14137  0.53293  0.14833  1.0000 -0.2150319421
F   F15       1.0  0.19197  0.52193  0.03233  1.0000 -0.1868754416
F   F16       1.0  0.84440  0.32460  0.45390  1.0000 -0.1410737389
F   F17       1.0  0.10923  0.94047  0.19967  1.0000 -0.1506737242
F   F18       1.0  0.20593  0.99277  0.39797  1.0000 -0.2051491939
F   F19       1.0  0.13373  0.94177  0.48167  1.0000 -0.2150319421
F   F20       1.0  0.14473  0.00337  0.36567  1.0000 -0.1868754416
F   F21       1.0  0.51107  0.65793  0.78723  1.0000 -0.1410737389
F   F22       1.0  0.77590  0.27380  0.53300  1.0000 -0.1506737242
F   F23       1.0  0.87260  0.32610  0.73130  1.0000 -0.2051491939
F   F24       1.0  0.80040  0.27510  0.81500  1.0000 -0.2150319421
F   F25       1.0  0.81140  0.33670  0.69900  1.0000 -0.1868754416
F   F26       1.0  0.17773  0.99127  0.12057  1.0000 -0.1410737389
F   F27       1.0  0.44257  0.60713  0.86633  1.0000 -0.1506737242
F   F28       1.0  0.53927  0.65943  0.06463  1.0000 -0.2051491939
F   F29       1.0  0.46707  0.60843  0.14833  1.0000 -0.2150319421
F   F30       1.0  0.47807  0.67003  0.03233  1.0000 -0.1868754416
F   F31       1.0  0.67540  0.51980  0.45390  1.0000 -0.1410737389
F   F32       1.0  0.05953  0.16877  0.19967  1.0000 -0.1506737242
F   F33       1.0  0.00723  0.21317  0.39797  1.0000 -0.2051491939
F   F34       1.0  0.05823  0.19197  0.48167  1.0000 -0.2150319421
F   F35       1.0  0.99663  0.14137  0.36567  1.0000 -0.1868754416
F   F36       1.0  0.34207  0.85313  0.78723  1.0000 -0.1410737389
F   F37       1.0  0.72620  0.50210  0.53300  1.0000 -0.1506737242
F   F38       1.0  0.67390  0.54650  0.73130  1.0000 -0.2051491939
F   F39       1.0  0.72490  0.52530  0.81500  1.0000 -0.2150319421
F   F40       1.0  0.66330  0.47470  0.69900  1.0000 -0.1868754416
F   F41       1.0  0.00873  0.18647  0.12057  1.0000 -0.1410737389
F   F42       1.0  0.39287  0.83543  0.86633  1.0000 -0.1506737242
F   F43       1.0  0.34057  0.87983  0.06463  1.0000 -0.2051491939
F   F44       1.0  0.39157  0.85863  0.14833  1.0000 -0.2150319421
F   F45       1.0  0.32997  0.80803  0.03233  1.0000 -0.1868754416
F   F46       1.0  0.51980  0.84440  0.54610  1.0000 -0.1410737389
F   F47       1.0  0.16877  0.10923  0.80033  1.0000 -0.1506737242
F   F48       1.0  0.21317  0.20593  0.60203  1.0000 -0.2051491939
F   F49       1.0  0.19197  0.13373  0.51833  1.0000 -0.2150319421
F   F50       1.0  0.14137  0.14473  0.63433  1.0000 -0.1868754416
F   F51       1.0  0.18647  0.17773  0.87943  1.0000 -0.1410737389
F   F52       1.0  0.83543  0.44257  0.13367  1.0000 -0.1506737242
F   F53       1.0  0.87983  0.53927  0.93537  1.0000 -0.2051491939
F   F54       1.0  0.85863  0.46707  0.85167  1.0000 -0.2150319421
F   F55       1.0  0.80803  0.47807  0.96767  1.0000 -0.1868754416
F   F56       1.0  0.85313  0.51107  0.21277  1.0000 -0.1410737389
F   F57       1.0  0.50210  0.77590  0.46700  1.0000 -0.1506737242
F   F58       1.0  0.54650  0.87260  0.26870  1.0000 -0.2051491939
F   F59       1.0  0.52530  0.80040  0.18500  1.0000 -0.2150319421
F   F60       1.0  0.47470  0.81140  0.30100  1.0000 -0.1868754416
F   F61       1.0  0.15560  0.67540  0.54610  1.0000 -0.1410737389
F   F62       1.0  0.89077  0.05953  0.80033  1.0000 -0.1506737242
F   F63       1.0  0.79407  0.00723  0.60203  1.0000 -0.2051491939
F   F64       1.0  0.86627  0.05823  0.51833  1.0000 -0.2150319421
F   F65       1.0  0.85527  0.99663  0.63433  1.0000 -0.1868754416
F   F66       1.0  0.82227  0.00873  0.87943  1.0000 -0.1410737389
F   F67       1.0  0.55743  0.39287  0.13367  1.0000 -0.1506737242
F   F68       1.0  0.46073  0.34057  0.93537  1.0000 -0.2051491939
F   F69       1.0  0.53293  0.39157  0.85167  1.0000 -0.2150319421
F   F70       1.0  0.52193  0.32997  0.96767  1.0000 -0.1868754416
F   F71       1.0  0.48893  0.34207  0.21277  1.0000 -0.1410737389
F   F72       1.0  0.22410  0.72620  0.46700  1.0000 -0.1506737242
F   F73       1.0  0.12740  0.67390  0.26870  1.0000 -0.2051491939
F   F74       1.0  0.19960  0.72490  0.18500  1.0000 -0.2150319421
F   F75       1.0  0.18860  0.66330  0.30100  1.0000 -0.1868754416
F   F76       1.0  0.32460  0.48020  0.54610  1.0000 -0.1410737389
F   F77       1.0  0.94047  0.83123  0.80033  1.0000 -0.1506737242
F   F78       1.0  0.99277  0.78683  0.60203  1.0000 -0.2051491939
F   F79       1.0  0.94177  0.80803  0.51833  1.0000 -0.2150319421
F   F80       1.0  0.00337  0.85863  0.63433  1.0000 -0.1868754416
F   F81       1.0  0.99127  0.81353  0.87943  1.0000 -0.1410737389
F   F82       1.0  0.60713  0.16457  0.13367  1.0000 -0.1506737242
F   F83       1.0  0.65943  0.12017  0.93537  1.0000 -0.2051491939
F   F84       1.0  0.60843  0.14137  0.85167  1.0000 -0.2150319421
F   F85       1.0  0.67003  0.19197  0.96767  1.0000 -0.1868754416
F   F86       1.0  0.65793  0.14687  0.21277  1.0000 -0.1410737389
F   F87       1.0  0.27380  0.49790  0.46700  1.0000 -0.1506737242
F   F88       1.0  0.32610  0.45350  0.26870  1.0000 -0.2051491939
F   F89       1.0  0.27510  0.47470  0.18500  1.0000 -0.2150319421
F   F90       1.0  0.33670  0.52530  0.30100  1.0000 -0.1868754416
