# DDEC6 charges by PACMAN v1.1 (https://github.com/mtap-research/PACMAN-charge/)
data_2009[Ag][nbo]3[ION]3
_chemical_formula_sum              "Ag18 H144 C252 N36 O54 F90"
_cell_length_a       34.697
_cell_length_b       34.697
_cell_length_c       8.4057
_cell_angle_alpha    90
_cell_angle_beta     90
_cell_angle_gamma    120

_symmetry_space_group_name_H-M    "P 1"
_symmetry_Int_Tables_number       1

loop_
  _symmetry_equiv_pos_as_xyz
  'x, y, z'

loop_
  _atom_site_type_symbol
  _atom_site_label
  _atom_site_symmetry_multiplicity
  _atom_site_fract_x
  _atom_site_fract_y
  _atom_site_fract_z
  _atom_site_occupancy
  _atom_site_charge
Ag  Ag1       1.0  0.86100  0.18287  0.49955  1.0000 0.3319407164
Ag  Ag2       1.0  0.52767  0.51620  0.83288  1.0000 0.3319407164
Ag  Ag3       1.0  0.19433  0.84954  0.16622  1.0000 0.3319407164
Ag  Ag4       1.0  0.81713  0.67813  0.49955  1.0000 0.3319407164
Ag  Ag5       1.0  0.48380  0.01146  0.83288  1.0000 0.3319407164
Ag  Ag6       1.0  0.15046  0.34480  0.16622  1.0000 0.3319407164
Ag  Ag7       1.0  0.32187  0.13900  0.49955  1.0000 0.3319407164
Ag  Ag8       1.0  0.98854  0.47233  0.83288  1.0000 0.3319407164
Ag  Ag9       1.0  0.65520  0.80567  0.16622  1.0000 0.3319407164
Ag  Ag10      1.0  0.13900  0.81713  0.50045  1.0000 0.3319407164
Ag  Ag11      1.0  0.80567  0.15046  0.83378  1.0000 0.3319407164
Ag  Ag12      1.0  0.47233  0.48380  0.16712  1.0000 0.3319407164
Ag  Ag13      1.0  0.18287  0.32187  0.50045  1.0000 0.3319407164
Ag  Ag14      1.0  0.84954  0.65520  0.83378  1.0000 0.3319407164
Ag  Ag15      1.0  0.51620  0.98854  0.16712  1.0000 0.3319407164
Ag  Ag16      1.0  0.67813  0.86100  0.50045  1.0000 0.3319407164
Ag  Ag17      1.0  0.34480  0.19433  0.83378  1.0000 0.3319407164
Ag  Ag18      1.0  0.01146  0.52767  0.16712  1.0000 0.3319407164
H   H1        1.0  0.80430  0.19550  0.24860  1.0000 0.112790943
H   H2        1.0  0.07303  0.82597  0.77367  1.0000 0.1327478679
H   H3        1.0  0.36217  0.41683  0.46343  1.0000 0.1327478679
H   H4        1.0  0.78540  0.08420  0.42790  1.0000 0.112790943
H   H5        1.0  0.44717  0.36673  0.50883  1.0000 0.1239752189
H   H6        1.0  0.47247  0.31593  0.51643  1.0000 0.1417072176
H   H7        1.0  0.76620  0.91840  0.32310  1.0000 0.1047135352
H   H8        1.0  0.67700  0.94940  0.44090  1.0000 0.112790943
H   H9        1.0  0.47097  0.52883  0.58193  1.0000 0.112790943
H   H10       1.0  0.73970  0.15930  0.10700  1.0000 0.1327478679
H   H11       1.0  0.02883  0.75017  0.79677  1.0000 0.1327478679
H   H12       1.0  0.45207  0.41753  0.76123  1.0000 0.112790943
H   H13       1.0  0.11383  0.70007  0.84217  1.0000 0.1239752189
H   H14       1.0  0.13913  0.64927  0.84977  1.0000 0.1417072176
H   H15       1.0  0.43287  0.25173  0.65643  1.0000 0.1047135352
H   H16       1.0  0.34367  0.28273  0.77423  1.0000 0.112790943
H   H17       1.0  0.13763  0.86217  0.91527  1.0000 0.112790943
H   H18       1.0  0.40637  0.49263  0.44033  1.0000 0.1327478679
H   H19       1.0  0.69550  0.08350  0.13010  1.0000 0.1327478679
H   H20       1.0  0.11873  0.75087  0.09457  1.0000 0.112790943
H   H21       1.0  0.78050  0.03340  0.17550  1.0000 0.1239752189
H   H22       1.0  0.80580  0.98260  0.18310  1.0000 0.1417072176
H   H23       1.0  0.09953  0.58507  0.98977  1.0000 0.1047135352
H   H24       1.0  0.01033  0.61607  0.10757  1.0000 0.112790943
H   H25       1.0  0.80450  0.60880  0.24860  1.0000 0.112790943
H   H26       1.0  0.17403  0.24707  0.77367  1.0000 0.1327478679
H   H27       1.0  0.58317  0.94533  0.46343  1.0000 0.1327478679
H   H28       1.0  0.91580  0.70120  0.42790  1.0000 0.112790943
H   H29       1.0  0.63327  0.08043  0.50883  1.0000 0.1239752189
H   H30       1.0  0.68407  0.15653  0.51643  1.0000 0.1417072176
H   H31       1.0  0.08160  0.84780  0.32310  1.0000 0.1047135352
H   H32       1.0  0.05060  0.72760  0.44090  1.0000 0.112790943
H   H33       1.0  0.47117  0.94213  0.58193  1.0000 0.112790943
H   H34       1.0  0.84070  0.58040  0.10700  1.0000 0.1327478679
H   H35       1.0  0.24983  0.27867  0.79677  1.0000 0.1327478679
H   H36       1.0  0.58247  0.03453  0.76123  1.0000 0.112790943
H   H37       1.0  0.29993  0.41377  0.84217  1.0000 0.1239752189
H   H38       1.0  0.35073  0.48987  0.84977  1.0000 0.1417072176
H   H39       1.0  0.74827  0.18113  0.65643  1.0000 0.1047135352
H   H40       1.0  0.71727  0.06093  0.77423  1.0000 0.112790943
H   H41       1.0  0.13783  0.27547  0.91527  1.0000 0.112790943
H   H42       1.0  0.50737  0.91373  0.44033  1.0000 0.1327478679
H   H43       1.0  0.91650  0.61200  0.13010  1.0000 0.1327478679
H   H44       1.0  0.24913  0.36787  0.09457  1.0000 0.112790943
H   H45       1.0  0.96660  0.74710  0.17550  1.0000 0.1239752189
H   H46       1.0  0.01740  0.82320  0.18310  1.0000 0.1417072176
H   H47       1.0  0.41493  0.51447  0.98977  1.0000 0.1047135352
H   H48       1.0  0.38393  0.39427  0.10757  1.0000 0.112790943
H   H49       1.0  0.39120  0.19570  0.24860  1.0000 0.112790943
H   H50       1.0  0.75293  0.92697  0.77367  1.0000 0.1327478679
H   H51       1.0  0.05467  0.63783  0.46343  1.0000 0.1327478679
H   H52       1.0  0.29880  0.21460  0.42790  1.0000 0.112790943
H   H53       1.0  0.91957  0.55283  0.50883  1.0000 0.1239752189
H   H54       1.0  0.84347  0.52753  0.51643  1.0000 0.1417072176
H   H55       1.0  0.15220  0.23380  0.32310  1.0000 0.1047135352
H   H56       1.0  0.27240  0.32300  0.44090  1.0000 0.112790943
H   H57       1.0  0.05787  0.52903  0.58193  1.0000 0.112790943
H   H58       1.0  0.41960  0.26030  0.10700  1.0000 0.1327478679
H   H59       1.0  0.72133  0.97117  0.79677  1.0000 0.1327478679
H   H60       1.0  0.96547  0.54793  0.76123  1.0000 0.112790943
H   H61       1.0  0.58623  0.88617  0.84217  1.0000 0.1239752189
H   H62       1.0  0.51013  0.86087  0.84977  1.0000 0.1417072176
H   H63       1.0  0.81887  0.56713  0.65643  1.0000 0.1047135352
H   H64       1.0  0.93907  0.65633  0.77423  1.0000 0.112790943
H   H65       1.0  0.72453  0.86237  0.91527  1.0000 0.112790943
H   H66       1.0  0.08627  0.59363  0.44033  1.0000 0.1327478679
H   H67       1.0  0.38800  0.30450  0.13010  1.0000 0.1327478679
H   H68       1.0  0.63213  0.88127  0.09457  1.0000 0.112790943
H   H69       1.0  0.25290  0.21950  0.17550  1.0000 0.1239752189
H   H70       1.0  0.17680  0.19420  0.18310  1.0000 0.1417072176
H   H71       1.0  0.48553  0.90047  0.98977  1.0000 0.1047135352
H   H72       1.0  0.60573  0.98967  0.10757  1.0000 0.112790943
H   H73       1.0  0.19570  0.80450  0.75140  1.0000 0.112790943
H   H74       1.0  0.92697  0.17403  0.22633  1.0000 0.1327478679
H   H75       1.0  0.63783  0.58317  0.53657  1.0000 0.1327478679
H   H76       1.0  0.21460  0.91580  0.57210  1.0000 0.112790943
H   H77       1.0  0.55283  0.63327  0.49117  1.0000 0.1239752189
H   H78       1.0  0.52753  0.68407  0.48357  1.0000 0.1417072176
H   H79       1.0  0.23380  0.08160  0.67690  1.0000 0.1047135352
H   H80       1.0  0.32300  0.05060  0.55910  1.0000 0.112790943
H   H81       1.0  0.86237  0.13783  0.08473  1.0000 0.112790943
H   H82       1.0  0.59363  0.50737  0.55967  1.0000 0.1327478679
H   H83       1.0  0.30450  0.91650  0.86990  1.0000 0.1327478679
H   H84       1.0  0.88127  0.24913  0.90543  1.0000 0.112790943
H   H85       1.0  0.21950  0.96660  0.82450  1.0000 0.1239752189
H   H86       1.0  0.19420  0.01740  0.81690  1.0000 0.1417072176
H   H87       1.0  0.90047  0.41493  0.01023  1.0000 0.1047135352
H   H88       1.0  0.98967  0.38393  0.89243  1.0000 0.112790943
H   H89       1.0  0.52903  0.47117  0.41807  1.0000 0.112790943
H   H90       1.0  0.26030  0.84070  0.89300  1.0000 0.1327478679
H   H91       1.0  0.97117  0.24983  0.20323  1.0000 0.1327478679
H   H92       1.0  0.54793  0.58247  0.23877  1.0000 0.112790943
H   H93       1.0  0.88617  0.29993  0.15783  1.0000 0.1239752189
H   H94       1.0  0.86087  0.35073  0.15023  1.0000 0.1417072176
H   H95       1.0  0.56713  0.74827  0.34357  1.0000 0.1047135352
H   H96       1.0  0.65633  0.71727  0.22577  1.0000 0.112790943
H   H97       1.0  0.19550  0.39120  0.75140  1.0000 0.112790943
H   H98       1.0  0.82597  0.75293  0.22633  1.0000 0.1327478679
H   H99       1.0  0.41683  0.05467  0.53657  1.0000 0.1327478679
H   H100      1.0  0.08420  0.29880  0.57210  1.0000 0.112790943
H   H101      1.0  0.36673  0.91957  0.49117  1.0000 0.1239752189
H   H102      1.0  0.31593  0.84347  0.48357  1.0000 0.1417072176
H   H103      1.0  0.91840  0.15220  0.67690  1.0000 0.1047135352
H   H104      1.0  0.94940  0.27240  0.55910  1.0000 0.1239752189
H   H105      1.0  0.86217  0.72453  0.08473  1.0000 0.112790943
H   H106      1.0  0.49263  0.08627  0.55967  1.0000 0.1327478679
H   H107      1.0  0.08350  0.38800  0.86990  1.0000 0.1327478679
H   H108      1.0  0.75087  0.63213  0.90543  1.0000 0.112790943
H   H109      1.0  0.03340  0.25290  0.82450  1.0000 0.1239752189
H   H110      1.0  0.98260  0.17680  0.81690  1.0000 0.1417072176
H   H111      1.0  0.58507  0.48553  0.01023  1.0000 0.1047135352
H   H112      1.0  0.61607  0.60573  0.89243  1.0000 0.112790943
H   H113      1.0  0.52883  0.05787  0.41807  1.0000 0.112790943
H   H114      1.0  0.15930  0.41960  0.89300  1.0000 0.1327478679
H   H115      1.0  0.75017  0.72133  0.20323  1.0000 0.1327478679
H   H116      1.0  0.41753  0.96547  0.23877  1.0000 0.112790943
H   H117      1.0  0.70007  0.58623  0.15783  1.0000 0.1239752189
H   H118      1.0  0.64927  0.51013  0.15023  1.0000 0.1417072176
H   H119      1.0  0.25173  0.81887  0.34357  1.0000 0.1047135352
H   H120      1.0  0.28273  0.93907  0.22577  1.0000 0.112790943
H   H121      1.0  0.60880  0.80430  0.75140  1.0000 0.112790943
H   H122      1.0  0.24707  0.07303  0.22633  1.0000 0.1327478679
H   H123      1.0  0.94533  0.36217  0.53657  1.0000 0.1327478679
H   H124      1.0  0.70120  0.78540  0.57210  1.0000 0.112790943
H   H125      1.0  0.08043  0.44717  0.49117  1.0000 0.1239752189
H   H126      1.0  0.15653  0.47247  0.48357  1.0000 0.1417072176
H   H127      1.0  0.84780  0.76620  0.67690  1.0000 0.1047135352
H   H128      1.0  0.72760  0.67700  0.55910  1.0000 0.112790943
H   H129      1.0  0.27547  0.13763  0.08473  1.0000 0.112790943
H   H130      1.0  0.91373  0.40637  0.55967  1.0000 0.1327478679
H   H131      1.0  0.61200  0.69550  0.86990  1.0000 0.1327478679
H   H132      1.0  0.36787  0.11873  0.90543  1.0000 0.112790943
H   H133      1.0  0.74710  0.78050  0.82450  1.0000 0.1239752189
H   H134      1.0  0.82320  0.80580  0.81690  1.0000 0.1417072176
H   H135      1.0  0.51447  0.09953  0.01023  1.0000 0.1047135352
H   H136      1.0  0.39427  0.01033  0.89243  1.0000 0.112790943
H   H137      1.0  0.94213  0.47097  0.41807  1.0000 0.112790943
H   H138      1.0  0.58040  0.73970  0.89300  1.0000 0.1327478679
H   H139      1.0  0.27867  0.02883  0.20323  1.0000 0.1327478679
H   H140      1.0  0.03453  0.45207  0.23877  1.0000 0.112790943
H   H141      1.0  0.41377  0.11383  0.15783  1.0000 0.1239752189
H   H142      1.0  0.48987  0.13913  0.15023  1.0000 0.1417072176
H   H143      1.0  0.18113  0.43287  0.34357  1.0000 0.1047135352
H   H144      1.0  0.06093  0.34367  0.22577  1.0000 0.112790943
C   C1        1.0  0.78680  0.16480  0.25850  1.0000 0.0620954818
C   C2        1.0  0.41477  0.47663  0.50643  1.0000 -0.1517070664
C   C3        1.0  0.38877  0.43173  0.51913  1.0000 -0.0434773876
C   C4        1.0  0.73580  0.07530  0.28250  1.0000 -0.0434773876
C   C5        1.0  0.77560  0.09950  0.36410  1.0000 0.040299568
C   C6        1.0  0.70650  0.02630  0.30410  1.0000 0.3566485553
C   C7        1.0  0.72690  0.99760  0.31060  1.0000 -0.0523818747
C   C8        1.0  0.43147  0.34023  0.56513  1.0000 -0.0619954292
C   C9        1.0  0.77990  0.97680  0.23590  1.0000 -0.129921654
C   C10       1.0  0.75580  0.93840  0.31940  1.0000 0.0620954818
C   C11       1.0  0.70360  0.95660  0.39030  1.0000 0.0713167324
C   C12       1.0  0.84240  0.25730  0.55850  1.0000 0.4708020746
C   C13       1.0  0.16603  0.96437  0.26827  1.0000 0.1954681882
C   C14       1.0  0.12843  0.95567  0.38067  1.0000 0.6128109819
C   C15       1.0  0.45347  0.49813  0.59183  1.0000 0.0620954818
C   C16       1.0  0.08143  0.80997  0.83977  1.0000 -0.1517070664
C   C17       1.0  0.05543  0.76507  0.85247  1.0000 -0.0434773876
C   C18       1.0  0.40247  0.40863  0.61583  1.0000 -0.0434773876
C   C19       1.0  0.44227  0.43283  0.69743  1.0000 0.040299568
C   C20       1.0  0.37317  0.35963  0.63743  1.0000 0.3566485553
C   C21       1.0  0.39357  0.33093  0.64393  1.0000 -0.0523818747
C   C22       1.0  0.09813  0.67357  0.89847  1.0000 -0.0619954292
C   C23       1.0  0.44657  0.31013  0.56923  1.0000 -0.129921654
C   C24       1.0  0.42247  0.27173  0.65273  1.0000 0.0620954818
C   C25       1.0  0.37027  0.28993  0.72363  1.0000 0.0713167324
C   C26       1.0  0.50907  0.59063  0.89183  1.0000 0.4708020746
C   C27       1.0  0.83270  0.29770  0.60160  1.0000 0.1954681882
C   C28       1.0  0.79510  0.28900  0.71400  1.0000 0.6128109819
C   C29       1.0  0.12013  0.83147  0.92517  1.0000 0.0620954818
C   C30       1.0  0.74810  0.14330  0.17310  1.0000 -0.1517070664
C   C31       1.0  0.72210  0.09840  0.18580  1.0000 -0.0434773876
C   C32       1.0  0.06913  0.74197  0.94917  1.0000 -0.0434773876
C   C33       1.0  0.10893  0.76617  0.03077  1.0000 0.040299568
C   C34       1.0  0.03983  0.69297  0.97077  1.0000 0.3566485553
C   C35       1.0  0.06023  0.66427  0.97727  1.0000 -0.0523818747
C   C36       1.0  0.76480  0.00690  0.23180  1.0000 -0.0619954292
C   C37       1.0  0.11323  0.64347  0.90257  1.0000 -0.129921654
C   C38       1.0  0.08913  0.60507  0.98607  1.0000 0.0620954818
C   C39       1.0  0.03693  0.62327  0.05697  1.0000 0.0713167324
C   C40       1.0  0.17573  0.92397  0.22517  1.0000 0.4708020746
C   C41       1.0  0.49937  0.63103  0.93493  1.0000 0.1954681882
C   C42       1.0  0.46177  0.62233  0.04733  1.0000 0.6128109819
C   C43       1.0  0.83520  0.62200  0.25850  1.0000 0.0620954818
C   C44       1.0  0.52337  0.93813  0.50643  1.0000 -0.1517070664
C   C45       1.0  0.56827  0.95703  0.51913  1.0000 -0.0434773876
C   C46       1.0  0.92470  0.66050  0.28250  1.0000 -0.0434773876
C   C47       1.0  0.90050  0.67610  0.36410  1.0000 0.040299568
C   C48       1.0  0.97370  0.68020  0.30410  1.0000 0.3566485553
C   C49       1.0  0.00240  0.72930  0.31060  1.0000 -0.0523818747
C   C50       1.0  0.65977  0.09123  0.56513  1.0000 -0.0619954292
C   C51       1.0  0.02320  0.80310  0.23590  1.0000 -0.129921654
C   C52       1.0  0.06160  0.81740  0.31940  1.0000 0.0620954818
C   C53       1.0  0.04340  0.74700  0.39030  1.0000 0.0713167324
C   C54       1.0  0.74270  0.58510  0.55850  1.0000 0.4708020746
C   C55       1.0  0.03563  0.20167  0.26827  1.0000 0.1954681882
C   C56       1.0  0.04433  0.17277  0.38067  1.0000 0.6128109819
C   C57       1.0  0.50187  0.95533  0.59183  1.0000 0.0620954818
C   C58       1.0  0.19003  0.27147  0.83977  1.0000 -0.1517070664
C   C59       1.0  0.23493  0.29037  0.85247  1.0000 -0.0434773876
C   C60       1.0  0.59137  0.99383  0.61583  1.0000 -0.0434773876
C   C61       1.0  0.56717  0.00943  0.69743  1.0000 0.040299568
C   C62       1.0  0.64037  0.01353  0.63743  1.0000 0.3566485553
C   C63       1.0  0.66907  0.06263  0.64393  1.0000 -0.0523818747
C   C64       1.0  0.32643  0.42457  0.89847  1.0000 -0.0619954292
C   C65       1.0  0.68987  0.13643  0.56923  1.0000 -0.129921654
C   C66       1.0  0.72827  0.15073  0.65273  1.0000 0.0620954818
C   C67       1.0  0.71007  0.08033  0.72363  1.0000 0.0713167324
C   C68       1.0  0.40937  0.91843  0.89183  1.0000 0.4708020746
C   C69       1.0  0.70230  0.53500  0.60160  1.0000 0.1954681882
C   C70       1.0  0.71100  0.50610  0.71400  1.0000 0.6128109819
C   C71       1.0  0.16853  0.28867  0.92517  1.0000 0.0620954818
C   C72       1.0  0.85670  0.60480  0.17310  1.0000 -0.1517070664
C   C73       1.0  0.90160  0.62370  0.18580  1.0000 -0.0434773876
C   C74       1.0  0.25803  0.32717  0.94917  1.0000 -0.0434773876
C   C75       1.0  0.23383  0.34277  0.03077  1.0000 0.040299568
C   C76       1.0  0.30703  0.34687  0.97077  1.0000 0.3566485553
C   C77       1.0  0.33573  0.39597  0.97727  1.0000 -0.0523818747
C   C78       1.0  0.99310  0.75790  0.23180  1.0000 -0.0619954292
C   C79       1.0  0.35653  0.46977  0.90257  1.0000 -0.129921654
C   C80       1.0  0.39493  0.48407  0.98607  1.0000 0.0620954818
C   C81       1.0  0.37673  0.41367  0.05697  1.0000 0.0713167324
C   C82       1.0  0.07603  0.25177  0.22517  1.0000 0.4708020746
C   C83       1.0  0.36897  0.86833  0.93493  1.0000 0.1954681882
C   C84       1.0  0.37767  0.83943  0.04733  1.0000 0.6128109819
C   C85       1.0  0.37800  0.21320  0.25850  1.0000 0.0620954818
C   C86       1.0  0.06187  0.58523  0.50643  1.0000 -0.1517070664
C   C87       1.0  0.04297  0.61123  0.51913  1.0000 -0.0434773876
C   C88       1.0  0.33950  0.26420  0.28250  1.0000 -0.0434773876
C   C89       1.0  0.32390  0.22440  0.36410  1.0000 0.040299568
C   C90       1.0  0.31980  0.29350  0.30410  1.0000 0.3566485553
C   C91       1.0  0.27070  0.27310  0.31060  1.0000 -0.0523818747
C   C92       1.0  0.90877  0.56853  0.56513  1.0000 -0.0619954292
C   C93       1.0  0.19690  0.22010  0.23590  1.0000 -0.129921654
C   C94       1.0  0.18260  0.24420  0.31940  1.0000 0.0620954818
C   C95       1.0  0.25300  0.29640  0.39030  1.0000 0.0713167324
C   C96       1.0  0.41490  0.15760  0.55850  1.0000 0.4708020746
C   C97       1.0  0.79833  0.83397  0.26827  1.0000 0.1954681882
C   C98       1.0  0.82723  0.87157  0.38067  1.0000 0.6128109819
C   C99       1.0  0.04467  0.54653  0.59183  1.0000 0.0620954818
C   C100      1.0  0.72853  0.91857  0.83977  1.0000 -0.1517070664
C   C101      1.0  0.70963  0.94457  0.85247  1.0000 -0.0434773876
C   C102      1.0  0.00617  0.59753  0.61583  1.0000 -0.0434773876
C   C103      1.0  0.99057  0.55773  0.69743  1.0000 0.040299568
C   C104      1.0  0.98647  0.62683  0.63743  1.0000 0.3566485553
C   C105      1.0  0.93737  0.60643  0.64393  1.0000 -0.0523818747
C   C106      1.0  0.57543  0.90187  0.89847  1.0000 -0.0619954292
C   C107      1.0  0.86357  0.55343  0.56923  1.0000 -0.129921654
C   C108      1.0  0.84927  0.57753  0.65273  1.0000 0.0620954818
C   C109      1.0  0.91967  0.62973  0.72363  1.0000 0.0713167324
C   C110      1.0  0.08157  0.49093  0.89183  1.0000 0.4708020746
C   C111      1.0  0.46500  0.16730  0.60160  1.0000 0.1954681882
C   C112      1.0  0.49390  0.20490  0.71400  1.0000 0.6128109819
C   C113      1.0  0.71133  0.87987  0.92517  1.0000 0.0620954818
C   C114      1.0  0.39520  0.25190  0.17310  1.0000 -0.1517070664
C   C115      1.0  0.37630  0.27790  0.18580  1.0000 -0.0434773876
C   C116      1.0  0.67283  0.93087  0.94917  1.0000 -0.0434773876
C   C117      1.0  0.65723  0.89107  0.03077  1.0000 0.040299568
C   C118      1.0  0.65313  0.96017  0.97077  1.0000 0.3566485553
C   C119      1.0  0.60403  0.93977  0.97727  1.0000 -0.0523818747
C   C120      1.0  0.24210  0.23520  0.23180  1.0000 -0.0619954292
C   C121      1.0  0.53023  0.88677  0.90257  1.0000 -0.129921654
C   C122      1.0  0.51593  0.91087  0.98607  1.0000 0.0620954818
C   C123      1.0  0.58633  0.96307  0.05697  1.0000 0.0713167324
C   C124      1.0  0.74823  0.82427  0.22517  1.0000 0.4708020746
C   C125      1.0  0.13167  0.50063  0.93493  1.0000 0.1954681882
C   C126      1.0  0.16057  0.53823  0.04733  1.0000 0.6128109819
C   C127      1.0  0.21320  0.83520  0.74150  1.0000 0.0620954818
C   C128      1.0  0.58523  0.52337  0.49357  1.0000 -0.1517070664
C   C129      1.0  0.61123  0.56827  0.48087  1.0000 -0.0434773876
C   C130      1.0  0.26420  0.92470  0.71750  1.0000 -0.0434773876
C   C131      1.0  0.22440  0.90050  0.63590  1.0000 0.040299568
C   C132      1.0  0.29350  0.97370  0.69590  1.0000 0.3566485553
C   C133      1.0  0.27310  0.00240  0.68940  1.0000 -0.0523818747
C   C134      1.0  0.56853  0.65977  0.43487  1.0000 -0.0619954292
C   C135      1.0  0.22010  0.02320  0.76410  1.0000 -0.129921654
C   C136      1.0  0.24420  0.06160  0.68060  1.0000 0.0620954818
C   C137      1.0  0.29640  0.04340  0.60970  1.0000 0.0713167324
C   C138      1.0  0.15760  0.74270  0.44150  1.0000 0.4708020746
C   C139      1.0  0.83397  0.03563  0.73173  1.0000 0.1954681882
C   C140      1.0  0.87157  0.04433  0.61933  1.0000 0.6128109819
C   C141      1.0  0.87987  0.16853  0.07483  1.0000 0.0620954818
C   C142      1.0  0.25190  0.85670  0.82690  1.0000 -0.1517070664
C   C143      1.0  0.27790  0.90160  0.81420  1.0000 -0.0434773876
C   C144      1.0  0.93087  0.25803  0.05083  1.0000 -0.0434773876
C   C145      1.0  0.89107  0.23383  0.96923  1.0000 0.040299568
C   C146      1.0  0.96017  0.30703  0.02923  1.0000 0.3566485553
C   C147      1.0  0.93977  0.33573  0.02273  1.0000 -0.0523818747
C   C148      1.0  0.23520  0.99310  0.76820  1.0000 -0.0619954292
C   C149      1.0  0.88677  0.35653  0.09743  1.0000 -0.129921654
C   C150      1.0  0.91087  0.39493  0.01393  1.0000 0.0620954818
C   C151      1.0  0.96307  0.37673  0.94303  1.0000 0.0713167324
C   C152      1.0  0.82427  0.07603  0.77483  1.0000 0.4708020746
C   C153      1.0  0.50063  0.36897  0.06507  1.0000 0.1954681882
C   C154      1.0  0.53823  0.37767  0.95267  1.0000 0.6128109819
C   C155      1.0  0.54653  0.50187  0.40817  1.0000 0.0620954818
C   C156      1.0  0.91857  0.19003  0.16023  1.0000 -0.1517070664
C   C157      1.0  0.94457  0.23493  0.14753  1.0000 -0.0434773876
C   C158      1.0  0.59753  0.59137  0.38417  1.0000 -0.0434773876
C   C159      1.0  0.55773  0.56717  0.30257  1.0000 0.040299568
C   C160      1.0  0.62683  0.64037  0.36257  1.0000 0.3566485553
C   C161      1.0  0.60643  0.66907  0.35607  1.0000 -0.0523818747
C   C162      1.0  0.90187  0.32643  0.10153  1.0000 -0.0619954292
C   C163      1.0  0.55343  0.68987  0.43077  1.0000 -0.129921654
C   C164      1.0  0.57753  0.72827  0.34727  1.0000 0.0620954818
C   C165      1.0  0.62973  0.71007  0.27637  1.0000 0.0713167324
C   C166      1.0  0.49093  0.40937  0.10817  1.0000 0.4708020746
C   C167      1.0  0.16730  0.70230  0.39840  1.0000 0.1954681882
C   C168      1.0  0.20490  0.71100  0.28600  1.0000 0.6128109819
C   C169      1.0  0.16480  0.37800  0.74150  1.0000 0.0620954818
C   C170      1.0  0.47663  0.06187  0.49357  1.0000 -0.1517070664
C   C171      1.0  0.43173  0.04297  0.48087  1.0000 -0.0434773876
C   C172      1.0  0.07530  0.33950  0.71750  1.0000 -0.0434773876
C   C173      1.0  0.09950  0.32390  0.63590  1.0000 0.040299568
C   C174      1.0  0.02630  0.31980  0.69590  1.0000 0.3566485553
C   C175      1.0  0.99760  0.27070  0.68940  1.0000 -0.0523818747
C   C176      1.0  0.34023  0.90877  0.43487  1.0000 -0.0619954292
C   C177      1.0  0.97680  0.19690  0.76410  1.0000 -0.129921654
C   C178      1.0  0.93840  0.18260  0.68060  1.0000 0.0620954818
C   C179      1.0  0.95660  0.25300  0.60970  1.0000 0.0713167324
C   C180      1.0  0.25730  0.41490  0.44150  1.0000 0.4708020746
C   C181      1.0  0.96437  0.79833  0.73173  1.0000 0.1954681882
C   C182      1.0  0.95567  0.82723  0.61933  1.0000 0.6128109819
C   C183      1.0  0.83147  0.71133  0.07483  1.0000 0.0620954818
C   C184      1.0  0.14330  0.39520  0.82690  1.0000 -0.1517070664
C   C185      1.0  0.09840  0.37630  0.81420  1.0000 -0.0434773876
C   C186      1.0  0.74197  0.67283  0.05083  1.0000 -0.0434773876
C   C187      1.0  0.76617  0.65723  0.96923  1.0000 0.040299568
C   C188      1.0  0.69297  0.65313  0.02923  1.0000 0.3566485553
C   C189      1.0  0.66427  0.60403  0.02273  1.0000 -0.0523818747
C   C190      1.0  0.00690  0.24210  0.76820  1.0000 -0.0619954292
C   C191      1.0  0.64347  0.53023  0.09743  1.0000 -0.129921654
C   C192      1.0  0.60507  0.51593  0.01393  1.0000 0.0620954818
C   C193      1.0  0.62327  0.58633  0.94303  1.0000 0.0713167324
C   C194      1.0  0.92397  0.74823  0.77483  1.0000 0.4708020746
C   C195      1.0  0.63103  0.13167  0.06507  1.0000 0.1954681882
C   C196      1.0  0.62233  0.16057  0.95267  1.0000 0.6128109819
C   C197      1.0  0.49813  0.04467  0.40817  1.0000 0.0620954818
C   C198      1.0  0.80997  0.72853  0.16023  1.0000 -0.1517070664
C   C199      1.0  0.76507  0.70963  0.14753  1.0000 -0.0434773876
C   C200      1.0  0.40863  0.00617  0.38417  1.0000 -0.0434773876
C   C201      1.0  0.43283  0.99057  0.30257  1.0000 0.040299568
C   C202      1.0  0.35963  0.98647  0.36257  1.0000 0.3566485553
C   C203      1.0  0.33093  0.93737  0.35607  1.0000 -0.0523818747
C   C204      1.0  0.67357  0.57543  0.10153  1.0000 -0.0619954292
C   C205      1.0  0.31013  0.86357  0.43077  1.0000 -0.129921654
C   C206      1.0  0.27173  0.84927  0.34727  1.0000 0.0620954818
C   C207      1.0  0.28993  0.91967  0.27637  1.0000 0.0713167324
C   C208      1.0  0.59063  0.08157  0.10817  1.0000 0.4708020746
C   C209      1.0  0.29770  0.46500  0.39840  1.0000 0.1954681882
C   C210      1.0  0.28900  0.49390  0.28600  1.0000 0.6128109819
C   C211      1.0  0.62200  0.78680  0.74150  1.0000 0.0620954818
C   C212      1.0  0.93813  0.41477  0.49357  1.0000 -0.1517070664
C   C213      1.0  0.95703  0.38877  0.48087  1.0000 -0.0434773876
C   C214      1.0  0.66050  0.73580  0.71750  1.0000 -0.0434773876
C   C215      1.0  0.67610  0.77560  0.63590  1.0000 0.040299568
C   C216      1.0  0.68020  0.70650  0.69590  1.0000 0.3566485553
C   C217      1.0  0.72930  0.72690  0.68940  1.0000 -0.0523818747
C   C218      1.0  0.09123  0.43147  0.43487  1.0000 -0.0619954292
C   C219      1.0  0.80310  0.77990  0.76410  1.0000 -0.129921654
C   C220      1.0  0.81740  0.75580  0.68060  1.0000 0.0620954818
C   C221      1.0  0.74700  0.70360  0.60970  1.0000 0.0713167324
C   C222      1.0  0.58510  0.84240  0.44150  1.0000 0.4708020746
C   C223      1.0  0.20167  0.16603  0.73173  1.0000 0.1954681882
C   C224      1.0  0.17277  0.12843  0.61933  1.0000 0.6128109819
C   C225      1.0  0.28867  0.12013  0.07483  1.0000 0.0620954818
C   C226      1.0  0.60480  0.74810  0.82690  1.0000 -0.1517070664
C   C227      1.0  0.62370  0.72210  0.81420  1.0000 -0.0434773876
C   C228      1.0  0.32717  0.06913  0.05083  1.0000 -0.0434773876
C   C229      1.0  0.34277  0.10893  0.96923  1.0000 0.040299568
C   C230      1.0  0.34687  0.03983  0.02923  1.0000 0.3566485553
C   C231      1.0  0.39597  0.06023  0.02273  1.0000 -0.0523818747
C   C232      1.0  0.75790  0.76480  0.76820  1.0000 -0.0619954292
C   C233      1.0  0.46977  0.11323  0.09743  1.0000 -0.129921654
C   C234      1.0  0.48407  0.08913  0.01393  1.0000 0.0620954818
C   C235      1.0  0.41367  0.03693  0.94303  1.0000 0.0713167324
C   C236      1.0  0.25177  0.17573  0.77483  1.0000 0.4708020746
C   C237      1.0  0.86833  0.49937  0.06507  1.0000 0.1954681882
C   C238      1.0  0.83943  0.46177  0.95267  1.0000 0.6128109819
C   C239      1.0  0.95533  0.45347  0.40817  1.0000 0.0620954818
C   C240      1.0  0.27147  0.08143  0.16023  1.0000 -0.1517070664
C   C241      1.0  0.29037  0.05543  0.14753  1.0000 -0.0434773876
C   C242      1.0  0.99383  0.40247  0.38417  1.0000 -0.0434773876
C   C243      1.0  0.00943  0.44227  0.30257  1.0000 0.040299568
C   C244      1.0  0.01353  0.37317  0.36257  1.0000 0.3566485553
C   C245      1.0  0.06263  0.39357  0.35607  1.0000 -0.0523818747
C   C246      1.0  0.42457  0.09813  0.10153  1.0000 -0.0619954292
C   C247      1.0  0.13643  0.44657  0.43077  1.0000 -0.129921654
C   C248      1.0  0.15073  0.42247  0.34727  1.0000 0.0620954818
C   C249      1.0  0.08033  0.37027  0.27637  1.0000 0.0713167324
C   C250      1.0  0.91843  0.50907  0.10817  1.0000 0.4708020746
C   C251      1.0  0.53500  0.83270  0.39840  1.0000 0.1954681882
C   C252      1.0  0.50610  0.79510  0.28600  1.0000 0.6128109819
N   N1        1.0  0.80050  0.14370  0.35510  1.0000 -0.1832503751
N   N2        1.0  0.71800  0.92760  0.39600  1.0000 -0.1899849134
N   N3        1.0  0.46717  0.47703  0.68843  1.0000 -0.1832503751
N   N4        1.0  0.38467  0.26093  0.72933  1.0000 -0.1899849134
N   N5        1.0  0.13383  0.81037  0.02177  1.0000 -0.1832503751
N   N6        1.0  0.05133  0.59427  0.06267  1.0000 -0.1899849134
N   N7        1.0  0.85630  0.65680  0.35510  1.0000 -0.1832503751
N   N8        1.0  0.07240  0.79040  0.39600  1.0000 -0.1899849134
N   N9        1.0  0.52297  0.99013  0.68843  1.0000 -0.1832503751
N   N10       1.0  0.73907  0.12373  0.72933  1.0000 -0.1899849134
N   N11       1.0  0.18963  0.32347  0.02177  1.0000 -0.1832503751
N   N12       1.0  0.40573  0.45707  0.06267  1.0000 -0.1899849134
N   N13       1.0  0.34320  0.19950  0.35510  1.0000 -0.1832503751
N   N14       1.0  0.20960  0.28200  0.39600  1.0000 -0.1899849134
N   N15       1.0  0.00987  0.53283  0.68843  1.0000 -0.1832503751
N   N16       1.0  0.87627  0.61533  0.72933  1.0000 -0.1899849134
N   N17       1.0  0.67653  0.86617  0.02177  1.0000 -0.1832503751
N   N18       1.0  0.54293  0.94867  0.06267  1.0000 -0.1899849134
N   N19       1.0  0.19950  0.85630  0.64490  1.0000 -0.1832503751
N   N20       1.0  0.28200  0.07240  0.60400  1.0000 -0.1899849134
N   N21       1.0  0.86617  0.18963  0.97823  1.0000 -0.1832503751
N   N22       1.0  0.94867  0.40573  0.93733  1.0000 -0.1899849134
N   N23       1.0  0.53283  0.52297  0.31157  1.0000 -0.1832503751
N   N24       1.0  0.61533  0.73907  0.27067  1.0000 -0.1899849134
N   N25       1.0  0.14370  0.34320  0.64490  1.0000 -0.1832503751
N   N26       1.0  0.92760  0.20960  0.60400  1.0000 -0.1899849134
N   N27       1.0  0.81037  0.67653  0.97823  1.0000 -0.1832503751
N   N28       1.0  0.59427  0.54293  0.93733  1.0000 -0.1899849134
N   N29       1.0  0.47703  0.00987  0.31157  1.0000 -0.1832503751
N   N30       1.0  0.26093  0.87627  0.27067  1.0000 -0.1899849134
N   N31       1.0  0.65680  0.80050  0.64490  1.0000 -0.1832503751
N   N32       1.0  0.79040  0.71800  0.60400  1.0000 -0.1899849134
N   N33       1.0  0.32347  0.13383  0.97823  1.0000 -0.1832503751
N   N34       1.0  0.45707  0.05133  0.93733  1.0000 -0.1899849134
N   N35       1.0  0.99013  0.46717  0.31157  1.0000 -0.1832503751
N   N36       1.0  0.12373  0.38467  0.27067  1.0000 -0.1899849134
O   O1        1.0  0.33293  0.34404  0.64793  1.0000 -0.3890707086
O   O2        1.0  0.16653  0.89737  0.32577  1.0000 -0.4823572279
O   O3        1.0  0.86020  0.25950  0.42970  1.0000 -0.4960925802
O   O4        1.0  0.99959  0.67738  0.98127  1.0000 -0.3890707086
O   O5        1.0  0.83320  0.23070  0.65910  1.0000 -0.4823572279
O   O6        1.0  0.52687  0.59283  0.76303  1.0000 -0.4960925802
O   O7        1.0  0.66626  0.01071  0.31460  1.0000 -0.3890707086
O   O8        1.0  0.49987  0.56403  0.99243  1.0000 -0.4823572279
O   O9        1.0  0.19353  0.92617  0.09637  1.0000 -0.4960925802
O   O10       1.0  0.65596  0.98888  0.64793  1.0000 -0.3890707086
O   O11       1.0  0.10263  0.26917  0.32577  1.0000 -0.4823572279
O   O12       1.0  0.74050  0.60070  0.42970  1.0000 -0.4960925802
O   O13       1.0  0.32262  0.32222  0.98127  1.0000 -0.3890707086
O   O14       1.0  0.76930  0.60250  0.65910  1.0000 -0.4823572279
O   O15       1.0  0.40717  0.93403  0.76303  1.0000 -0.4960925802
O   O16       1.0  0.98929  0.65555  0.31460  1.0000 -0.3890707086
O   O17       1.0  0.43597  0.93583  0.99243  1.0000 -0.4823572279
O   O18       1.0  0.07383  0.26737  0.09637  1.0000 -0.4960925802
O   O19       1.0  0.01112  0.66707  0.64793  1.0000 -0.3890707086
O   O20       1.0  0.73083  0.83347  0.32577  1.0000 -0.4823572279
O   O21       1.0  0.39930  0.13980  0.42970  1.0000 -0.4960925802
O   O22       1.0  0.67778  0.00041  0.98127  1.0000 -0.3890707086
O   O23       1.0  0.39750  0.16680  0.65910  1.0000 -0.4823572279
O   O24       1.0  0.06597  0.47313  0.76303  1.0000 -0.4960925802
O   O25       1.0  0.34445  0.33374  0.31460  1.0000 -0.3890707086
O   O26       1.0  0.06417  0.50013  0.99243  1.0000 -0.4823572279
O   O27       1.0  0.73263  0.80647  0.09637  1.0000 -0.4960925802
O   O28       1.0  0.66707  0.65596  0.35207  1.0000 -0.3890707086
O   O29       1.0  0.83347  0.10263  0.67423  1.0000 -0.4823572279
O   O30       1.0  0.13980  0.74050  0.57030  1.0000 -0.4960925802
O   O31       1.0  0.33374  0.98929  0.68540  1.0000 -0.3890707086
O   O32       1.0  0.50013  0.43597  0.00757  1.0000 -0.4823572279
O   O33       1.0  0.80647  0.07383  0.90363  1.0000 -0.4960925802
O   O34       1.0  0.00041  0.32262  0.01873  1.0000 -0.3890707086
O   O35       1.0  0.16680  0.76930  0.34090  1.0000 -0.4823572279
O   O36       1.0  0.47313  0.40717  0.23697  1.0000 -0.4960925802
O   O37       1.0  0.34404  0.01112  0.35207  1.0000 -0.3890707086
O   O38       1.0  0.89737  0.73083  0.67423  1.0000 -0.4823572279
O   O39       1.0  0.25950  0.39930  0.57030  1.0000 -0.4960925802
O   O40       1.0  0.01071  0.34445  0.68540  1.0000 -0.3890707086
O   O41       1.0  0.56403  0.06417  0.00757  1.0000 -0.4823572279
O   O42       1.0  0.92617  0.73263  0.90363  1.0000 -0.4960925802
O   O43       1.0  0.67738  0.67778  0.01873  1.0000 -0.3890707086
O   O44       1.0  0.23070  0.39750  0.34090  1.0000 -0.4823572279
O   O45       1.0  0.59283  0.06597  0.23697  1.0000 -0.4960925802
O   O46       1.0  0.98888  0.33293  0.35207  1.0000 -0.3890707086
O   O47       1.0  0.26917  0.16653  0.67423  1.0000 -0.4823572279
O   O48       1.0  0.60070  0.86020  0.57030  1.0000 -0.4960925802
O   O49       1.0  0.65555  0.66626  0.68540  1.0000 -0.3890707086
O   O50       1.0  0.93583  0.49987  0.00757  1.0000 -0.4823572279
O   O51       1.0  0.26737  0.19353  0.90363  1.0000 -0.4960925802
O   O52       1.0  0.32222  0.99959  0.01873  1.0000 -0.3890707086
O   O53       1.0  0.60250  0.83320  0.34090  1.0000 -0.4823572279
O   O54       1.0  0.93403  0.52687  0.23697  1.0000 -0.4960925802
F   F1        1.0  0.19753  0.99277  0.37117  1.0000 -0.1517070664
F   F2        1.0  0.84290  0.32280  0.46900  1.0000 -0.1427443714
F   F3        1.0  0.13843  0.94057  0.50867  1.0000 -0.2103804813
F   F4        1.0  0.13253  0.99557  0.39467  1.0000 -0.2103804813
F   F5        1.0  0.09283  0.92597  0.30167  1.0000 -0.2394346603
F   F6        1.0  0.86420  0.32610  0.70450  1.0000 -0.1517070664
F   F7        1.0  0.50957  0.65613  0.80233  1.0000 -0.1427443714
F   F8        1.0  0.80510  0.27390  0.84200  1.0000 -0.2103804813
F   F9        1.0  0.79920  0.32890  0.72800  1.0000 -0.2103804813
F   F10       1.0  0.75950  0.25930  0.63500  1.0000 -0.2394346603
F   F11       1.0  0.53087  0.65943  0.03783  1.0000 -0.1517070664
F   F12       1.0  0.17623  0.98947  0.13567  1.0000 -0.1427443714
F   F13       1.0  0.47177  0.60723  0.17533  1.0000 -0.2103804813
F   F14       1.0  0.46587  0.66223  0.06133  1.0000 -0.2103804813
F   F15       1.0  0.42617  0.59263  0.96833  1.0000 -0.2394346603
F   F16       1.0  0.00723  0.20477  0.37117  1.0000 -0.1517070664
F   F17       1.0  0.67720  0.52010  0.46900  1.0000 -0.1427443714
F   F18       1.0  0.05943  0.19787  0.50867  1.0000 -0.2103804813
F   F19       1.0  0.00443  0.13697  0.39467  1.0000 -0.2103804813
F   F20       1.0  0.07403  0.16687  0.30167  1.0000 -0.2394346603
F   F21       1.0  0.67390  0.53810  0.70450  1.0000 -0.1517070664
F   F22       1.0  0.34387  0.85343  0.80233  1.0000 -0.1427443714
F   F23       1.0  0.72610  0.53120  0.84200  1.0000 -0.2103804813
F   F24       1.0  0.67110  0.47030  0.72800  1.0000 -0.2103804813
F   F25       1.0  0.74070  0.50020  0.63500  1.0000 -0.2394346603
F   F26       1.0  0.34057  0.87143  0.03783  1.0000 -0.1517070664
F   F27       1.0  0.01053  0.18677  0.13567  1.0000 -0.1427443714
F   F28       1.0  0.39277  0.86453  0.17533  1.0000 -0.2103804813
F   F29       1.0  0.33777  0.80363  0.06133  1.0000 -0.2103804813
F   F30       1.0  0.40737  0.83353  0.96833  1.0000 -0.2394346603
F   F31       1.0  0.79523  0.80247  0.37117  1.0000 -0.1517070664
F   F32       1.0  0.47990  0.15710  0.46900  1.0000 -0.1427443714
F   F33       1.0  0.80213  0.86157  0.50867  1.0000 -0.2103804813
F   F34       1.0  0.86303  0.86747  0.39467  1.0000 -0.2103804813
F   F35       1.0  0.83313  0.90717  0.30167  1.0000 -0.2394346603
F   F36       1.0  0.46190  0.13580  0.70450  1.0000 -0.1517070664
F   F37       1.0  0.14657  0.49043  0.80233  1.0000 -0.1427443714
F   F38       1.0  0.46880  0.19490  0.84200  1.0000 -0.2103804813
F   F39       1.0  0.52970  0.20080  0.72800  1.0000 -0.2103804813
F   F40       1.0  0.49980  0.24050  0.63500  1.0000 -0.2394346603
F   F41       1.0  0.12857  0.46913  0.03783  1.0000 -0.1517070664
F   F42       1.0  0.81323  0.82377  0.13567  1.0000 -0.1427443714
F   F43       1.0  0.13547  0.52823  0.17533  1.0000 -0.2103804813
F   F44       1.0  0.19637  0.53413  0.06133  1.0000 -0.2103804813
F   F45       1.0  0.16647  0.57383  0.96833  1.0000 -0.2394346603
F   F46       1.0  0.80247  0.00723  0.62883  1.0000 -0.1517070664
F   F47       1.0  0.15710  0.67720  0.53100  1.0000 -0.1427443714
F   F48       1.0  0.86157  0.05943  0.49133  1.0000 -0.2103804813
F   F49       1.0  0.86747  0.00443  0.60533  1.0000 -0.2103804813
F   F50       1.0  0.90717  0.07403  0.69833  1.0000 -0.2394346603
F   F51       1.0  0.46913  0.34057  0.96217  1.0000 -0.1517070664
F   F52       1.0  0.82377  0.01053  0.86433  1.0000 -0.1427443714
F   F53       1.0  0.52823  0.39277  0.82467  1.0000 -0.2103804813
F   F54       1.0  0.53413  0.33777  0.93867  1.0000 -0.2103804813
F   F55       1.0  0.57383  0.40737  0.03167  1.0000 -0.2394346603
F   F56       1.0  0.13580  0.67390  0.29550  1.0000 -0.1517070664
F   F57       1.0  0.49043  0.34387  0.19767  1.0000 -0.1427443714
F   F58       1.0  0.19490  0.72610  0.15800  1.0000 -0.2103804813
F   F59       1.0  0.20080  0.67110  0.27200  1.0000 -0.2103804813
F   F60       1.0  0.24050  0.74070  0.36500  1.0000 -0.2394346603
F   F61       1.0  0.99277  0.79523  0.62883  1.0000 -0.1517070664
F   F62       1.0  0.32280  0.47990  0.53100  1.0000 -0.1427443714
F   F63       1.0  0.94057  0.80213  0.49133  1.0000 -0.2103804813
F   F64       1.0  0.99557  0.86303  0.60533  1.0000 -0.2103804813
F   F65       1.0  0.92597  0.83313  0.69833  1.0000 -0.2394346603
F   F66       1.0  0.65943  0.12857  0.96217  1.0000 -0.1517070664
F   F67       1.0  0.98947  0.81323  0.86433  1.0000 -0.1427443714
F   F68       1.0  0.60723  0.13547  0.82467  1.0000 -0.2103804813
F   F69       1.0  0.66223  0.19637  0.93867  1.0000 -0.2103804813
F   F70       1.0  0.59263  0.16647  0.03167  1.0000 -0.2394346603
F   F71       1.0  0.32610  0.46190  0.29550  1.0000 -0.1517070664
F   F72       1.0  0.65613  0.14657  0.19767  1.0000 -0.1427443714
F   F73       1.0  0.27390  0.46880  0.15800  1.0000 -0.2103804813
F   F74       1.0  0.32890  0.52970  0.27200  1.0000 -0.2103804813
F   F75       1.0  0.25930  0.49980  0.36500  1.0000 -0.2394346603
F   F76       1.0  0.20477  0.19753  0.62883  1.0000 -0.1517070664
F   F77       1.0  0.52010  0.84290  0.53100  1.0000 -0.1427443714
F   F78       1.0  0.19787  0.13843  0.49133  1.0000 -0.2103804813
F   F79       1.0  0.13697  0.13253  0.60533  1.0000 -0.2103804813
F   F80       1.0  0.16687  0.09283  0.69833  1.0000 -0.2394346603
F   F81       1.0  0.87143  0.53087  0.96217  1.0000 -0.1517070664
F   F82       1.0  0.18677  0.17623  0.86433  1.0000 -0.1427443714
F   F83       1.0  0.86453  0.47177  0.82467  1.0000 -0.2103804813
F   F84       1.0  0.80363  0.46587  0.93867  1.0000 -0.2103804813
F   F85       1.0  0.83353  0.42617  0.03167  1.0000 -0.2394346603
F   F86       1.0  0.53810  0.86420  0.29550  1.0000 -0.1517070664
F   F87       1.0  0.85343  0.50957  0.19767  1.0000 -0.1427443714
F   F88       1.0  0.53120  0.80510  0.15800  1.0000 -0.2103804813
F   F89       1.0  0.47030  0.79920  0.27200  1.0000 -0.2103804813
F   F90       1.0  0.50020  0.75950  0.36500  1.0000 -0.2394346603
