# DDEC6 charges by PACMAN v1.1 (https://github.com/mtap-research/PACMAN-charge/)
data_2010[Ag][nan]3[ION]2
_chemical_formula_sum              "Ag4 H84 C96 N12 Cl4 O28"
_cell_length_a       10.409
_cell_length_b       11.154
_cell_length_c       22.258
_cell_angle_alpha    90
_cell_angle_beta     90
_cell_angle_gamma    90

_symmetry_space_group_name_H-M    "P 1"
_symmetry_Int_Tables_number       1

loop_
  _symmetry_equiv_pos_as_xyz
  'x, y, z'

loop_
  _atom_site_type_symbol
  _atom_site_label
  _atom_site_symmetry_multiplicity
  _atom_site_fract_x
  _atom_site_fract_y
  _atom_site_fract_z
  _atom_site_occupancy
  _atom_site_charge
Ag  Ag1       1.0  0.84603  0.19142  0.69708  1.0000 0.2772188549
Ag  Ag2       1.0  0.34603  0.69142  0.80292  1.0000 0.2772188549
Ag  Ag3       1.0  0.84603  0.30858  0.19708  1.0000 0.2772188549
Ag  Ag4       1.0  0.34603  0.80858  0.30292  1.0000 0.2772188549
H   H1        1.0  0.66150  0.49680  0.69130  1.0000 0.1519809429
H   H2        1.0  0.16150  0.99680  0.80870  1.0000 0.1519809429
H   H3        1.0  0.66150  0.00320  0.19130  1.0000 0.1519809429
H   H4        1.0  0.16150  0.50320  0.30870  1.0000 0.1519809429
H   H5        1.0  0.81090  0.54790  0.85850  1.0000 0.1431312029
H   H6        1.0  0.31090  0.04790  0.64150  1.0000 0.1431312029
H   H7        1.0  0.81090  0.95210  0.35850  1.0000 0.1431312029
H   H8        1.0  0.31090  0.45210  0.14150  1.0000 0.1431312029
H   H9        1.0  0.44390  0.43190  0.84080  1.0000 0.1431312029
H   H10       1.0  0.94390  0.93190  0.65920  1.0000 0.1431312029
H   H11       1.0  0.44390  0.06810  0.34080  1.0000 0.1431312029
H   H12       1.0  0.94390  0.56810  0.15920  1.0000 0.1431312029
H   H13       1.0  0.33990  0.31000  0.77070  1.0000 0.108017041
H   H14       1.0  0.83990  0.81000  0.72930  1.0000 0.108017041
H   H15       1.0  0.33990  0.19000  0.27070  1.0000 0.108017041
H   H16       1.0  0.83990  0.69000  0.22930  1.0000 0.108017041
H   H17       1.0  0.28730  0.44530  0.77250  1.0000 0.1009150472
H   H18       1.0  0.78730  0.94530  0.72750  1.0000 0.1009150472
H   H19       1.0  0.28730  0.05470  0.27250  1.0000 0.1009150472
H   H20       1.0  0.78730  0.55470  0.22750  1.0000 0.1009150472
H   H21       1.0  0.09470  0.29230  0.75130  1.0000 0.108017041
H   H22       1.0  0.59470  0.79230  0.74870  1.0000 0.108017041
H   H23       1.0  0.09470  0.20770  0.25130  1.0000 0.108017041
H   H24       1.0  0.59470  0.70770  0.24870  1.0000 0.108017041
H   H25       1.0  0.33860  0.41360  0.62410  1.0000 0.1217826017
H   H26       1.0  0.83860  0.91360  0.87590  1.0000 0.1217826017
H   H27       1.0  0.33860  0.08640  0.12410  1.0000 0.1217826017
H   H28       1.0  0.83860  0.58640  0.37590  1.0000 0.1217826017
H   H29       1.0  0.19180  0.34860  0.55120  1.0000 0.1299057443
H   H30       1.0  0.69180  0.84860  0.94880  1.0000 0.1299057443
H   H31       1.0  0.19180  0.15140  0.05120  1.0000 0.1299057443
H   H32       1.0  0.69180  0.65140  0.44880  1.0000 0.1299057443
H   H33       1.0  0.99880  0.26680  0.58070  1.0000 0.108017041
H   H34       1.0  0.49880  0.76680  0.91930  1.0000 0.108017041
H   H35       1.0  0.99880  0.23320  0.08070  1.0000 0.108017041
H   H36       1.0  0.49880  0.73320  0.41930  1.0000 0.108017041
H   H37       1.0  0.88150  0.48930  0.66960  1.0000 0.1009150472
H   H38       1.0  0.38150  0.98930  0.83040  1.0000 0.1009150472
H   H39       1.0  0.88150  0.01070  0.16960  1.0000 0.1009150472
H   H40       1.0  0.38150  0.51070  0.33040  1.0000 0.1009150472
H   H41       1.0  0.82870  0.62460  0.66610  1.0000 0.108017041
H   H42       1.0  0.32870  0.12460  0.83390  1.0000 0.108017041
H   H43       1.0  0.82870  0.87540  0.16610  1.0000 0.108017041
H   H44       1.0  0.32870  0.37540  0.33390  1.0000 0.108017041
H   H45       1.0  0.07900  0.60640  0.76470  1.0000 0.108017041
H   H46       1.0  0.57900  0.10640  0.73530  1.0000 0.108017041
H   H47       1.0  0.07900  0.89360  0.26470  1.0000 0.108017041
H   H48       1.0  0.57900  0.39360  0.23530  1.0000 0.108017041
H   H49       1.0  0.01630  0.63870  0.58850  1.0000 0.1217826017
H   H50       1.0  0.51630  0.13870  0.91150  1.0000 0.1217826017
H   H51       1.0  0.01630  0.86130  0.08850  1.0000 0.1217826017
H   H52       1.0  0.51630  0.36130  0.41150  1.0000 0.1217826017
H   H53       1.0  0.22610  0.71030  0.57640  1.0000 0.1217826017
H   H54       1.0  0.72610  0.21030  0.92360  1.0000 0.1217826017
H   H55       1.0  0.22610  0.78970  0.07640  1.0000 0.1217826017
H   H56       1.0  0.72610  0.28970  0.42360  1.0000 0.1217826017
H   H57       1.0  0.35710  0.72490  0.66100  1.0000 0.1009150472
H   H58       1.0  0.85710  0.22490  0.83900  1.0000 0.1009150472
H   H59       1.0  0.35710  0.77510  0.16100  1.0000 0.1009150472
H   H60       1.0  0.85710  0.27510  0.33900  1.0000 0.1009150472
H   H61       1.0  0.78300  0.44100  0.94040  1.0000 0.1009150472
H   H62       1.0  0.28300  0.94100  0.55960  1.0000 0.1009150472
H   H63       1.0  0.78300  0.05900  0.44040  1.0000 0.1009150472
H   H64       1.0  0.28300  0.55900  0.05960  1.0000 0.1009150472
H   H65       1.0  0.73080  0.56200  0.97110  1.0000 0.108017041
H   H66       1.0  0.23080  0.06200  0.52890  1.0000 0.108017041
H   H67       1.0  0.73080  0.93800  0.47110  1.0000 0.108017041
H   H68       1.0  0.23080  0.43800  0.02890  1.0000 0.108017041
H   H69       1.0  0.82600  0.43660  0.06260  1.0000 0.108017041
H   H70       1.0  0.32600  0.93660  0.43740  1.0000 0.108017041
H   H71       1.0  0.82600  0.06340  0.56260  1.0000 0.108017041
H   H72       1.0  0.32600  0.56340  0.93740  1.0000 0.108017041
H   H73       1.0  0.48820  0.35810  0.98410  1.0000 0.1299057443
H   H74       1.0  0.98820  0.85810  0.51590  1.0000 0.1299057443
H   H75       1.0  0.48820  0.14190  0.48410  1.0000 0.1299057443
H   H76       1.0  0.98820  0.64190  0.01590  1.0000 0.1299057443
H   H77       1.0  0.43270  0.25190  0.07020  1.0000 0.1217826017
H   H78       1.0  0.93270  0.75190  0.42980  1.0000 0.1217826017
H   H79       1.0  0.43270  0.24810  0.57020  1.0000 0.1217826017
H   H80       1.0  0.93270  0.74810  0.92980  1.0000 0.1217826017
H   H81       1.0  0.57740  0.23720  0.14870  1.0000 0.0935515602
H   H82       1.0  0.07740  0.73720  0.35130  1.0000 0.0935515602
H   H83       1.0  0.57740  0.26280  0.64870  1.0000 0.0935515602
H   H84       1.0  0.07740  0.76280  0.85130  1.0000 0.0935515602
C   C1        1.0  0.53560  0.45810  0.76090  1.0000 0.3027777736
C   C2        1.0  0.03560  0.95810  0.73910  1.0000 0.3027777736
C   C3        1.0  0.53560  0.04190  0.26090  1.0000 0.3027777736
C   C4        1.0  0.03560  0.54190  0.23910  1.0000 0.3027777736
C   C5        1.0  0.65260  0.49530  0.73380  1.0000 -0.3891469871
C   C6        1.0  0.15260  0.99530  0.76620  1.0000 -0.3891469871
C   C7        1.0  0.65260  0.00470  0.23380  1.0000 -0.3891469871
C   C8        1.0  0.15260  0.50470  0.26620  1.0000 -0.3891469871
C   C9        1.0  0.75110  0.52870  0.76990  1.0000 0.3027777736
C   C10       1.0  0.25110  0.02870  0.73010  1.0000 0.3027777736
C   C11       1.0  0.75110  0.97130  0.26990  1.0000 0.3027777736
C   C12       1.0  0.25110  0.47130  0.23010  1.0000 0.3027777736
C   C13       1.0  0.74130  0.52490  0.83340  1.0000 -0.3846243258
C   C14       1.0  0.24130  0.02490  0.66667  1.0000 -0.3846243258
C   C15       1.0  0.74130  0.97510  0.33340  1.0000 -0.3891469871
C   C16       1.0  0.24130  0.47510  0.16660  1.0000 -0.3846243258
C   C17       1.0  0.62560  0.48620  0.85720  1.0000 0.2872564261
C   C18       1.0  0.12560  0.98620  0.64280  1.0000 0.2872564261
C   C19       1.0  0.62560  0.01380  0.35720  1.0000 0.2872564261
C   C20       1.0  0.12560  0.51380  0.14280  1.0000 0.2872564261
C   C21       1.0  0.52280  0.45520  0.82277  1.0000 -0.3891469871
C   C22       1.0  0.02280  0.95520  0.67723  1.0000 -0.3891469871
C   C23       1.0  0.52280  0.04480  0.32277  1.0000 -0.3891469871
C   C24       1.0  0.02280  0.54480  0.17723  1.0000 -0.3891469871
C   C25       1.0  0.32460  0.38280  0.74620  1.0000 -0.0810500208
C   C26       1.0  0.82460  0.88280  0.75380  1.0000 -0.0810500208
C   C27       1.0  0.32460  0.11720  0.24620  1.0000 -0.0810500208
C   C28       1.0  0.82460  0.61720  0.25380  1.0000 -0.0810500208
C   C29       1.0  0.11510  0.30440  0.71017  1.0000 0.0085727133
C   C30       1.0  0.61510  0.80440  0.78983  1.0000 0.0085727133
C   C31       1.0  0.11510  0.19560  0.21017  1.0000 0.0085727133
C   C32       1.0  0.61510  0.69560  0.28983  1.0000 0.0085727133
C   C33       1.0  0.23350  0.35460  0.69570  1.0000 0.0583258763
C   C34       1.0  0.73350  0.85460  0.80430  1.0000 0.0583258763
C   C35       1.0  0.23350  0.14540  0.19570  1.0000 0.0583258763
C   C36       1.0  0.73350  0.64540  0.30430  1.0000 0.0583258763
C   C37       1.0  0.26080  0.37530  0.63560  1.0000 -0.0998533882
C   C38       1.0  0.76080  0.87530  0.86440  1.0000 -0.0998533882
C   C39       1.0  0.26080  0.12470  0.13560  1.0000 -0.0998533882
C   C40       1.0  0.76080  0.62470  0.36440  1.0000 -0.0998533882
C   C41       1.0  0.17310  0.33920  0.59270  1.0000 -0.1386965412
C   C42       1.0  0.67310  0.83920  0.90730  1.0000 -0.1386965412
C   C43       1.0  0.17310  0.16080  0.09270  1.0000 -0.1386965412
C   C44       1.0  0.67310  0.66080  0.40730  1.0000 -0.1386965412
C   C45       1.0  0.05910  0.28980  0.61060  1.0000 0.0426107243
C   C46       1.0  0.55910  0.78980  0.88940  1.0000 0.0426107243
C   C47       1.0  0.05910  0.21020  0.11060  1.0000 0.0426107243
C   C48       1.0  0.55910  0.71020  0.38940  1.0000 0.0426107243
C   C49       1.0  0.89050  0.57100  0.68653  1.0000 -0.0810500208
C   C50       1.0  0.39050  0.07100  0.81347  1.0000 -0.0810500208
C   C51       1.0  0.89050  0.92900  0.18653  1.0000 -0.0810500208
C   C52       1.0  0.39050  0.42900  0.31347  1.0000 -0.0810500208
C   C53       1.0  0.10880  0.62820  0.72580  1.0000 -0.0143565453
C   C54       1.0  0.60880  0.12820  0.77420  1.0000 -0.0143565453
C   C55       1.0  0.10880  0.87180  0.22580  1.0000 -0.0143565453
C   C56       1.0  0.60880  0.37180  0.27420  1.0000 -0.0143565453
C   C57       1.0  0.02520  0.61590  0.67820  1.0000 0.0583258763
C   C58       1.0  0.52520  0.11590  0.82180  1.0000 0.0583258763
C   C59       1.0  0.02520  0.88410  0.17820  1.0000 0.0583258763
C   C60       1.0  0.52520  0.38410  0.32180  1.0000 0.0583258763
C   C61       1.0  0.07080  0.64650  0.62250  1.0000 -0.1083721753
C   C62       1.0  0.57080  0.14650  0.87750  1.0000 -0.1083721753
C   C63       1.0  0.07080  0.85350  0.12250  1.0000 -0.1083721753
C   C64       1.0  0.57080  0.35350  0.37750  1.0000 -0.1083721753
C   C65       1.0  0.19470  0.68850  0.61490  1.0000 -0.1277934696
C   C66       1.0  0.69470  0.18850  0.88510  1.0000 -0.1277934696
C   C67       1.0  0.19470  0.81150  0.11490  1.0000 -0.1277934696
C   C68       1.0  0.69470  0.31150  0.38510  1.0000 -0.1277934696
C   C69       1.0  0.27130  0.69740  0.66560  1.0000 0.0426107243
C   C70       1.0  0.77130  0.19740  0.83440  1.0000 0.0426107243
C   C71       1.0  0.27130  0.80260  0.16560  1.0000 0.0426107243
C   C72       1.0  0.77130  0.30260  0.33440  1.0000 0.0426107243
C   C73       1.0  0.70730  0.47930  0.95936  1.0000 -0.0676365952
C   C74       1.0  0.20730  0.97930  0.54064  1.0000 -0.0676365952
C   C75       1.0  0.70730  0.02070  0.45936  1.0000 -0.0676365952
C   C76       1.0  0.20730  0.52070  0.04064  1.0000 -0.0676365952
C   C77       1.0  0.74500  0.39750  0.06350  1.0000 0.0199545281
C   C78       1.0  0.24500  0.89750  0.43650  1.0000 0.0199545281
C   C79       1.0  0.74500  0.10250  0.56350  1.0000 0.0199545281
C   C80       1.0  0.24500  0.60250  0.93650  1.0000 0.0199545281
C   C81       1.0  0.66580  0.40940  0.01307  1.0000 0.0499668185
C   C82       1.0  0.16580  0.90940  0.48693  1.0000 0.0499668185
C   C83       1.0  0.66580  0.09060  0.51307  1.0000 0.0499668185
C   C84       1.0  0.16580  0.59060  0.98693  1.0000 0.0499668185
C   C85       1.0  0.54680  0.35300  0.01670  1.0000 -0.0891445513
C   C86       1.0  0.04680  0.85300  0.48330  1.0000 -0.0891445513
C   C87       1.0  0.54680  0.14700  0.51670  1.0000 -0.0891445513
C   C88       1.0  0.04680  0.64700  0.98330  1.0000 -0.0891445513
C   C89       1.0  0.51410  0.28990  0.06740  1.0000 -0.1386965412
C   C90       1.0  0.01410  0.78990  0.43260  1.0000 -0.1386965412
C   C91       1.0  0.51410  0.21010  0.56740  1.0000 -0.1386965412
C   C92       1.0  0.01410  0.71010  0.93260  1.0000 -0.1386965412
C   C93       1.0  0.60050  0.28220  0.11410  1.0000 0.0499668185
C   C94       1.0  0.10050  0.78220  0.38590  1.0000 0.0499668185
C   C95       1.0  0.60050  0.21780  0.61410  1.0000 0.0499668185
C   C96       1.0  0.10050  0.71780  0.88590  1.0000 0.0499668185
N   N1        1.0  0.02890  0.27230  0.66871  1.0000 -0.1901423979
N   N2        1.0  0.52890  0.77230  0.83129  1.0000 -0.1901423979
N   N3        1.0  0.02890  0.22770  0.16871  1.0000 -0.1901423979
N   N4        1.0  0.52890  0.72770  0.33129  1.0000 -0.1901423979
N   N5        1.0  0.22970  0.66900  0.72084  1.0000 -0.1901423979
N   N6        1.0  0.72970  0.16900  0.77916  1.0000 -0.1901423979
N   N7        1.0  0.22970  0.83100  0.22084  1.0000 -0.1901423979
N   N8        1.0  0.72970  0.33100  0.27916  1.0000 -0.1901423979
N   N9        1.0  0.71560  0.33550  0.11283  1.0000 -0.2118428584
N   N10       1.0  0.21560  0.83550  0.38717  1.0000 -0.2118428584
N   N11       1.0  0.71560  0.16450  0.61283  1.0000 -0.2118428584
N   N12       1.0  0.21560  0.66450  0.88717  1.0000 -0.2118428584
Cl  Cl1       1.0  0.11274  0.21560  0.40920  1.0000 1.2519998614
Cl  Cl2       1.0  0.61274  0.71560  0.09080  1.0000 1.2519998614
Cl  Cl3       1.0  0.11274  0.28440  0.90920  1.0000 1.2519998614
Cl  Cl4       1.0  0.61274  0.78440  0.59080  1.0000 1.2519998614
O   O1        1.0  0.44160  0.42380  0.72152  1.0000 -0.1901423979
O   O2        1.0  0.94160  0.92380  0.77848  1.0000 -0.1901423979
O   O3        1.0  0.44160  0.07620  0.22152  1.0000 -0.1901423979
O   O4        1.0  0.94160  0.57620  0.27848  1.0000 -0.1901423979
O   O5        1.0  0.86700  0.56950  0.75012  1.0000 -0.1996250964
O   O6        1.0  0.36700  0.06950  0.74988  1.0000 -0.1996250964
O   O7        1.0  0.86700  0.93050  0.25012  1.0000 -0.1996250964
O   O8        1.0  0.36700  0.43050  0.24988  1.0000 -0.1996250964
O   O9        1.0  0.60290  0.48080  0.91903  1.0000 -0.1996250964
O   O10       1.0  0.10290  0.98080  0.58097  1.0000 -0.1996250964
O   O11       1.0  0.60290  0.01920  0.41903  1.0000 -0.1996250964
O   O12       1.0  0.10290  0.51920  0.08097  1.0000 -0.1996250964
O   O13       1.0  0.09010  0.33240  0.38870  1.0000 -0.469833323
O   O14       1.0  0.08550  0.13350  0.36310  1.0000 -0.4764640267
O   O15       1.0  0.24090  0.20310  0.42890  1.0000 -0.4912790741
O   O16       1.0  0.03020  0.19020  0.45570  1.0000 -0.4610855665
O   O17       1.0  0.59010  0.83240  0.11130  1.0000 -0.469833323
O   O18       1.0  0.58550  0.63350  0.13690  1.0000 -0.4764640267
O   O19       1.0  0.74090  0.70310  0.07110  1.0000 -0.4912790741
O   O20       1.0  0.53020  0.69020  0.04430  1.0000 -0.4610855665
O   O21       1.0  0.09010  0.16760  0.88870  1.0000 -0.469833323
O   O22       1.0  0.08550  0.36650  0.86310  1.0000 -0.4764640267
O   O23       1.0  0.24090  0.29690  0.92890  1.0000 -0.4912790741
O   O24       1.0  0.03020  0.30980  0.95570  1.0000 -0.4610855665
O   O25       1.0  0.59010  0.66760  0.61130  1.0000 -0.469833323
O   O26       1.0  0.58550  0.86650  0.63690  1.0000 -0.4764640267
O   O27       1.0  0.74090  0.79690  0.57110  1.0000 -0.4912790741
O   O28       1.0  0.53020  0.80980  0.54430  1.0000 -0.4610855665
