# DDEC6 charges by PACMAN v1.1 (https://github.com/mtap-research/PACMAN-charge/)
data_2010[Cu][srs]3[ION]1
_chemical_formula_sum              "Cu24 H176 C200 S8 N72 O32 F24"
_cell_length_a       18.853
_cell_length_b       18.853
_cell_length_c       20.639
_cell_angle_alpha    90
_cell_angle_beta     90
_cell_angle_gamma    90

_symmetry_space_group_name_H-M    "P 1"
_symmetry_Int_Tables_number       1

loop_
  _symmetry_equiv_pos_as_xyz
  'x, y, z'

loop_
  _atom_site_type_symbol
  _atom_site_label
  _atom_site_symmetry_multiplicity
  _atom_site_fract_x
  _atom_site_fract_y
  _atom_site_fract_z
  _atom_site_occupancy
  _atom_site_charge
Cu  Cu1       1.0  0.78151  0.57189  0.64776  1.0000 0.6408749932
Cu  Cu2       1.0  0.42811  0.78151  0.14776  1.0000 0.6408749932
Cu  Cu3       1.0  0.21849  0.42811  0.64776  1.0000 0.6408749932
Cu  Cu4       1.0  0.57189  0.21849  0.14776  1.0000 0.6408749932
Cu  Cu5       1.0  0.86219  0.69834  0.73151  1.0000 0.6463140735
Cu  Cu6       1.0  0.30166  0.86219  0.23151  1.0000 0.6463140735
Cu  Cu7       1.0  0.13781  0.30166  0.73151  1.0000 0.6463140735
Cu  Cu8       1.0  0.69834  0.13781  0.23151  1.0000 0.6463140735
Cu  Cu9       1.0  0.93378  0.64625  0.59561  1.0000 0.6263996029
Cu  Cu10      1.0  0.35375  0.93378  0.09561  1.0000 0.6263996029
Cu  Cu11      1.0  0.06622  0.35375  0.59561  1.0000 0.6263996029
Cu  Cu12      1.0  0.64625  0.06622  0.09561  1.0000 0.6263996029
Cu  Cu13      1.0  0.71849  0.07189  0.64776  1.0000 0.6408749932
Cu  Cu14      1.0  0.92811  0.71849  0.14776  1.0000 0.6408749932
Cu  Cu15      1.0  0.28151  0.92811  0.64776  1.0000 0.6408749932
Cu  Cu16      1.0  0.07189  0.28151  0.14776  1.0000 0.6408749932
Cu  Cu17      1.0  0.63781  0.19834  0.73151  1.0000 0.6463140735
Cu  Cu18      1.0  0.80166  0.63781  0.23151  1.0000 0.6463140735
Cu  Cu19      1.0  0.36219  0.80166  0.73151  1.0000 0.6463140735
Cu  Cu20      1.0  0.19834  0.36219  0.23151  1.0000 0.6463140735
Cu  Cu21      1.0  0.56622  0.14625  0.59561  1.0000 0.6263996029
Cu  Cu22      1.0  0.85375  0.56622  0.09561  1.0000 0.6263996029
Cu  Cu23      1.0  0.43378  0.85375  0.59561  1.0000 0.6263996029
Cu  Cu24      1.0  0.14625  0.43378  0.09561  1.0000 0.6263996029
H   H1        1.0  0.90070  0.58150  0.69400  1.0000 0.3697283009
H   H2        1.0  0.41850  0.90070  0.19400  1.0000 0.3697283009
H   H3        1.0  0.09930  0.41850  0.69400  1.0000 0.3697283009
H   H4        1.0  0.58150  0.09930  0.19400  1.0000 0.3697283009
H   H5        1.0  0.76240  0.68760  0.85620  1.0000 0.1012557726
H   H6        1.0  0.31240  0.76240  0.35620  1.0000 0.1012557726
H   H7        1.0  0.23760  0.31240  0.85620  1.0000 0.1012557726
H   H8        1.0  0.68760  0.23760  0.35620  1.0000 0.1012557726
H   H9        1.0  0.67360  0.59010  0.87080  1.0000 0.1205491254
H   H10       1.0  0.40990  0.67360  0.37080  1.0000 0.1205491254
H   H11       1.0  0.32640  0.40990  0.87080  1.0000 0.1205491254
H   H12       1.0  0.59010  0.32640  0.37080  1.0000 0.1205491254
H   H13       1.0  0.67450  0.52640  0.77030  1.0000 0.1205491254
H   H14       1.0  0.47360  0.67450  0.27030  1.0000 0.1205491254
H   H15       1.0  0.32550  0.47360  0.77030  1.0000 0.1205491254
H   H16       1.0  0.52640  0.32550  0.27030  1.0000 0.1205491254
H   H17       1.0  0.08680  0.71420  0.62520  1.0000 0.1205491254
H   H18       1.0  0.28580  0.08680  0.12520  1.0000 0.1205491254
H   H19       1.0  0.91320  0.28580  0.62520  1.0000 0.1205491254
H   H20       1.0  0.71420  0.91320  0.12520  1.0000 0.1205491254
H   H21       1.0  0.11450  0.78310  0.72610  1.0000 0.1350727642
H   H22       1.0  0.21690  0.11450  0.22610  1.0000 0.1350727642
H   H23       1.0  0.88550  0.21690  0.72610  1.0000 0.1350727642
H   H24       1.0  0.78310  0.88550  0.22610  1.0000 0.1350727642
H   H25       1.0  0.00020  0.78850  0.78120  1.0000 0.1088640566
H   H26       1.0  0.21150  0.00020  0.28120  1.0000 0.1088640566
H   H27       1.0  0.99980  0.21150  0.78120  1.0000 0.1088640566
H   H28       1.0  0.78850  0.99980  0.28120  1.0000 0.1088640566
H   H29       1.0  0.74480  0.49450  0.51360  1.0000 0.1088640566
H   H30       1.0  0.50550  0.74480  0.01360  1.0000 0.1088640566
H   H31       1.0  0.25520  0.50550  0.51360  1.0000 0.1088640566
H   H32       1.0  0.49450  0.25520  0.01360  1.0000 0.1088640566
H   H33       1.0  0.81860  0.50880  0.41650  1.0000 0.1303095891
H   H34       1.0  0.49120  0.81860  0.91650  1.0000 0.1303095891
H   H35       1.0  0.18140  0.49120  0.41650  1.0000 0.1303095891
H   H36       1.0  0.50880  0.18140  0.91650  1.0000 0.1303095891
H   H37       1.0  0.91790  0.59370  0.44930  1.0000 0.1012557726
H   H38       1.0  0.40630  0.91790  0.94930  1.0000 0.1012557726
H   H39       1.0  0.08210  0.40630  0.44930  1.0000 0.1012557726
H   H40       1.0  0.59370  0.08210  0.94930  1.0000 0.1012557726
H   H41       1.0  0.75090  0.81150  0.73410  1.0000 0.1088640566
H   H42       1.0  0.18850  0.75090  0.23410  1.0000 0.1088640566
H   H43       1.0  0.24910  0.18850  0.73410  1.0000 0.1088640566
H   H44       1.0  0.81150  0.24910  0.23410  1.0000 0.1088640566
H   H45       1.0  0.70170  0.88890  0.80900  1.0000 0.1303095891
H   H46       1.0  0.11110  0.70170  0.30900  1.0000 0.1303095891
H   H47       1.0  0.29830  0.11110  0.80900  1.0000 0.1303095891
H   H48       1.0  0.88890  0.29830  0.30900  1.0000 0.1303095891
H   H49       1.0  0.86030  0.84580  0.93300  1.0000 0.1303095891
H   H50       1.0  0.15420  0.86030  0.43300  1.0000 0.1303095891
H   H51       1.0  0.13970  0.15420  0.93300  1.0000 0.1303095891
H   H52       1.0  0.84580  0.13970  0.43300  1.0000 0.1303095891
H   H53       1.0  0.90950  0.76840  0.85810  1.0000 0.0914390722
H   H54       1.0  0.23160  0.90950  0.35810  1.0000 0.0914390722
H   H55       1.0  0.09050  0.23160  0.85810  1.0000 0.0914390722
H   H56       1.0  0.76840  0.09050  0.35810  1.0000 0.0914390722
H   H57       1.0  0.83250  0.96690  0.95510  1.0000 0.1303095891
H   H58       1.0  0.03310  0.83250  0.45510  1.0000 0.1303095891
H   H59       1.0  0.16750  0.03310  0.95510  1.0000 0.1303095891
H   H60       1.0  0.96690  0.16750  0.45510  1.0000 0.1303095891
H   H61       1.0  0.78290  0.03890  0.03420  1.0000 0.0914390722
H   H62       1.0  0.96110  0.78290  0.53420  1.0000 0.0914390722
H   H63       1.0  0.21710  0.96110  0.03420  1.0000 0.0914390722
H   H64       1.0  0.03890  0.21710  0.53420  1.0000 0.0914390722
H   H65       1.0  0.59120  0.95470  0.99790  1.0000 0.1012557726
H   H66       1.0  0.04530  0.59120  0.49790  1.0000 0.1012557726
H   H67       1.0  0.40880  0.04530  0.99790  1.0000 0.1012557726
H   H68       1.0  0.95470  0.40880  0.49790  1.0000 0.1012557726
H   H69       1.0  0.64080  0.88270  0.91880  1.0000 0.1303095891
H   H70       1.0  0.11730  0.64080  0.41880  1.0000 0.1303095891
H   H71       1.0  0.35920  0.11730  0.91880  1.0000 0.1303095891
H   H72       1.0  0.88270  0.35920  0.41880  1.0000 0.1303095891
H   H73       1.0  0.65160  0.63760  0.59990  1.0000 0.1205491254
H   H74       1.0  0.36240  0.65160  0.09990  1.0000 0.1205491254
H   H75       1.0  0.34840  0.36240  0.59990  1.0000 0.1205491254
H   H76       1.0  0.63760  0.34840  0.09990  1.0000 0.1205491254
H   H77       1.0  0.53130  0.61240  0.59460  1.0000 0.1205491254
H   H78       1.0  0.38760  0.53130  0.09460  1.0000 0.1205491254
H   H79       1.0  0.46870  0.38760  0.59460  1.0000 0.1205491254
H   H80       1.0  0.61240  0.46870  0.09460  1.0000 0.1205491254
H   H81       1.0  0.57070  0.41100  0.64710  1.0000 0.1303095891
H   H82       1.0  0.58900  0.57070  0.14710  1.0000 0.1303095891
H   H83       1.0  0.42930  0.58900  0.64710  1.0000 0.1303095891
H   H84       1.0  0.41100  0.42930  0.14710  1.0000 0.1303095891
H   H85       1.0  0.69100  0.43620  0.65240  1.0000 0.1088640566
H   H86       1.0  0.56380  0.69100  0.15240  1.0000 0.1088640566
H   H87       1.0  0.30900  0.56380  0.65240  1.0000 0.1088640566
H   H88       1.0  0.43620  0.30900  0.15240  1.0000 0.1088640566
H   H89       1.0  0.59930  0.08150  0.69400  1.0000 0.3697283009
H   H90       1.0  0.91850  0.59930  0.19400  1.0000 0.3697283009
H   H91       1.0  0.40070  0.91850  0.69400  1.0000 0.3697283009
H   H92       1.0  0.08150  0.40070  0.19400  1.0000 0.3697283009
H   H93       1.0  0.73760  0.18760  0.85620  1.0000 0.1012557726
H   H94       1.0  0.81240  0.73760  0.35620  1.0000 0.1012557726
H   H95       1.0  0.26240  0.81240  0.85620  1.0000 0.1012557726
H   H96       1.0  0.18760  0.26240  0.35620  1.0000 0.1012557726
H   H97       1.0  0.82640  0.09010  0.87080  1.0000 0.1205491254
H   H98       1.0  0.90990  0.82640  0.37080  1.0000 0.1205491254
H   H99       1.0  0.17360  0.90990  0.87080  1.0000 0.1205491254
H   H100      1.0  0.09010  0.17360  0.37080  1.0000 0.1205491254
H   H101      1.0  0.82550  0.02640  0.77030  1.0000 0.1205491254
H   H102      1.0  0.97360  0.82550  0.27030  1.0000 0.1205491254
H   H103      1.0  0.17450  0.97360  0.77030  1.0000 0.1205491254
H   H104      1.0  0.02640  0.17450  0.27030  1.0000 0.1205491254
H   H105      1.0  0.41320  0.21420  0.62520  1.0000 0.1205491254
H   H106      1.0  0.78580  0.41320  0.12520  1.0000 0.1205491254
H   H107      1.0  0.58680  0.78580  0.62520  1.0000 0.1205491254
H   H108      1.0  0.21420  0.58680  0.12520  1.0000 0.1205491254
H   H109      1.0  0.38550  0.28310  0.72610  1.0000 0.1350727642
H   H110      1.0  0.71690  0.38550  0.22610  1.0000 0.1350727642
H   H111      1.0  0.61450  0.71690  0.72610  1.0000 0.1350727642
H   H112      1.0  0.28310  0.61450  0.22610  1.0000 0.1350727642
H   H113      1.0  0.49980  0.28850  0.78120  1.0000 0.1088640566
H   H114      1.0  0.71150  0.49980  0.28120  1.0000 0.1088640566
H   H115      1.0  0.50020  0.71150  0.78120  1.0000 0.1088640566
H   H116      1.0  0.28850  0.50020  0.28120  1.0000 0.1088640566
H   H117      1.0  0.75520  0.99450  0.51360  1.0000 0.1088640566
H   H118      1.0  0.00550  0.75520  0.01360  1.0000 0.1088640566
H   H119      1.0  0.24480  0.00550  0.51360  1.0000 0.1088640566
H   H120      1.0  0.99450  0.24480  0.01360  1.0000 0.1088640566
H   H121      1.0  0.68140  0.00880  0.41650  1.0000 0.1303095891
H   H122      1.0  0.99120  0.68140  0.91650  1.0000 0.1303095891
H   H123      1.0  0.31860  0.99120  0.41650  1.0000 0.1303095891
H   H124      1.0  0.00880  0.31860  0.91650  1.0000 0.1303095891
H   H125      1.0  0.58210  0.09370  0.44930  1.0000 0.1012557726
H   H126      1.0  0.90630  0.58210  0.94930  1.0000 0.1012557726
H   H127      1.0  0.41790  0.90630  0.44930  1.0000 0.1012557726
H   H128      1.0  0.09370  0.41790  0.94930  1.0000 0.1012557726
H   H129      1.0  0.74910  0.31150  0.73410  1.0000 0.1088640566
H   H130      1.0  0.68850  0.74910  0.23410  1.0000 0.1088640566
H   H131      1.0  0.25090  0.68850  0.73410  1.0000 0.1088640566
H   H132      1.0  0.31150  0.25090  0.23410  1.0000 0.1088640566
H   H133      1.0  0.79830  0.38890  0.80900  1.0000 0.1303095891
H   H134      1.0  0.61110  0.79830  0.30900  1.0000 0.1303095891
H   H135      1.0  0.20170  0.61110  0.80900  1.0000 0.1303095891
H   H136      1.0  0.38890  0.20170  0.30900  1.0000 0.1303095891
H   H137      1.0  0.63970  0.34580  0.93300  1.0000 0.1303095891
H   H138      1.0  0.65420  0.63970  0.43300  1.0000 0.1303095891
H   H139      1.0  0.36030  0.65420  0.93300  1.0000 0.1303095891
H   H140      1.0  0.34580  0.36030  0.43300  1.0000 0.1303095891
H   H141      1.0  0.59050  0.26840  0.85810  1.0000 0.0914390722
H   H142      1.0  0.73160  0.59050  0.35810  1.0000 0.0914390722
H   H143      1.0  0.40950  0.73160  0.85810  1.0000 0.0914390722
H   H144      1.0  0.26840  0.40950  0.35810  1.0000 0.0914390722
H   H145      1.0  0.66750  0.46690  0.95510  1.0000 0.1303095891
H   H146      1.0  0.53310  0.66750  0.45510  1.0000 0.1303095891
H   H147      1.0  0.33250  0.53310  0.95510  1.0000 0.1303095891
H   H148      1.0  0.46690  0.33250  0.45510  1.0000 0.1303095891
H   H149      1.0  0.71710  0.53890  0.03420  1.0000 0.0914390722
H   H150      1.0  0.46110  0.71710  0.53420  1.0000 0.0914390722
H   H151      1.0  0.28290  0.46110  0.03420  1.0000 0.0914390722
H   H152      1.0  0.53890  0.28290  0.53420  1.0000 0.0914390722
H   H153      1.0  0.90880  0.45470  0.99790  1.0000 0.1012557726
H   H154      1.0  0.54530  0.90880  0.49790  1.0000 0.1012557726
H   H155      1.0  0.09120  0.54530  0.99790  1.0000 0.1012557726
H   H156      1.0  0.45470  0.09120  0.49790  1.0000 0.1012557726
H   H157      1.0  0.85920  0.38270  0.91880  1.0000 0.1303095891
H   H158      1.0  0.61730  0.85920  0.41880  1.0000 0.1303095891
H   H159      1.0  0.14080  0.61730  0.91880  1.0000 0.1303095891
H   H160      1.0  0.38270  0.14080  0.41880  1.0000 0.1303095891
H   H161      1.0  0.84840  0.13760  0.59990  1.0000 0.1205491254
H   H162      1.0  0.86240  0.84840  0.09990  1.0000 0.1205491254
H   H163      1.0  0.15160  0.86240  0.59990  1.0000 0.1205491254
H   H164      1.0  0.13760  0.15160  0.09990  1.0000 0.1205491254
H   H165      1.0  0.96870  0.11240  0.59460  1.0000 0.1205491254
H   H166      1.0  0.88760  0.96870  0.09460  1.0000 0.1205491254
H   H167      1.0  0.03130  0.88760  0.59460  1.0000 0.1205491254
H   H168      1.0  0.11240  0.03130  0.09460  1.0000 0.1205491254
H   H169      1.0  0.92930  0.91100  0.64710  1.0000 0.1303095891
H   H170      1.0  0.08900  0.92930  0.14710  1.0000 0.1303095891
H   H171      1.0  0.07070  0.08900  0.64710  1.0000 0.1303095891
H   H172      1.0  0.91100  0.07070  0.14710  1.0000 0.1303095891
H   H173      1.0  0.80900  0.93620  0.65240  1.0000 0.1088640566
H   H174      1.0  0.06380  0.80900  0.15240  1.0000 0.1088640566
H   H175      1.0  0.19100  0.06380  0.65240  1.0000 0.1088640566
H   H176      1.0  0.93620  0.19100  0.15240  1.0000 0.1088640566
C   C1        1.0  0.75100  0.65320  0.82570  1.0000 -0.0082172003
C   C2        1.0  0.34680  0.75100  0.32570  1.0000 -0.0082172003
C   C3        1.0  0.24900  0.34680  0.82570  1.0000 -0.0082172003
C   C4        1.0  0.65320  0.24900  0.32570  1.0000 -0.0082172003
C   C5        1.0  0.70120  0.59960  0.83440  1.0000 -0.1981782794
C   C6        1.0  0.40040  0.70120  0.33440  1.0000 -0.1981782794
C   C7        1.0  0.29880  0.40040  0.83440  1.0000 -0.1981782794
C   C8        1.0  0.59960  0.29880  0.33440  1.0000 -0.1981782794
C   C9        1.0  0.70250  0.56590  0.77900  1.0000 -0.0490216052
C   C10       1.0  0.43410  0.70250  0.27900  1.0000 -0.0490216052
C   C11       1.0  0.29750  0.43410  0.77900  1.0000 -0.0490216052
C   C12       1.0  0.56590  0.29750  0.27900  1.0000 -0.0490216052
C   C13       1.0  0.05490  0.72300  0.65860  1.0000 0.0576407378
C   C14       1.0  0.27700  0.05490  0.15860  1.0000 0.0576407378
C   C15       1.0  0.94510  0.27700  0.65860  1.0000 0.0576407378
C   C16       1.0  0.72300  0.94510  0.15860  1.0000 0.0576407378
C   C17       1.0  0.07160  0.76310  0.71340  1.0000 -0.2355238235
C   C18       1.0  0.23690  0.07160  0.21340  1.0000 -0.2355238235
C   C19       1.0  0.92840  0.23690  0.71340  1.0000 -0.2349414414
C   C20       1.0  0.76310  0.92840  0.21340  1.0000 -0.2349414414
C   C21       1.0  0.00840  0.76470  0.74250  1.0000 -0.0226960701
C   C22       1.0  0.23530  0.00840  0.24250  1.0000 -0.0226960701
C   C23       1.0  0.99160  0.23530  0.74250  1.0000 -0.0226960701
C   C24       1.0  0.76470  0.99160  0.24250  1.0000 -0.0226960701
C   C25       1.0  0.78560  0.52200  0.51030  1.0000 -0.0363582036
C   C26       1.0  0.47800  0.78560  0.01030  1.0000 -0.0363582036
C   C27       1.0  0.21440  0.47800  0.51030  1.0000 -0.0363582036
C   C28       1.0  0.52200  0.21440  0.01030  1.0000 -0.0363582036
C   C29       1.0  0.82580  0.52950  0.45680  1.0000 -0.2170036769
C   C30       1.0  0.47050  0.82580  0.95680  1.0000 -0.2170036769
C   C31       1.0  0.17420  0.47050  0.45680  1.0000 -0.2170036769
C   C32       1.0  0.52950  0.17420  0.95680  1.0000 -0.2170036769
C   C33       1.0  0.88190  0.57630  0.47560  1.0000 -0.0286409364
C   C34       1.0  0.42370  0.88190  0.97560  1.0000 -0.0286409364
C   C35       1.0  0.11810  0.42370  0.47560  1.0000 -0.0286409364
C   C36       1.0  0.57630  0.11810  0.97560  1.0000 -0.0286409364
C   C37       1.0  0.77290  0.81840  0.77400  1.0000 0.0694797935
C   C38       1.0  0.18160  0.77290  0.27400  1.0000 0.0694797935
C   C39       1.0  0.22710  0.18160  0.77400  1.0000 0.0694797935
C   C40       1.0  0.81840  0.22710  0.27400  1.0000 0.0694797935
C   C41       1.0  0.74340  0.86470  0.81890  1.0000 -0.1890086511
C   C42       1.0  0.13530  0.74340  0.31890  1.0000 -0.1890086511
C   C43       1.0  0.25660  0.13530  0.81890  1.0000 -0.1890086511
C   C44       1.0  0.86470  0.25660  0.31890  1.0000 -0.1890086511
C   C45       1.0  0.77610  0.87500  0.87850  1.0000 0.0914390722
C   C46       1.0  0.12500  0.77610  0.37850  1.0000 0.0914390722
C   C47       1.0  0.22390  0.12500  0.87850  1.0000 0.0914390722
C   C48       1.0  0.87500  0.22390  0.37850  1.0000 0.0914390722
C   C49       1.0  0.83840  0.83890  0.89320  1.0000 -0.1890086511
C   C50       1.0  0.16110  0.83840  0.39320  1.0000 -0.1890086511
C   C51       1.0  0.16160  0.16110  0.89320  1.0000 -0.1890086511
C   C52       1.0  0.83890  0.16160  0.39320  1.0000 -0.1890086511
C   C53       1.0  0.86790  0.79260  0.84820  1.0000 0.0576407378
C   C54       1.0  0.20740  0.86790  0.34820  1.0000 0.0576407378
C   C55       1.0  0.13210  0.20740  0.84820  1.0000 0.0576407378
C   C56       1.0  0.79260  0.13210  0.34820  1.0000 0.0576407378
C   C57       1.0  0.74160  0.91760  0.92910  1.0000 0.1012557726
C   C58       1.0  0.08240  0.74160  0.42910  1.0000 0.1012557726
C   C59       1.0  0.25840  0.08240  0.92910  1.0000 0.1012557726
C   C60       1.0  0.91760  0.25840  0.42910  1.0000 0.1012557726
C   C61       1.0  0.78410  0.96450  0.96370  1.0000 -0.1890086511
C   C62       1.0  0.03550  0.78410  0.46370  1.0000 -0.1890086511
C   C63       1.0  0.21590  0.03550  0.96370  1.0000 -0.1890086511
C   C64       1.0  0.96450  0.21590  0.46370  1.0000 -0.1890086511
C   C65       1.0  0.75440  0.00760  0.01110  1.0000 0.0576407378
C   C66       1.0  0.99240  0.75440  0.51110  1.0000 0.0576407378
C   C67       1.0  0.24560  0.99240  0.01110  1.0000 0.0576407378
C   C68       1.0  0.00760  0.24560  0.51110  1.0000 0.0576407378
C   C69       1.0  0.63960  0.95710  0.98930  1.0000 0.0576407378
C   C70       1.0  0.04290  0.63960  0.48930  1.0000 0.0576407378
C   C71       1.0  0.36040  0.04290  0.98930  1.0000 0.0576407378
C   C72       1.0  0.95710  0.36040  0.48930  1.0000 0.0576407378
C   C73       1.0  0.66930  0.91400  0.94200  1.0000 -0.1890086511
C   C74       1.0  0.08600  0.66930  0.44200  1.0000 -0.1890086511
C   C75       1.0  0.33070  0.08600  0.94200  1.0000 -0.1890086511
C   C76       1.0  0.91400  0.33070  0.44200  1.0000 -0.1890086511
C   C77       1.0  0.63540  0.59220  0.60940  1.0000 0.0694797935
C   C78       1.0  0.40780  0.63540  0.10940  1.0000 0.0694797935
C   C79       1.0  0.36460  0.40780  0.60940  1.0000 0.0694797935
C   C80       1.0  0.59220  0.36460  0.10940  1.0000 0.0694797935
C   C81       1.0  0.56330  0.57710  0.60620  1.0000 -0.1981782794
C   C82       1.0  0.42290  0.56330  0.10620  1.0000 -0.1981782794
C   C83       1.0  0.43670  0.42290  0.60620  1.0000 -0.1981782794
C   C84       1.0  0.57710  0.43670  0.10620  1.0000 -0.1981782794
C   C85       1.0  0.53910  0.50920  0.62030  1.0000 0.1012557726
C   C86       1.0  0.49080  0.53910  0.12030  1.0000 0.1012557726
C   C87       1.0  0.46090  0.49080  0.62030  1.0000 0.1012557726
C   C88       1.0  0.50920  0.46090  0.12030  1.0000 0.1012557726
C   C89       1.0  0.58690  0.45640  0.63760  1.0000 -0.1890086511
C   C90       1.0  0.54360  0.58690  0.13760  1.0000 -0.1890086511
C   C91       1.0  0.41310  0.54360  0.63760  1.0000 -0.1890086511
C   C92       1.0  0.45640  0.41310  0.13760  1.0000 -0.1890086511
C   C93       1.0  0.65900  0.47150  0.64080  1.0000 0.0576407378
C   C94       1.0  0.52850  0.65900  0.14080  1.0000 0.0576407378
C   C95       1.0  0.34100  0.52850  0.64080  1.0000 0.0576407378
C   C96       1.0  0.47150  0.34100  0.14080  1.0000 0.0576407378
C   C97       1.0  0.74900  0.15320  0.82570  1.0000 -0.0082172003
C   C98       1.0  0.84680  0.74900  0.32570  1.0000 -0.0082172003
C   C99       1.0  0.25100  0.84680  0.82570  1.0000 -0.0082172003
C   C100      1.0  0.15320  0.25100  0.32570  1.0000 -0.0082172003
C   C101      1.0  0.79880  0.09960  0.83440  1.0000 -0.1981782794
C   C102      1.0  0.90040  0.79880  0.33440  1.0000 -0.1981782794
C   C103      1.0  0.20120  0.90040  0.83440  1.0000 -0.1981782794
C   C104      1.0  0.09960  0.20120  0.33440  1.0000 -0.1981782794
C   C105      1.0  0.79750  0.06590  0.77900  1.0000 -0.0490216052
C   C106      1.0  0.93410  0.79750  0.27900  1.0000 -0.0490216052
C   C107      1.0  0.20250  0.93410  0.77900  1.0000 -0.0490216052
C   C108      1.0  0.06590  0.20250  0.27900  1.0000 -0.0490216052
C   C109      1.0  0.44510  0.22300  0.65860  1.0000 0.0576407378
C   C110      1.0  0.77700  0.44510  0.15860  1.0000 0.0576407378
C   C111      1.0  0.55490  0.77700  0.65860  1.0000 0.0576407378
C   C112      1.0  0.22300  0.55490  0.15860  1.0000 0.0576407378
C   C113      1.0  0.42840  0.26310  0.71340  1.0000 -0.2349414414
C   C114      1.0  0.73690  0.42840  0.21340  1.0000 -0.2349414414
C   C115      1.0  0.57160  0.73690  0.71340  1.0000 -0.2349414414
C   C116      1.0  0.26310  0.57160  0.21340  1.0000 -0.2349414414
C   C117      1.0  0.49160  0.26470  0.74250  1.0000 -0.0226960701
C   C118      1.0  0.73530  0.49160  0.24250  1.0000 -0.0226960701
C   C119      1.0  0.50840  0.73530  0.74250  1.0000 -0.0226960701
C   C120      1.0  0.26470  0.50840  0.24250  1.0000 -0.0226960701
C   C121      1.0  0.71440  0.02200  0.51030  1.0000 -0.0363582036
C   C122      1.0  0.97800  0.71440  0.01030  1.0000 -0.0363582036
C   C123      1.0  0.28560  0.97800  0.51030  1.0000 -0.0363582036
C   C124      1.0  0.02200  0.28560  0.01030  1.0000 -0.0363582036
C   C125      1.0  0.67420  0.02950  0.45680  1.0000 -0.2170036769
C   C126      1.0  0.97050  0.67420  0.95680  1.0000 -0.2170036769
C   C127      1.0  0.32580  0.97050  0.45680  1.0000 -0.2170036769
C   C128      1.0  0.02950  0.32580  0.95680  1.0000 -0.2170036769
C   C129      1.0  0.61810  0.07630  0.47560  1.0000 -0.0286409364
C   C130      1.0  0.92370  0.61810  0.97560  1.0000 -0.0286409364
C   C131      1.0  0.38190  0.92370  0.47560  1.0000 -0.0286409364
C   C132      1.0  0.07630  0.38190  0.97560  1.0000 -0.0286409364
C   C133      1.0  0.72710  0.31840  0.77400  1.0000 0.0694797935
C   C134      1.0  0.68160  0.72710  0.27400  1.0000 0.0694797935
C   C135      1.0  0.27290  0.68160  0.77400  1.0000 0.0694797935
C   C136      1.0  0.31840  0.27290  0.27400  1.0000 0.0694797935
C   C137      1.0  0.75660  0.36470  0.81890  1.0000 -0.1890086511
C   C138      1.0  0.63530  0.75660  0.31890  1.0000 -0.1890086511
C   C139      1.0  0.24340  0.63530  0.81890  1.0000 -0.1890086511
C   C140      1.0  0.36470  0.24340  0.31890  1.0000 -0.1890086511
C   C141      1.0  0.72390  0.37500  0.87850  1.0000 0.0914390722
C   C142      1.0  0.62500  0.72390  0.37850  1.0000 0.0914390722
C   C143      1.0  0.27610  0.62500  0.87850  1.0000 0.0914390722
C   C144      1.0  0.37500  0.27610  0.37850  1.0000 0.0914390722
C   C145      1.0  0.66160  0.33890  0.89320  1.0000 -0.1890086511
C   C146      1.0  0.66110  0.66160  0.39320  1.0000 -0.1890086511
C   C147      1.0  0.33840  0.66110  0.89320  1.0000 -0.1890086511
C   C148      1.0  0.33890  0.33840  0.39320  1.0000 -0.1890086511
C   C149      1.0  0.63210  0.29260  0.84820  1.0000 0.0576407378
C   C150      1.0  0.70740  0.63210  0.34820  1.0000 0.0576407378
C   C151      1.0  0.36790  0.70740  0.84820  1.0000 0.0576407378
C   C152      1.0  0.29260  0.36790  0.34820  1.0000 0.0576407378
C   C153      1.0  0.75840  0.41760  0.92910  1.0000 0.1012557726
C   C154      1.0  0.58240  0.75840  0.42910  1.0000 0.1012557726
C   C155      1.0  0.24160  0.58240  0.92910  1.0000 0.1012557726
C   C156      1.0  0.41760  0.24160  0.42910  1.0000 0.1012557726
C   C157      1.0  0.71590  0.46450  0.96370  1.0000 -0.1890086511
C   C158      1.0  0.53550  0.71590  0.46370  1.0000 -0.1890086511
C   C159      1.0  0.28410  0.53550  0.96370  1.0000 -0.1890086511
C   C160      1.0  0.46450  0.28410  0.46370  1.0000 -0.1890086511
C   C161      1.0  0.74560  0.50760  0.01110  1.0000 0.0576407378
C   C162      1.0  0.49240  0.74560  0.51110  1.0000 0.0576407378
C   C163      1.0  0.25440  0.49240  0.01110  1.0000 0.0576407378
C   C164      1.0  0.50760  0.25440  0.51110  1.0000 0.0576407378
C   C165      1.0  0.86040  0.45710  0.98930  1.0000 0.0576407378
C   C166      1.0  0.54290  0.86040  0.48930  1.0000 0.0576407378
C   C167      1.0  0.13960  0.54290  0.98930  1.0000 0.0576407378
C   C168      1.0  0.45710  0.13960  0.48930  1.0000 0.0576407378
C   C169      1.0  0.83070  0.41400  0.94200  1.0000 -0.1890086511
C   C170      1.0  0.58600  0.83070  0.44200  1.0000 -0.1890086511
C   C171      1.0  0.16930  0.58600  0.94200  1.0000 -0.1890086511
C   C172      1.0  0.41400  0.16930  0.44200  1.0000 -0.1890086511
C   C173      1.0  0.86460  0.09220  0.60940  1.0000 0.0694797935
C   C174      1.0  0.90780  0.86460  0.10940  1.0000 0.0694797935
C   C175      1.0  0.13540  0.90780  0.60940  1.0000 0.0694797935
C   C176      1.0  0.09220  0.13540  0.10940  1.0000 0.0694797935
C   C177      1.0  0.93670  0.07710  0.60620  1.0000 -0.1981782794
C   C178      1.0  0.92290  0.93670  0.10620  1.0000 -0.1981782794
C   C179      1.0  0.06330  0.92290  0.60620  1.0000 -0.1981782794
C   C180      1.0  0.07710  0.06330  0.10620  1.0000 -0.1981782794
C   C181      1.0  0.96090  0.00920  0.62030  1.0000 0.1012557726
C   C182      1.0  0.99080  0.96090  0.12030  1.0000 0.1012557726
C   C183      1.0  0.03910  0.99080  0.62030  1.0000 0.1012557726
C   C184      1.0  0.00920  0.03910  0.12030  1.0000 0.1012557726
C   C185      1.0  0.91310  0.95640  0.63760  1.0000 -0.1890086511
C   C186      1.0  0.04360  0.91310  0.13760  1.0000 -0.1890086511
C   C187      1.0  0.08690  0.04360  0.63760  1.0000 -0.1890086511
C   C188      1.0  0.95640  0.08690  0.13760  1.0000 -0.1890086511
C   C189      1.0  0.84100  0.97150  0.64080  1.0000 0.0576407378
C   C190      1.0  0.02850  0.84100  0.14080  1.0000 0.0576407378
C   C191      1.0  0.15900  0.02850  0.64080  1.0000 0.0576407378
C   C192      1.0  0.97150  0.15900  0.14080  1.0000 0.0576407378
C   C193      1.0  0.79460  0.20500  0.01420  1.0000 0.4240029121
C   C194      1.0  0.20500  0.20540  0.51420  1.0000 0.4240029121
C   C195      1.0  0.20540  0.79500  0.01420  1.0000 0.4240029121
C   C196      1.0  0.79500  0.79460  0.51420  1.0000 0.4240029121
C   C197      1.0  0.29460  0.29500  0.01420  1.0000 0.4240029121
C   C198      1.0  0.29500  0.70540  0.51420  1.0000 0.4240029121
C   C199      1.0  0.70540  0.70500  0.01420  1.0000 0.4240029121
C   C200      1.0  0.70500  0.29460  0.51420  1.0000 0.4240029121
S   S1        1.0  0.77710  0.23180  0.09250  1.0000 0.9922173286
S   S2        1.0  0.23180  0.22290  0.59250  1.0000 0.9922173286
S   S3        1.0  0.22290  0.76820  0.09250  1.0000 0.9922173286
S   S4        1.0  0.76820  0.77710  0.59250  1.0000 0.9922173286
S   S5        1.0  0.27710  0.26820  0.09250  1.0000 0.9922173286
S   S6        1.0  0.26820  0.72290  0.59250  1.0000 0.9922173286
S   S7        1.0  0.72290  0.73180  0.09250  1.0000 0.9922173286
S   S8        1.0  0.73180  0.27710  0.59250  1.0000 0.9922173286
N   N1        1.0  0.75050  0.59500  0.73370  1.0000 -0.1890086511
N   N2        1.0  0.40500  0.75050  0.23370  1.0000 -0.1890086511
N   N3        1.0  0.24950  0.40500  0.73370  1.0000 -0.1890086511
N   N4        1.0  0.59500  0.24950  0.23370  1.0000 -0.1890086511
N   N5        1.0  0.78000  0.64760  0.76660  1.0000 -0.1701473281
N   N6        1.0  0.35240  0.78000  0.26660  1.0000 -0.1701473281
N   N7        1.0  0.22000  0.35240  0.76660  1.0000 -0.1701473281
N   N8        1.0  0.64760  0.22000  0.26660  1.0000 -0.1701473281
N   N9        1.0  0.95810  0.72900  0.71110  1.0000 -0.1981782794
N   N10       1.0  0.27100  0.95810  0.21110  1.0000 -0.1981782794
N   N11       1.0  0.04190  0.27100  0.71110  1.0000 -0.1981782794
N   N12       1.0  0.72900  0.04190  0.21110  1.0000 -0.1981782794
N   N13       1.0  0.99220  0.69990  0.65900  1.0000 -0.1890086511
N   N14       1.0  0.30010  0.99220  0.15900  1.0000 -0.1890086511
N   N15       1.0  0.00780  0.30010  0.65900  1.0000 -0.1890086511
N   N16       1.0  0.69990  0.00780  0.15900  1.0000 -0.1890086511
N   N17       1.0  0.87210  0.58990  0.53830  1.0000 -0.1433555557
N   N18       1.0  0.41010  0.87210  0.03830  1.0000 -0.1433555557
N   N19       1.0  0.12790  0.41010  0.53830  1.0000 -0.1433555557
N   N20       1.0  0.58990  0.12790  0.03830  1.0000 -0.1433555557
N   N21       1.0  0.81460  0.56100  0.55870  1.0000 -0.1322387157
N   N22       1.0  0.43900  0.81460  0.05870  1.0000 -0.1322387157
N   N23       1.0  0.18540  0.43900  0.55870  1.0000 -0.1322387157
N   N24       1.0  0.56100  0.18540  0.05870  1.0000 -0.1322387157
N   N25       1.0  0.83510  0.78230  0.78860  1.0000 -0.2907825074
N   N26       1.0  0.21770  0.83510  0.28860  1.0000 -0.2907825074
N   N27       1.0  0.16490  0.21770  0.78860  1.0000 -0.2907825074
N   N28       1.0  0.78230  0.16490  0.28860  1.0000 -0.2907825074
N   N29       1.0  0.68220  0.00390  0.02390  1.0000 -0.2907825074
N   N30       1.0  0.99610  0.68220  0.52390  1.0000 -0.2907825074
N   N31       1.0  0.31780  0.99610  0.02390  1.0000 -0.2907825074
N   N32       1.0  0.00390  0.31780  0.52390  1.0000 -0.2907825074
N   N33       1.0  0.68320  0.53940  0.62670  1.0000 -0.2662950715
N   N34       1.0  0.46060  0.68320  0.12670  1.0000 -0.2662950715
N   N35       1.0  0.31680  0.46060  0.62670  1.0000 -0.2662950715
N   N36       1.0  0.53940  0.31680  0.12670  1.0000 -0.2662950715
N   N37       1.0  0.74950  0.09500  0.73370  1.0000 -0.1890086511
N   N38       1.0  0.90500  0.74950  0.23370  1.0000 -0.1890086511
N   N39       1.0  0.25050  0.90500  0.73370  1.0000 -0.1890086511
N   N40       1.0  0.09500  0.25050  0.23370  1.0000 -0.1890086511
N   N41       1.0  0.72000  0.14760  0.76660  1.0000 -0.1701473281
N   N42       1.0  0.85240  0.72000  0.26660  1.0000 -0.1701473281
N   N43       1.0  0.28000  0.85240  0.76660  1.0000 -0.1701473281
N   N44       1.0  0.14760  0.28000  0.26660  1.0000 -0.1701473281
N   N45       1.0  0.54190  0.22900  0.71110  1.0000 -0.1981782794
N   N46       1.0  0.77100  0.54190  0.21110  1.0000 -0.1981782794
N   N47       1.0  0.45810  0.77100  0.71110  1.0000 -0.1981782794
N   N48       1.0  0.22900  0.45810  0.21110  1.0000 -0.1981782794
N   N49       1.0  0.50780  0.19990  0.65900  1.0000 -0.1890086511
N   N50       1.0  0.80010  0.50780  0.15900  1.0000 -0.1890086511
N   N51       1.0  0.49220  0.80010  0.65900  1.0000 -0.1890086511
N   N52       1.0  0.19990  0.49220  0.15900  1.0000 -0.1890086511
N   N53       1.0  0.62790  0.08990  0.53830  1.0000 -0.1433555557
N   N54       1.0  0.91010  0.62790  0.03830  1.0000 -0.1433555557
N   N55       1.0  0.37210  0.91010  0.53830  1.0000 -0.1433555557
N   N56       1.0  0.08990  0.37210  0.03830  1.0000 -0.1433555557
N   N57       1.0  0.68540  0.06100  0.55870  1.0000 -0.1322387157
N   N58       1.0  0.93900  0.68540  0.05870  1.0000 -0.1322387157
N   N59       1.0  0.31460  0.93900  0.55870  1.0000 -0.1322387157
N   N60       1.0  0.06100  0.31460  0.05870  1.0000 -0.1322387157
N   N61       1.0  0.66490  0.28230  0.78860  1.0000 -0.2907825074
N   N62       1.0  0.71770  0.66490  0.28860  1.0000 -0.2907825074
N   N63       1.0  0.33510  0.71770  0.78860  1.0000 -0.2907825074
N   N64       1.0  0.28230  0.33510  0.28860  1.0000 -0.2907825074
N   N65       1.0  0.81780  0.50390  0.02390  1.0000 -0.2907825074
N   N66       1.0  0.49610  0.81780  0.52390  1.0000 -0.2907825074
N   N67       1.0  0.18220  0.49610  0.02390  1.0000 -0.2907825074
N   N68       1.0  0.50390  0.18220  0.52390  1.0000 -0.2907825074
N   N69       1.0  0.81680  0.03940  0.62670  1.0000 -0.2662950715
N   N70       1.0  0.96060  0.81680  0.12670  1.0000 -0.2662950715
N   N71       1.0  0.18320  0.96060  0.62670  1.0000 -0.2662950715
N   N72       1.0  0.03940  0.18320  0.12670  1.0000 -0.2662950715
O   O1        1.0  0.87340  0.61750  0.67050  1.0000 -0.7363863921
O   O2        1.0  0.38250  0.87340  0.17050  1.0000 -0.7363863921
O   O3        1.0  0.12660  0.38250  0.67050  1.0000 -0.7363863921
O   O4        1.0  0.61750  0.12660  0.17050  1.0000 -0.7363863921
O   O5        1.0  0.62660  0.11750  0.67050  1.0000 -0.7363863921
O   O6        1.0  0.88250  0.62660  0.17050  1.0000 -0.7363863921
O   O7        1.0  0.37340  0.88250  0.67050  1.0000 -0.7363863921
O   O8        1.0  0.11750  0.37340  0.17050  1.0000 -0.7363863921
O   O9        1.0  0.76250  0.16740  0.11910  1.0000 -0.5994802451
O   O10       1.0  0.83650  0.26890  0.11500  1.0000 -0.5797245836
O   O11       1.0  0.71710  0.27950  0.07230  1.0000 -0.6355026102
O   O12       1.0  0.16740  0.23750  0.61910  1.0000 -0.5994802451
O   O13       1.0  0.26890  0.16350  0.61500  1.0000 -0.5797245836
O   O14       1.0  0.27950  0.28290  0.57230  1.0000 -0.6355026102
O   O15       1.0  0.23750  0.83260  0.11910  1.0000 -0.5994802451
O   O16       1.0  0.16350  0.73110  0.11500  1.0000 -0.5797245836
O   O17       1.0  0.28290  0.72050  0.07230  1.0000 -0.6355026102
O   O18       1.0  0.83260  0.76250  0.61910  1.0000 -0.5994802451
O   O19       1.0  0.73110  0.83650  0.61500  1.0000 -0.5797245836
O   O20       1.0  0.72050  0.71710  0.57230  1.0000 -0.6355026102
O   O21       1.0  0.26250  0.33260  0.11910  1.0000 -0.5994802451
O   O22       1.0  0.33650  0.23110  0.11500  1.0000 -0.5797245836
O   O23       1.0  0.21710  0.22050  0.07230  1.0000 -0.6355026102
O   O24       1.0  0.33260  0.73750  0.61910  1.0000 -0.5994802451
O   O25       1.0  0.23110  0.66350  0.61500  1.0000 -0.5797245836
O   O26       1.0  0.22050  0.78290  0.57230  1.0000 -0.6355026102
O   O27       1.0  0.73750  0.66740  0.11910  1.0000 -0.5994802451
O   O28       1.0  0.66350  0.76890  0.11500  1.0000 -0.5797245836
O   O29       1.0  0.78290  0.77950  0.07230  1.0000 -0.6355026102
O   O30       1.0  0.66740  0.26250  0.61910  1.0000 -0.5994802451
O   O31       1.0  0.76890  0.33650  0.61500  1.0000 -0.5797245836
O   O32       1.0  0.77950  0.21710  0.57230  1.0000 -0.6355026102
F   F1        1.0  0.85370  0.16250  0.01220  1.0000 -0.1701473281
F   F2        1.0  0.82590  0.25450  0.97730  1.0000 -0.1628184205
F   F3        1.0  0.74540  0.17300  0.98200  1.0000 -0.1701473281
F   F4        1.0  0.16250  0.14630  0.51220  1.0000 -0.1701473281
F   F5        1.0  0.25450  0.17410  0.47730  1.0000 -0.1628184205
F   F6        1.0  0.17300  0.25460  0.48200  1.0000 -0.1701473281
F   F7        1.0  0.14630  0.83750  0.01220  1.0000 -0.1701473281
F   F8        1.0  0.17410  0.74550  0.97730  1.0000 -0.1628184205
F   F9        1.0  0.25460  0.82700  0.98200  1.0000 -0.1701473281
F   F10       1.0  0.83750  0.85370  0.51220  1.0000 -0.1701473281
F   F11       1.0  0.74550  0.82590  0.47730  1.0000 -0.1628184205
F   F12       1.0  0.82700  0.74540  0.48200  1.0000 -0.1701473281
F   F13       1.0  0.35370  0.33750  0.01220  1.0000 -0.1701473281
F   F14       1.0  0.32590  0.24550  0.97730  1.0000 -0.1628184205
F   F15       1.0  0.24540  0.32700  0.98200  1.0000 -0.1701473281
F   F16       1.0  0.33750  0.64630  0.51220  1.0000 -0.1701473281
F   F17       1.0  0.24550  0.67410  0.47730  1.0000 -0.1628184205
F   F18       1.0  0.32700  0.75460  0.48200  1.0000 -0.1701473281
F   F19       1.0  0.64630  0.66250  0.01220  1.0000 -0.1701473281
F   F20       1.0  0.67410  0.75450  0.97730  1.0000 -0.1628184205
F   F21       1.0  0.75460  0.67300  0.98200  1.0000 -0.1701473281
F   F22       1.0  0.66250  0.35370  0.51220  1.0000 -0.1701473281
F   F23       1.0  0.75450  0.32590  0.47730  1.0000 -0.1628184205
F   F24       1.0  0.67300  0.24540  0.48200  1.0000 -0.1701473281
