# DDEC6 charges by PACMAN v1.1 (https://github.com/mtap-research/PACMAN-charge/)
data_2010[Cd][nuc]3[ION]15
_chemical_formula_sum              "Cd4 H144 C192 N48 Cl4 O16"
_cell_length_a       15.8809
_cell_length_b       15.8809
_cell_length_c       21.81
_cell_angle_alpha    90
_cell_angle_beta     90
_cell_angle_gamma    90

_symmetry_space_group_name_H-M    "P 1"
_symmetry_Int_Tables_number       1

loop_
  _symmetry_equiv_pos_as_xyz
  'x, y, z'

loop_
  _atom_site_type_symbol
  _atom_site_label
  _atom_site_symmetry_multiplicity
  _atom_site_fract_x
  _atom_site_fract_y
  _atom_site_fract_z
  _atom_site_occupancy
  _atom_site_charge
Cd  Cd1       1.0  0.55807  0.44193  0.75000  1.0000 0.6469654522
Cd  Cd2       1.0  0.44193  0.55807  0.25000  1.0000 0.6469654522
Cd  Cd3       1.0  0.05807  0.05807  0.50000  1.0000 0.6469654522
Cd  Cd4       1.0  0.94193  0.94193  0.00000  1.0000 0.6469654522
H   H1        1.0  0.23010  0.14010  0.54020  1.0000 0.0941313325
H   H2        1.0  0.76990  0.85990  0.04020  1.0000 0.0941313325
H   H3        1.0  0.35990  0.73010  0.29020  1.0000 0.0941313325
H   H4        1.0  0.64010  0.26990  0.79020  1.0000 0.0941313325
H   H5        1.0  0.26990  0.64010  0.20980  1.0000 0.0941313325
H   H6        1.0  0.73010  0.35990  0.70980  1.0000 0.0941313325
H   H7        1.0  0.14010  0.23010  0.45980  1.0000 0.0941313325
H   H8        1.0  0.85990  0.76990  0.95980  1.0000 0.0941313325
H   H9        1.0  0.28750  0.24070  0.60460  1.0000 0.1274906301
H   H10       1.0  0.71250  0.75930  0.10460  1.0000 0.1274906301
H   H11       1.0  0.25930  0.78750  0.35460  1.0000 0.1274906301
H   H12       1.0  0.74070  0.21250  0.85460  1.0000 0.1274906301
H   H13       1.0  0.21250  0.74070  0.14540  1.0000 0.1274906301
H   H14       1.0  0.78750  0.25930  0.64540  1.0000 0.1274906301
H   H15       1.0  0.24070  0.28750  0.39540  1.0000 0.1274906301
H   H16       1.0  0.75930  0.71250  0.89540  1.0000 0.1274906301
H   H17       1.0  0.08730  0.21370  0.71550  1.0000 0.1274906301
H   H18       1.0  0.91270  0.78630  0.21550  1.0000 0.1274906301
H   H19       1.0  0.28630  0.58730  0.46550  1.0000 0.1274906301
H   H20       1.0  0.71370  0.41270  0.96550  1.0000 0.1274906301
H   H21       1.0  0.41270  0.71370  0.03450  1.0000 0.1274906301
H   H22       1.0  0.58730  0.28630  0.53450  1.0000 0.1274906301
H   H23       1.0  0.21370  0.08730  0.28450  1.0000 0.1274906301
H   H24       1.0  0.78630  0.91270  0.78450  1.0000 0.1274906301
H   H25       1.0  0.03650  0.11220  0.64980  1.0000 0.1008458289
H   H26       1.0  0.96350  0.88780  0.14980  1.0000 0.1008458289
H   H27       1.0  0.38780  0.53650  0.39980  1.0000 0.1008458289
H   H28       1.0  0.61220  0.46350  0.89980  1.0000 0.1008458289
H   H29       1.0  0.46350  0.61220  0.10020  1.0000 0.1008458289
H   H30       1.0  0.53650  0.38780  0.60020  1.0000 0.1008458289
H   H31       1.0  0.11220  0.03650  0.35020  1.0000 0.1008458289
H   H32       1.0  0.88780  0.96350  0.85020  1.0000 0.1008458289
H   H33       1.0  0.30250  0.36030  0.63650  1.0000 0.1104222086
H   H34       1.0  0.69750  0.63970  0.13650  1.0000 0.1104222086
H   H35       1.0  0.13970  0.80250  0.38650  1.0000 0.1104222086
H   H36       1.0  0.86030  0.19750  0.88650  1.0000 0.1104222086
H   H37       1.0  0.19750  0.86030  0.11350  1.0000 0.1104222086
H   H38       1.0  0.80250  0.13970  0.61350  1.0000 0.1104222086
H   H39       1.0  0.36030  0.30250  0.36350  1.0000 0.1104222086
H   H40       1.0  0.63970  0.69750  0.86350  1.0000 0.1104222086
H   H41       1.0  0.30290  0.50260  0.79060  1.0000 0.1104222086
H   H42       1.0  0.69710  0.49740  0.29060  1.0000 0.1104222086
H   H43       1.0  0.99740  0.80290  0.54060  1.0000 0.1104222086
H   H44       1.0  0.00260  0.19710  0.04060  1.0000 0.1104222086
H   H45       1.0  0.19710  0.00260  0.95940  1.0000 0.1104222086
H   H46       1.0  0.80290  0.99740  0.45940  1.0000 0.1104222086
H   H47       1.0  0.50260  0.30290  0.20940  1.0000 0.1104222086
H   H48       1.0  0.49740  0.69710  0.70940  1.0000 0.1104222086
H   H49       1.0  0.20300  0.40960  0.83400  1.0000 0.1008458289
H   H50       1.0  0.79700  0.59040  0.33400  1.0000 0.1008458289
H   H51       1.0  0.09040  0.70300  0.58400  1.0000 0.1008458289
H   H52       1.0  0.90960  0.29700  0.08400  1.0000 0.1008458289
H   H53       1.0  0.29700  0.90960  0.91600  1.0000 0.1008458289
H   H54       1.0  0.70300  0.09040  0.41600  1.0000 0.1008458289
H   H55       1.0  0.40960  0.20300  0.16600  1.0000 0.1008458289
H   H56       1.0  0.59040  0.79700  0.66600  1.0000 0.1008458289
H   H57       1.0  0.15590  0.29330  0.77970  1.0000 0.1008458289
H   H58       1.0  0.84410  0.70670  0.27970  1.0000 0.1008458289
H   H59       1.0  0.20670  0.65590  0.52970  1.0000 0.1008458289
H   H60       1.0  0.79330  0.34410  0.02970  1.0000 0.1008458289
H   H61       1.0  0.34410  0.79330  0.97030  1.0000 0.1008458289
H   H62       1.0  0.65590  0.20670  0.47030  1.0000 0.1008458289
H   H63       1.0  0.29330  0.15590  0.22030  1.0000 0.1008458289
H   H64       1.0  0.70670  0.84410  0.72030  1.0000 0.1008458289
H   H65       1.0  0.54540  0.62070  0.54020  1.0000 0.1104222086
H   H66       1.0  0.45460  0.37930  0.04020  1.0000 0.1104222086
H   H67       1.0  0.87930  0.04540  0.29020  1.0000 0.1104222086
H   H68       1.0  0.12070  0.95460  0.79020  1.0000 0.1104222086
H   H69       1.0  0.95460  0.12070  0.20980  1.0000 0.1104222086
H   H70       1.0  0.04540  0.87930  0.70980  1.0000 0.1104222086
H   H71       1.0  0.62070  0.54540  0.45980  1.0000 0.1104222086
H   H72       1.0  0.37930  0.45460  0.95980  1.0000 0.1104222086
H   H73       1.0  0.56290  0.73000  0.47180  1.0000 0.1104222086
H   H74       1.0  0.43710  0.27000  0.97180  1.0000 0.1104222086
H   H75       1.0  0.77000  0.06290  0.22180  1.0000 0.1104222086
H   H76       1.0  0.23000  0.93710  0.72180  1.0000 0.1104222086
H   H77       1.0  0.93710  0.23000  0.27820  1.0000 0.1104222086
H   H78       1.0  0.06290  0.77000  0.77820  1.0000 0.1104222086
H   H79       1.0  0.73000  0.56290  0.52820  1.0000 0.1104222086
H   H80       1.0  0.27000  0.43710  0.02820  1.0000 0.1104222086
H   H81       1.0  0.46360  0.83490  0.46220  1.0000 0.1104222086
H   H82       1.0  0.53640  0.16510  0.96220  1.0000 0.1104222086
H   H83       1.0  0.66510  0.96360  0.21220  1.0000 0.1104222086
H   H84       1.0  0.33490  0.03640  0.71220  1.0000 0.1104222086
H   H85       1.0  0.03640  0.33490  0.28780  1.0000 0.1104222086
H   H86       1.0  0.96360  0.66510  0.78780  1.0000 0.1104222086
H   H87       1.0  0.83490  0.46360  0.53780  1.0000 0.1104222086
H   H88       1.0  0.16510  0.53640  0.03780  1.0000 0.1104222086
H   H89       1.0  0.32450  0.72340  0.59500  1.0000 0.1008458289
H   H90       1.0  0.67550  0.27660  0.09500  1.0000 0.1008458289
H   H91       1.0  0.77660  0.82450  0.34500  1.0000 0.1008458289
H   H92       1.0  0.22340  0.17550  0.84500  1.0000 0.1008458289
H   H93       1.0  0.17550  0.22340  0.15500  1.0000 0.1008458289
H   H94       1.0  0.82450  0.77660  0.65500  1.0000 0.1008458289
H   H95       1.0  0.72340  0.32450  0.40500  1.0000 0.1008458289
H   H96       1.0  0.27660  0.67550  0.90500  1.0000 0.1008458289
H   H97       1.0  0.34810  0.89770  0.43940  1.0000 0.1274906301
H   H98       1.0  0.65190  0.10230  0.93940  1.0000 0.1274906301
H   H99       1.0  0.60230  0.84810  0.18940  1.0000 0.1274906301
H   H100      1.0  0.39770  0.15190  0.68940  1.0000 0.1274906301
H   H101      1.0  0.15190  0.39770  0.31060  1.0000 0.1274906301
H   H102      1.0  0.84810  0.60230  0.81060  1.0000 0.1274906301
H   H103      1.0  0.89770  0.34810  0.56060  1.0000 0.1274906301
H   H104      1.0  0.10230  0.65190  0.06060  1.0000 0.1274906301
H   H105      1.0  0.23680  0.99110  0.42680  1.0000 0.0941313325
H   H106      1.0  0.76320  0.00890  0.92680  1.0000 0.0941313325
H   H107      1.0  0.50890  0.73680  0.17680  1.0000 0.0941313325
H   H108      1.0  0.49110  0.26320  0.67680  1.0000 0.0941313325
H   H109      1.0  0.26320  0.49110  0.32320  1.0000 0.0941313325
H   H110      1.0  0.73680  0.50890  0.82320  1.0000 0.0941313325
H   H111      1.0  0.99110  0.23680  0.57320  1.0000 0.0941313325
H   H112      1.0  0.00890  0.76320  0.07320  1.0000 0.0941313325
H   H113      1.0  0.15900  0.94150  0.59420  1.0000 0.1008458289
H   H114      1.0  0.84100  0.05850  0.09420  1.0000 0.1008458289
H   H115      1.0  0.55850  0.65900  0.34420  1.0000 0.1008458289
H   H116      1.0  0.44150  0.34100  0.84420  1.0000 0.1008458289
H   H117      1.0  0.34100  0.44150  0.15580  1.0000 0.1008458289
H   H118      1.0  0.65900  0.55850  0.65580  1.0000 0.1008458289
H   H119      1.0  0.94150  0.15900  0.40580  1.0000 0.1008458289
H   H120      1.0  0.05850  0.84100  0.90580  1.0000 0.1008458289
H   H121      1.0  0.26590  0.84730  0.60890  1.0000 0.1274906301
H   H122      1.0  0.73410  0.15270  0.10890  1.0000 0.1274906301
H   H123      1.0  0.65270  0.76590  0.35890  1.0000 0.1274906301
H   H124      1.0  0.34730  0.23410  0.85890  1.0000 0.1274906301
H   H125      1.0  0.23410  0.34730  0.14110  1.0000 0.1274906301
H   H126      1.0  0.76590  0.65270  0.64110  1.0000 0.1274906301
H   H127      1.0  0.84730  0.26590  0.39110  1.0000 0.1274906301
H   H128      1.0  0.15270  0.73410  0.89110  1.0000 0.1274906301
H   H129      1.0  0.24400  0.52380  0.60680  1.0000 0.2651417634
H   H130      1.0  0.75600  0.47620  0.10680  1.0000 0.2651417634
H   H131      1.0  0.97620  0.74400  0.35680  1.0000 0.2651417634
H   H132      1.0  0.02380  0.25600  0.85680  1.0000 0.2651417634
H   H133      1.0  0.25600  0.02380  0.14320  1.0000 0.2651417634
H   H134      1.0  0.74400  0.97620  0.64320  1.0000 0.2651417634
H   H135      1.0  0.52380  0.24400  0.39320  1.0000 0.2651417634
H   H136      1.0  0.47620  0.75600  0.89320  1.0000 0.2651417634
H   H137      1.0  0.23990  0.59960  0.64660  1.0000 0.2556083284
H   H138      1.0  0.76010  0.40040  0.14660  1.0000 0.2556083284
H   H139      1.0  0.90040  0.73990  0.39660  1.0000 0.2556083284
H   H140      1.0  0.09960  0.26010  0.89660  1.0000 0.2556083284
H   H141      1.0  0.26010  0.09960  0.10340  1.0000 0.2556083284
H   H142      1.0  0.73990  0.90040  0.60340  1.0000 0.2556083284
H   H143      1.0  0.59960  0.23990  0.35340  1.0000 0.2556083284
H   H144      1.0  0.40040  0.76010  0.85340  1.0000 0.2556083284
C   C1        1.0  0.19930  0.15680  0.57560  1.0000 0.0420726693
C   C2        1.0  0.80070  0.84320  0.07560  1.0000 0.0420726693
C   C3        1.0  0.34320  0.69930  0.32560  1.0000 0.0420726693
C   C4        1.0  0.65680  0.30070  0.82560  1.0000 0.0420726693
C   C5        1.0  0.30070  0.65680  0.17440  1.0000 0.0420726693
C   C6        1.0  0.69930  0.34320  0.67440  1.0000 0.0420726693
C   C7        1.0  0.15680  0.19930  0.42440  1.0000 0.0420726693
C   C8        1.0  0.84320  0.80070  0.92440  1.0000 0.0420726693
C   C9        1.0  0.23390  0.21750  0.61390  1.0000 -0.1976905095
C   C10       1.0  0.76610  0.78250  0.11390  1.0000 -0.1976905095
C   C11       1.0  0.28250  0.73390  0.36390  1.0000 -0.1976905095
C   C12       1.0  0.71750  0.26610  0.86390  1.0000 -0.1976905095
C   C13       1.0  0.26610  0.71750  0.13610  1.0000 -0.1976905095
C   C14       1.0  0.73390  0.28250  0.63610  1.0000 -0.1976905095
C   C15       1.0  0.21750  0.23390  0.38610  1.0000 -0.1976905095
C   C16       1.0  0.78250  0.76610  0.88610  1.0000 -0.1976905095
C   C17       1.0  0.19160  0.24420  0.66480  1.0000 0.1104222086
C   C18       1.0  0.80840  0.75580  0.16480  1.0000 0.1104222086
C   C19       1.0  0.25580  0.69160  0.41480  1.0000 0.1104222086
C   C20       1.0  0.74420  0.30840  0.91480  1.0000 0.1104222086
C   C21       1.0  0.30840  0.74420  0.08520  1.0000 0.1104222086
C   C22       1.0  0.69160  0.25580  0.58520  1.0000 0.1104222086
C   C23       1.0  0.24420  0.19160  0.33520  1.0000 0.1104222086
C   C24       1.0  0.75580  0.80840  0.83520  1.0000 0.1104222086
C   C25       1.0  0.11690  0.20130  0.67880  1.0000 -0.1976905095
C   C26       1.0  0.88310  0.79870  0.17880  1.0000 -0.1976905095
C   C27       1.0  0.29870  0.61690  0.42880  1.0000 -0.1976905095
C   C28       1.0  0.70130  0.38310  0.92880  1.0000 -0.1976905095
C   C29       1.0  0.38310  0.70130  0.07120  1.0000 -0.1976905095
C   C30       1.0  0.61690  0.29870  0.57120  1.0000 -0.1976905095
C   C31       1.0  0.20130  0.11690  0.32120  1.0000 -0.1976905095
C   C32       1.0  0.79870  0.88310  0.82120  1.0000 -0.1976905095
C   C33       1.0  0.08680  0.14100  0.63910  1.0000 0.0629330545
C   C34       1.0  0.91320  0.85900  0.13910  1.0000 0.0629330545
C   C35       1.0  0.35900  0.58680  0.38910  1.0000 0.0629330545
C   C36       1.0  0.64100  0.41320  0.88910  1.0000 0.0629330545
C   C37       1.0  0.41320  0.64100  0.11090  1.0000 0.0629330545
C   C38       1.0  0.58680  0.35900  0.61090  1.0000 0.0629330545
C   C39       1.0  0.14100  0.08680  0.36090  1.0000 0.0629330545
C   C40       1.0  0.85900  0.91320  0.86090  1.0000 0.0629330545
C   C41       1.0  0.22220  0.31740  0.70220  1.0000 0.0721278532
C   C42       1.0  0.77780  0.68260  0.20220  1.0000 0.0721278532
C   C43       1.0  0.18260  0.72220  0.45220  1.0000 0.0721278532
C   C44       1.0  0.81740  0.27780  0.95220  1.0000 0.0721278532
C   C45       1.0  0.27780  0.81740  0.04780  1.0000 0.0721278532
C   C46       1.0  0.72220  0.18260  0.54780  1.0000 0.0721278532
C   C47       1.0  0.31740  0.22220  0.29780  1.0000 0.0721278532
C   C48       1.0  0.68260  0.77780  0.79780  1.0000 0.0721278532
C   C49       1.0  0.28190  0.37110  0.67670  1.0000 -0.1923092374
C   C50       1.0  0.71810  0.62890  0.17670  1.0000 -0.1923092374
C   C51       1.0  0.12890  0.78190  0.42670  1.0000 -0.1923092374
C   C52       1.0  0.87110  0.21810  0.92670  1.0000 -0.1923092374
C   C53       1.0  0.21810  0.87110  0.07330  1.0000 -0.1923092374
C   C54       1.0  0.78190  0.12890  0.57330  1.0000 -0.1923092374
C   C55       1.0  0.37110  0.28190  0.32330  1.0000 -0.1923092374
C   C56       1.0  0.62890  0.71810  0.82330  1.0000 -0.1923092374
C   C57       1.0  0.31160  0.43980  0.70900  1.0000 0.0145294738
C   C58       1.0  0.68840  0.56020  0.20900  1.0000 0.0145294738
C   C59       1.0  0.06020  0.81160  0.45900  1.0000 0.0145294738
C   C60       1.0  0.93980  0.18840  0.95900  1.0000 0.0145294738
C   C61       1.0  0.18840  0.93980  0.04100  1.0000 0.0145294738
C   C62       1.0  0.81160  0.06020  0.54100  1.0000 0.0145294738
C   C63       1.0  0.43980  0.31160  0.29100  1.0000 0.0145294738
C   C64       1.0  0.56020  0.68840  0.79100  1.0000 0.0145294738
C   C65       1.0  0.28300  0.45550  0.76800  1.0000 -0.1594893889
C   C66       1.0  0.71700  0.54450  0.26800  1.0000 -0.1594893889
C   C67       1.0  0.04450  0.78300  0.51800  1.0000 -0.1594893889
C   C68       1.0  0.95550  0.21700  0.01800  1.0000 -0.1594893889
C   C69       1.0  0.21700  0.95550  0.98200  1.0000 -0.1594893889
C   C70       1.0  0.78300  0.04450  0.48200  1.0000 -0.1594893889
C   C71       1.0  0.45550  0.28300  0.23200  1.0000 -0.1594893889
C   C72       1.0  0.54450  0.71700  0.73200  1.0000 -0.1594893889
C   C73       1.0  0.22350  0.39970  0.79370  1.0000 -0.1060428315
C   C74       1.0  0.77650  0.60030  0.29370  1.0000 -0.1060428315
C   C75       1.0  0.10030  0.72350  0.54370  1.0000 -0.1060428315
C   C76       1.0  0.89970  0.27650  0.04370  1.0000 -0.1060428315
C   C77       1.0  0.27650  0.89970  0.95630  1.0000 -0.1060428315
C   C78       1.0  0.72350  0.10030  0.45630  1.0000 -0.1043517467
C   C79       1.0  0.39970  0.22350  0.20630  1.0000 -0.1060428315
C   C80       1.0  0.60030  0.77650  0.70630  1.0000 -0.1060428315
C   C81       1.0  0.19470  0.33110  0.76130  1.0000 -0.1594893889
C   C82       1.0  0.80530  0.66890  0.26130  1.0000 -0.1594893889
C   C83       1.0  0.16890  0.69470  0.51130  1.0000 -0.1594893889
C   C84       1.0  0.83110  0.30530  0.01130  1.0000 -0.1594893889
C   C85       1.0  0.30530  0.83110  0.98870  1.0000 -0.1594893889
C   C86       1.0  0.69470  0.16890  0.48870  1.0000 -0.1594893889
C   C87       1.0  0.33110  0.19470  0.23870  1.0000 -0.1594893889
C   C88       1.0  0.66890  0.80530  0.73870  1.0000 -0.1594893889
C   C89       1.0  0.37290  0.49510  0.67950  1.0000 0.1777964465
C   C90       1.0  0.62710  0.50490  0.17950  1.0000 0.1777964465
C   C91       1.0  0.00490  0.87290  0.42950  1.0000 0.1777964465
C   C92       1.0  0.99510  0.12710  0.92950  1.0000 0.1777964465
C   C93       1.0  0.12710  0.99510  0.07050  1.0000 0.1777964465
C   C94       1.0  0.87290  0.00490  0.57050  1.0000 0.1777964465
C   C95       1.0  0.49510  0.37290  0.32050  1.0000 0.1777964465
C   C96       1.0  0.50490  0.62710  0.82050  1.0000 0.1777964465
C   C97       1.0  0.42420  0.59110  0.61830  1.0000 0.1777964465
C   C98       1.0  0.57580  0.40890  0.11830  1.0000 0.1777964465
C   C99       1.0  0.90890  0.92420  0.36830  1.0000 0.1777964465
C   C100      1.0  0.09110  0.07580  0.86830  1.0000 0.1777964465
C   C101      1.0  0.07580  0.09110  0.13170  1.0000 0.1777964465
C   C102      1.0  0.92420  0.90890  0.63170  1.0000 0.1777964465
C   C103      1.0  0.59110  0.42420  0.38170  1.0000 0.1777964465
C   C104      1.0  0.40890  0.57580  0.88170  1.0000 0.1777964465
C   C105      1.0  0.43200  0.66100  0.57420  1.0000 0.0420726693
C   C106      1.0  0.56800  0.33900  0.07420  1.0000 0.0420726693
C   C107      1.0  0.83900  0.93200  0.32420  1.0000 0.0420726693
C   C108      1.0  0.16100  0.06800  0.82420  1.0000 0.0420726693
C   C109      1.0  0.06800  0.16100  0.17580  1.0000 0.0420726693
C   C110      1.0  0.93200  0.83900  0.67580  1.0000 0.0420726693
C   C111      1.0  0.66100  0.43200  0.42580  1.0000 0.0420726693
C   C112      1.0  0.33900  0.56800  0.92580  1.0000 0.0420726693
C   C113      1.0  0.50400  0.66360  0.53720  1.0000 -0.1510843703
C   C114      1.0  0.49600  0.33640  0.03720  1.0000 -0.1510843703
C   C115      1.0  0.83640  0.00400  0.28720  1.0000 -0.1510843703
C   C116      1.0  0.16360  0.99600  0.78720  1.0000 -0.1510843703
C   C117      1.0  0.99600  0.16360  0.21280  1.0000 -0.1510843703
C   C118      1.0  0.00400  0.83640  0.71280  1.0000 -0.1510843703
C   C119      1.0  0.66360  0.50400  0.46280  1.0000 -0.1510843703
C   C120      1.0  0.33640  0.49600  0.96280  1.0000 -0.1510843703
C   C121      1.0  0.51400  0.72850  0.49690  1.0000 -0.1043517467
C   C122      1.0  0.48600  0.27150  0.99690  1.0000 -0.1043517467
C   C123      1.0  0.77150  0.01400  0.24690  1.0000 -0.1043517467
C   C124      1.0  0.22850  0.98600  0.74690  1.0000 -0.1043517467
C   C125      1.0  0.98600  0.22850  0.25310  1.0000 -0.1043517467
C   C126      1.0  0.01400  0.77150  0.75310  1.0000 -0.1043517467
C   C127      1.0  0.72850  0.51400  0.50310  1.0000 -0.1043517467
C   C128      1.0  0.27150  0.48600  0.00310  1.0000 -0.1043517467
C   C129      1.0  0.45580  0.79140  0.49150  1.0000 -0.1594893889
C   C130      1.0  0.54420  0.20860  0.99150  1.0000 -0.1594893889
C   C131      1.0  0.70860  0.95580  0.24150  1.0000 -0.1594893889
C   C132      1.0  0.29140  0.04420  0.74150  1.0000 -0.1594893889
C   C133      1.0  0.04420  0.29140  0.25850  1.0000 -0.1594893889
C   C134      1.0  0.95580  0.70860  0.75850  1.0000 -0.1594893889
C   C135      1.0  0.79140  0.45580  0.50850  1.0000 -0.1594893889
C   C136      1.0  0.20860  0.54420  0.00850  1.0000 -0.1594893889
C   C137      1.0  0.38420  0.79130  0.52960  1.0000 0.0721278532
C   C138      1.0  0.61580  0.20870  0.02960  1.0000 0.0721278532
C   C139      1.0  0.70870  0.88420  0.27960  1.0000 0.0721278532
C   C140      1.0  0.29130  0.11580  0.77960  1.0000 0.0721278532
C   C141      1.0  0.11580  0.29130  0.22040  1.0000 0.0721278532
C   C142      1.0  0.88420  0.70870  0.72040  1.0000 0.0721278532
C   C143      1.0  0.79130  0.38420  0.47040  1.0000 0.0721278532
C   C144      1.0  0.20870  0.61580  0.97040  1.0000 0.0721278532
C   C145      1.0  0.37330  0.72500  0.56990  1.0000 -0.1923092374
C   C146      1.0  0.62670  0.27500  0.06990  1.0000 -0.1923092374
C   C147      1.0  0.77500  0.87330  0.31990  1.0000 -0.1923092374
C   C148      1.0  0.22500  0.12670  0.81990  1.0000 -0.1923092374
C   C149      1.0  0.12670  0.22500  0.18010  1.0000 -0.1923092374
C   C150      1.0  0.87330  0.77500  0.68010  1.0000 -0.1923092374
C   C151      1.0  0.72500  0.37330  0.43010  1.0000 -0.1923092374
C   C152      1.0  0.27500  0.62670  0.93010  1.0000 -0.1923092374
C   C153      1.0  0.31830  0.85790  0.52350  1.0000 0.1104222086
C   C154      1.0  0.68170  0.14210  0.02350  1.0000 0.1104222086
C   C155      1.0  0.64210  0.81830  0.27350  1.0000 0.1104222086
C   C156      1.0  0.35790  0.18170  0.77350  1.0000 0.1104222086
C   C157      1.0  0.18170  0.35790  0.22650  1.0000 0.1104222086
C   C158      1.0  0.81830  0.64210  0.72650  1.0000 0.1104222086
C   C159      1.0  0.85790  0.31830  0.47650  1.0000 0.1104222086
C   C160      1.0  0.14210  0.68170  0.97650  1.0000 0.1104222086
C   C161      1.0  0.30860  0.90420  0.47170  1.0000 -0.1976905095
C   C162      1.0  0.69140  0.09580  0.97170  1.0000 -0.1976905095
C   C163      1.0  0.59580  0.80860  0.22170  1.0000 -0.1976905095
C   C164      1.0  0.40420  0.19140  0.72170  1.0000 -0.1976905095
C   C165      1.0  0.19140  0.40420  0.27830  1.0000 -0.1976905095
C   C166      1.0  0.80860  0.59580  0.77830  1.0000 -0.1976905095
C   C167      1.0  0.90420  0.30860  0.52830  1.0000 -0.1976905095
C   C168      1.0  0.09580  0.69140  0.02830  1.0000 -0.1976905095
C   C169      1.0  0.24210  0.96140  0.46450  1.0000 0.0766511641
C   C170      1.0  0.75790  0.03860  0.96450  1.0000 0.0766511641
C   C171      1.0  0.53860  0.74210  0.21450  1.0000 0.0766511641
C   C172      1.0  0.46140  0.25790  0.71450  1.0000 0.0766511641
C   C173      1.0  0.25790  0.46140  0.28550  1.0000 0.0766511641
C   C174      1.0  0.74210  0.53860  0.78550  1.0000 0.0766511641
C   C175      1.0  0.96140  0.24210  0.53550  1.0000 0.0766511641
C   C176      1.0  0.03860  0.75790  0.03550  1.0000 0.0766511641
C   C177      1.0  0.19740  0.93190  0.56160  1.0000 0.054635666
C   C178      1.0  0.80260  0.06810  0.06160  1.0000 0.054635666
C   C179      1.0  0.56810  0.69740  0.31160  1.0000 0.054635666
C   C180      1.0  0.43190  0.30260  0.81160  1.0000 0.054635666
C   C181      1.0  0.30260  0.43190  0.18840  1.0000 0.054635666
C   C182      1.0  0.69740  0.56810  0.68840  1.0000 0.054635666
C   C183      1.0  0.93190  0.19740  0.43840  1.0000 0.054635666
C   C184      1.0  0.06810  0.80260  0.93840  1.0000 0.054635666
C   C185      1.0  0.26080  0.87520  0.57060  1.0000 -0.1976905095
C   C186      1.0  0.73920  0.12480  0.07060  1.0000 -0.1976905095
C   C187      1.0  0.62480  0.76080  0.32060  1.0000 -0.1976905095
C   C188      1.0  0.37520  0.23920  0.82060  1.0000 -0.1976905095
C   C189      1.0  0.23920  0.37520  0.17940  1.0000 -0.1976905095
C   C190      1.0  0.76080  0.62480  0.67940  1.0000 -0.1976905095
C   C191      1.0  0.87520  0.26080  0.42940  1.0000 -0.1976905095
C   C192      1.0  0.12480  0.73920  0.92940  1.0000 -0.1976905095
N   N1        1.0  0.12420  0.12070  0.58630  1.0000 -0.2359765864
N   N2        1.0  0.87580  0.87930  0.08630  1.0000 -0.2359765864
N   N3        1.0  0.37930  0.62420  0.33630  1.0000 -0.2359765864
N   N4        1.0  0.62070  0.37580  0.83630  1.0000 -0.2359765864
N   N5        1.0  0.37580  0.62070  0.16370  1.0000 -0.2359765864
N   N6        1.0  0.62420  0.37930  0.66370  1.0000 -0.2359765864
N   N7        1.0  0.12070  0.12420  0.41370  1.0000 -0.2359765864
N   N8        1.0  0.87930  0.87580  0.91370  1.0000 -0.2359765864
N   N9        1.0  0.45600  0.49400  0.68400  1.0000 -0.2359765864
N   N10       1.0  0.54400  0.50600  0.18400  1.0000 -0.2359765864
N   N11       1.0  0.00600  0.95600  0.43400  1.0000 -0.2359765864
N   N12       1.0  0.99400  0.04400  0.93400  1.0000 -0.2359765864
N   N13       1.0  0.04400  0.99400  0.06600  1.0000 -0.2359765864
N   N14       1.0  0.95600  0.00600  0.56600  1.0000 -0.2359765864
N   N15       1.0  0.49400  0.45600  0.31600  1.0000 -0.2359765864
N   N16       1.0  0.50600  0.54400  0.81600  1.0000 -0.2359765864
N   N17       1.0  0.48830  0.55570  0.64530  1.0000 -0.272758297
N   N18       1.0  0.51170  0.44430  0.14530  1.0000 -0.272758297
N   N19       1.0  0.94430  0.98830  0.39530  1.0000 -0.272758297
N   N20       1.0  0.05570  0.01170  0.89530  1.0000 -0.272758297
N   N21       1.0  0.01170  0.05570  0.10470  1.0000 -0.272758297
N   N22       1.0  0.98830  0.94430  0.60470  1.0000 -0.272758297
N   N23       1.0  0.55570  0.48830  0.35470  1.0000 -0.272758297
N   N24       1.0  0.44430  0.51170  0.85470  1.0000 -0.272758297
N   N25       1.0  0.35100  0.55530  0.63910  1.0000 0.0629330545
N   N26       1.0  0.64900  0.44470  0.13910  1.0000 0.0629330545
N   N27       1.0  0.94470  0.85100  0.38910  1.0000 0.0629330545
N   N28       1.0  0.05530  0.14900  0.88910  1.0000 0.0629330545
N   N29       1.0  0.14900  0.05530  0.11090  1.0000 0.0629330545
N   N30       1.0  0.85100  0.94470  0.61090  1.0000 0.0629330545
N   N31       1.0  0.55530  0.35100  0.36090  1.0000 0.0629330545
N   N32       1.0  0.44470  0.64900  0.86090  1.0000 0.0629330545
N   N33       1.0  0.27000  0.57300  0.61690  1.0000 -0.4953868606
N   N34       1.0  0.73000  0.42700  0.11690  1.0000 -0.4953868606
N   N35       1.0  0.92700  0.77000  0.36690  1.0000 -0.4953868606
N   N36       1.0  0.07300  0.23000  0.86690  1.0000 -0.4953868606
N   N37       1.0  0.23000  0.07300  0.13310  1.0000 -0.4953868606
N   N38       1.0  0.77000  0.92700  0.63310  1.0000 -0.4953868606
N   N39       1.0  0.57300  0.27000  0.38310  1.0000 -0.4953868606
N   N40       1.0  0.42700  0.73000  0.88310  1.0000 -0.4953868606
N   N41       1.0  0.18630  0.97520  0.50880  1.0000 -0.2340143689
N   N42       1.0  0.81370  0.02480  0.00880  1.0000 -0.2340143689
N   N43       1.0  0.52480  0.68630  0.25880  1.0000 -0.2340143689
N   N44       1.0  0.47520  0.31370  0.75880  1.0000 -0.2340143689
N   N45       1.0  0.31370  0.47520  0.24120  1.0000 -0.2340143689
N   N46       1.0  0.68630  0.52480  0.74120  1.0000 -0.2340143689
N   N47       1.0  0.97520  0.18630  0.49120  1.0000 -0.2340143689
N   N48       1.0  0.02480  0.81370  0.99120  1.0000 -0.2340143689
Cl  Cl1       1.0  0.37671  0.37671  0.50000  1.0000 0.9072373889
Cl  Cl2       1.0  0.62329  0.62329  0.00000  1.0000 0.9043791077
Cl  Cl3       1.0  0.87671  0.12329  0.75000  1.0000 0.9043791077
Cl  Cl4       1.0  0.12329  0.87671  0.25000  1.0000 0.9072373889
O   O1        1.0  0.31660  0.38820  0.46370  1.0000 -0.332230381
O   O2        1.0  0.38820  0.31660  0.53630  1.0000 -0.332230381
O   O3        1.0  0.43470  0.37900  0.46230  1.0000 -0.3067637601
O   O4        1.0  0.37900  0.43470  0.53770  1.0000 -0.3067637601
O   O5        1.0  0.68340  0.61180  0.96370  1.0000 -0.332230381
O   O6        1.0  0.61180  0.68340  0.03630  1.0000 -0.332230381
O   O7        1.0  0.56530  0.62100  0.96230  1.0000 -0.3067637601
O   O8        1.0  0.62100  0.56530  0.03770  1.0000 -0.3067637601
O   O9        1.0  0.88820  0.18340  0.71370  1.0000 -0.332230381
O   O10       1.0  0.81660  0.11180  0.78630  1.0000 -0.332230381
O   O11       1.0  0.87900  0.06530  0.71230  1.0000 -0.3067637601
O   O12       1.0  0.93470  0.12100  0.78770  1.0000 -0.3067637601
O   O13       1.0  0.11180  0.81660  0.21370  1.0000 -0.332230381
O   O14       1.0  0.18340  0.88820  0.28630  1.0000 -0.332230381
O   O15       1.0  0.12100  0.93470  0.21230  1.0000 -0.3067637601
O   O16       1.0  0.06530  0.87900  0.28770  1.0000 -0.3067637601
