# DDEC6 charges by PACMAN v1.1 (https://github.com/mtap-research/PACMAN-charge/)
data_2010[MnMo][nan]3[ION]1
_chemical_formula_sum              "Mn12 Mo48 P32 H128 C32 N32 O264"
_cell_length_a       20.319
_cell_length_b       20.319
_cell_length_c       18.2339
_cell_angle_alpha    90
_cell_angle_beta     90
_cell_angle_gamma    90

_symmetry_space_group_name_H-M    "P 1"
_symmetry_Int_Tables_number       1

loop_
  _symmetry_equiv_pos_as_xyz
  'x, y, z'

loop_
  _atom_site_type_symbol
  _atom_site_label
  _atom_site_symmetry_multiplicity
  _atom_site_fract_x
  _atom_site_fract_y
  _atom_site_fract_z
  _atom_site_occupancy
  _atom_site_charge
Mn  Mn1       1.0  0.50553  0.28786  0.84320  1.0000 1.2372776951
Mn  Mn2       1.0  0.99447  0.21214  0.84320  1.0000 1.2372776951
Mn  Mn3       1.0  0.71214  0.00553  0.34320  1.0000 1.2372776951
Mn  Mn4       1.0  0.78786  0.49447  0.34320  1.0000 1.2372776951
Mn  Mn5       1.0  0.49447  0.71214  0.15680  1.0000 1.2372776951
Mn  Mn6       1.0  0.00553  0.78786  0.15680  1.0000 1.2372776951
Mn  Mn7       1.0  0.28786  0.99447  0.65680  1.0000 1.2372776951
Mn  Mn8       1.0  0.21214  0.50553  0.65680  1.0000 1.2372776951
Mn  Mn9       1.0  0.50000  0.00000  0.00000  1.0000 1.4057160701
Mn  Mn10      1.0  0.00000  0.50000  0.00000  1.0000 1.4057160701
Mn  Mn11      1.0  0.00000  0.00000  0.50000  1.0000 1.4047753896
Mn  Mn12      1.0  0.50000  0.50000  0.50000  1.0000 1.4047753896
Mo  Mo1       1.0  0.51343  0.00161  0.79039  1.0000 2.0303242291
Mo  Mo2       1.0  0.62981  0.98657  0.85007  1.0000 2.0516840603
Mo  Mo3       1.0  0.67263  0.07359  0.00559  1.0000 2.0303242291
Mo  Mo4       1.0  0.58778  0.15487  0.06254  1.0000 2.0303242291
Mo  Mo5       1.0  0.43035  0.17642  0.98691  1.0000 2.0516840603
Mo  Mo6       1.0  0.40269  0.11229  0.86789  1.0000 2.0303242291
Mo  Mo7       1.0  0.98657  0.49839  0.79039  1.0000 2.0303242291
Mo  Mo8       1.0  0.87019  0.51343  0.85007  1.0000 2.0516840603
Mo  Mo9       1.0  0.82737  0.42641  0.00559  1.0000 2.0303242291
Mo  Mo10      1.0  0.91222  0.34513  0.06254  1.0000 2.0303242291
Mo  Mo11      1.0  0.06965  0.32358  0.98691  1.0000 2.0516840603
Mo  Mo12      1.0  0.09731  0.38771  0.86789  1.0000 2.0303242291
Mo  Mo13      1.0  0.99839  0.01343  0.29039  1.0000 2.0303242291
Mo  Mo14      1.0  0.01343  0.12981  0.35007  1.0000 2.0516840603
Mo  Mo15      1.0  0.92641  0.17263  0.50559  1.0000 2.0303242291
Mo  Mo16      1.0  0.84513  0.08778  0.56254  1.0000 2.0303242291
Mo  Mo17      1.0  0.82358  0.93035  0.48691  1.0000 2.0516840603
Mo  Mo18      1.0  0.88771  0.90269  0.36789  1.0000 2.0303242291
Mo  Mo19      1.0  0.50161  0.48657  0.29039  1.0000 2.0303242291
Mo  Mo20      1.0  0.48657  0.37019  0.35007  1.0000 2.0516840603
Mo  Mo21      1.0  0.57359  0.32737  0.50559  1.0000 2.0303242291
Mo  Mo22      1.0  0.65487  0.41222  0.56254  1.0000 2.0303242291
Mo  Mo23      1.0  0.67642  0.56965  0.48691  1.0000 2.0516840603
Mo  Mo24      1.0  0.61229  0.59731  0.36789  1.0000 2.0303242291
Mo  Mo25      1.0  0.48657  0.99839  0.20961  1.0000 2.0303242291
Mo  Mo26      1.0  0.37019  0.01343  0.14993  1.0000 2.0516840603
Mo  Mo27      1.0  0.32737  0.92641  0.99441  1.0000 2.0303242291
Mo  Mo28      1.0  0.41222  0.84513  0.93746  1.0000 2.0303242291
Mo  Mo29      1.0  0.56965  0.82358  0.01309  1.0000 2.0516840603
Mo  Mo30      1.0  0.59731  0.88771  0.13211  1.0000 2.0303242291
Mo  Mo31      1.0  0.01343  0.50161  0.20961  1.0000 2.0303242291
Mo  Mo32      1.0  0.12981  0.48657  0.14993  1.0000 2.0516840603
Mo  Mo33      1.0  0.17263  0.57359  0.99441  1.0000 2.0303242291
Mo  Mo34      1.0  0.08778  0.65487  0.93746  1.0000 2.0303242291
Mo  Mo35      1.0  0.93035  0.67642  0.01309  1.0000 2.0516840603
Mo  Mo36      1.0  0.90269  0.61229  0.13211  1.0000 2.0303242291
Mo  Mo37      1.0  0.00161  0.98657  0.70961  1.0000 2.0303242291
Mo  Mo38      1.0  0.98657  0.87019  0.64993  1.0000 2.0516840603
Mo  Mo39      1.0  0.07359  0.82737  0.49441  1.0000 2.0303242291
Mo  Mo40      1.0  0.15487  0.91222  0.43746  1.0000 2.0303242291
Mo  Mo41      1.0  0.17642  0.06965  0.51309  1.0000 2.0516840603
Mo  Mo42      1.0  0.11229  0.09731  0.63211  1.0000 2.0303242291
Mo  Mo43      1.0  0.49839  0.51343  0.70961  1.0000 2.0303242291
Mo  Mo44      1.0  0.51343  0.62981  0.64993  1.0000 2.0516840603
Mo  Mo45      1.0  0.42641  0.67263  0.49441  1.0000 2.0303242291
Mo  Mo46      1.0  0.34513  0.58778  0.43746  1.0000 2.0303242291
Mo  Mo47      1.0  0.32358  0.43035  0.51309  1.0000 2.0516840603
Mo  Mo48      1.0  0.38771  0.40269  0.63211  1.0000 2.0303242291
P   P1        1.0  0.56410  0.14373  0.87755  1.0000 1.5760102954
P   P2        1.0  0.41947  0.10167  0.68433  1.0000 1.5522806878
P   P3        1.0  0.77926  0.05377  0.86932  1.0000 1.5396707143
P   P4        1.0  0.52723  0.30341  0.01963  1.0000 1.5396707143
P   P5        1.0  0.93590  0.35627  0.87755  1.0000 1.5760102954
P   P6        1.0  0.08053  0.39833  0.68433  1.0000 1.5522806878
P   P7        1.0  0.72074  0.44623  0.86932  1.0000 1.5396707143
P   P8        1.0  0.97277  0.19659  0.01963  1.0000 1.5396707143
P   P9        1.0  0.85627  0.06410  0.37755  1.0000 1.5760102954
P   P10       1.0  0.89833  0.91947  0.18433  1.0000 1.5522806878
P   P11       1.0  0.94623  0.27926  0.36932  1.0000 1.5396707143
P   P12       1.0  0.69659  0.02723  0.51963  1.0000 1.5396707143
P   P13       1.0  0.64373  0.43590  0.37755  1.0000 1.5760102954
P   P14       1.0  0.60167  0.58053  0.18433  1.0000 1.5522806878
P   P15       1.0  0.55377  0.22074  0.36932  1.0000 1.5396707143
P   P16       1.0  0.80341  0.47277  0.51963  1.0000 1.5396707143
P   P17       1.0  0.43590  0.85627  0.12245  1.0000 1.5745461072
P   P18       1.0  0.58053  0.89833  0.31567  1.0000 1.5522806878
P   P19       1.0  0.22074  0.94623  0.13068  1.0000 1.5396707143
P   P20       1.0  0.47277  0.69659  0.98037  1.0000 1.5396707143
P   P21       1.0  0.06410  0.64373  0.12245  1.0000 1.5760102954
P   P22       1.0  0.91947  0.60167  0.31567  1.0000 1.5522806878
P   P23       1.0  0.27926  0.55377  0.13068  1.0000 1.5396707143
P   P24       1.0  0.02723  0.80341  0.98037  1.0000 1.5396707143
P   P25       1.0  0.14373  0.93590  0.62245  1.0000 1.5745461072
P   P26       1.0  0.10167  0.08053  0.81567  1.0000 1.5522806878
P   P27       1.0  0.05377  0.72074  0.63068  1.0000 1.5396707143
P   P28       1.0  0.30341  0.97277  0.48037  1.0000 1.5396707143
P   P29       1.0  0.35627  0.56410  0.62245  1.0000 1.5760102954
P   P30       1.0  0.39833  0.41947  0.81567  1.0000 1.5522806878
P   P31       1.0  0.44623  0.77926  0.63068  1.0000 1.5396707143
P   P32       1.0  0.19659  0.52723  0.48037  1.0000 1.5396707143
H   H1        1.0  0.35720  0.84290  0.40060  1.0000 0.1295625336
H   H2        1.0  0.37010  0.77450  0.36350  1.0000 0.1180852215
H   H3        1.0  0.31120  0.80900  0.26050  1.0000 0.1131649354
H   H4        1.0  0.26720  0.80750  0.33100  1.0000 0.1180852215
H   H5        1.0  0.19790  0.70410  0.12800  1.0000 0.1180852215
H   H6        1.0  0.19690  0.76990  0.17310  1.0000 0.1131649354
H   H7        1.0  0.93600  0.01380  0.02650  1.0000 0.1180852215
H   H8        1.0  0.95290  0.95340  0.97620  1.0000 0.1295625336
H   H9        1.0  0.41840  0.86420  0.27870  1.0000 0.3102113739
H   H10       1.0  0.45770  0.84330  0.34360  1.0000 0.3102113739
H   H11       1.0  0.30800  0.92940  0.31350  1.0000 0.317815506
H   H12       1.0  0.25090  0.90690  0.26870  1.0000 0.3102113739
H   H13       1.0  0.21150  0.80240  0.03260  1.0000 0.3102113739
H   H14       1.0  0.14360  0.78710  0.05830  1.0000 0.3102113739
H   H15       1.0  0.98690  0.06150  0.90290  1.0000 0.2979531113
H   H16       1.0  0.91610  0.04260  0.90160  1.0000 0.3102113739
H   H17       1.0  0.14280  0.65710  0.40060  1.0000 0.1295625336
H   H18       1.0  0.12990  0.72550  0.36350  1.0000 0.1180852215
H   H19       1.0  0.18880  0.69100  0.26050  1.0000 0.1131649354
H   H20       1.0  0.23280  0.69250  0.33100  1.0000 0.1180852215
H   H21       1.0  0.30210  0.79590  0.12800  1.0000 0.1180852215
H   H22       1.0  0.30310  0.73010  0.17310  1.0000 0.1131649354
H   H23       1.0  0.56400  0.48620  0.02650  1.0000 0.1180852215
H   H24       1.0  0.54710  0.54660  0.97620  1.0000 0.1295625336
H   H25       1.0  0.08160  0.63580  0.27870  1.0000 0.3102113739
H   H26       1.0  0.04230  0.65670  0.34360  1.0000 0.3102113739
H   H27       1.0  0.19200  0.57060  0.31350  1.0000 0.317815506
H   H28       1.0  0.24910  0.59310  0.26870  1.0000 0.3102113739
H   H29       1.0  0.28850  0.69760  0.03260  1.0000 0.3102113739
H   H30       1.0  0.35640  0.71290  0.05830  1.0000 0.3102113739
H   H31       1.0  0.51310  0.43850  0.90290  1.0000 0.2979531113
H   H32       1.0  0.58390  0.45740  0.90160  1.0000 0.3102113739
H   H33       1.0  0.15710  0.85720  0.90060  1.0000 0.1295625336
H   H34       1.0  0.22550  0.87010  0.86350  1.0000 0.1180852215
H   H35       1.0  0.19100  0.81120  0.76050  1.0000 0.1131649354
H   H36       1.0  0.19250  0.76720  0.83100  1.0000 0.1180852215
H   H37       1.0  0.29590  0.69790  0.62800  1.0000 0.1180852215
H   H38       1.0  0.23010  0.69690  0.67310  1.0000 0.1131649354
H   H39       1.0  0.98620  0.43600  0.52650  1.0000 0.1180852215
H   H40       1.0  0.04660  0.45290  0.47620  1.0000 0.1295625336
H   H41       1.0  0.13580  0.91840  0.77870  1.0000 0.3102113739
H   H42       1.0  0.15670  0.95770  0.84360  1.0000 0.3102113739
H   H43       1.0  0.07060  0.80800  0.81350  1.0000 0.317815506
H   H44       1.0  0.09310  0.75090  0.76870  1.0000 0.3102113739
H   H45       1.0  0.19760  0.71150  0.53260  1.0000 0.3102113739
H   H46       1.0  0.21290  0.64360  0.55830  1.0000 0.3102113739
H   H47       1.0  0.93850  0.48690  0.40290  1.0000 0.2979531113
H   H48       1.0  0.95740  0.41610  0.40160  1.0000 0.3102113739
H   H49       1.0  0.34290  0.64280  0.90060  1.0000 0.1295625336
H   H50       1.0  0.27450  0.62990  0.86350  1.0000 0.1180852215
H   H51       1.0  0.30900  0.68880  0.76050  1.0000 0.1131649354
H   H52       1.0  0.30750  0.73280  0.83100  1.0000 0.1180852215
H   H53       1.0  0.20410  0.80210  0.62800  1.0000 0.1180852215
H   H54       1.0  0.26990  0.80310  0.67310  1.0000 0.1131649354
H   H55       1.0  0.51380  0.06400  0.52650  1.0000 0.1180852215
H   H56       1.0  0.45340  0.04710  0.47620  1.0000 0.1295625336
H   H57       1.0  0.36420  0.58160  0.77870  1.0000 0.3102113739
H   H58       1.0  0.34330  0.54230  0.84360  1.0000 0.3102113739
H   H59       1.0  0.42940  0.69200  0.81350  1.0000 0.317815506
H   H60       1.0  0.40690  0.74910  0.76870  1.0000 0.3102113739
H   H61       1.0  0.30240  0.78850  0.53260  1.0000 0.3102113739
H   H62       1.0  0.28710  0.85640  0.55830  1.0000 0.3102113739
H   H63       1.0  0.56150  0.01310  0.40290  1.0000 0.2979531113
H   H64       1.0  0.54260  0.08390  0.40160  1.0000 0.3102113739
H   H65       1.0  0.64280  0.15710  0.59940  1.0000 0.1295625336
H   H66       1.0  0.62990  0.22550  0.63650  1.0000 0.1180852215
H   H67       1.0  0.68880  0.19100  0.73950  1.0000 0.1131649354
H   H68       1.0  0.73280  0.19250  0.66900  1.0000 0.1180852215
H   H69       1.0  0.80210  0.29590  0.87200  1.0000 0.1180852215
H   H70       1.0  0.80310  0.23010  0.82690  1.0000 0.1131649354
H   H71       1.0  0.06400  0.98620  0.97350  1.0000 0.1180852215
H   H72       1.0  0.04710  0.04660  0.02380  1.0000 0.1295625336
H   H73       1.0  0.58160  0.13580  0.72130  1.0000 0.3102113739
H   H74       1.0  0.54230  0.15670  0.65640  1.0000 0.3102113739
H   H75       1.0  0.69200  0.07060  0.68650  1.0000 0.317815506
H   H76       1.0  0.74910  0.09310  0.73130  1.0000 0.3102113739
H   H77       1.0  0.78850  0.19760  0.96740  1.0000 0.3102113739
H   H78       1.0  0.85640  0.21290  0.94170  1.0000 0.3102113739
H   H79       1.0  0.01310  0.93850  0.09710  1.0000 0.2979531113
H   H80       1.0  0.08390  0.95740  0.09840  1.0000 0.3102113739
H   H81       1.0  0.85720  0.34290  0.59940  1.0000 0.1295625336
H   H82       1.0  0.87010  0.27450  0.63650  1.0000 0.1180852215
H   H83       1.0  0.81120  0.30900  0.73950  1.0000 0.1131649354
H   H84       1.0  0.76720  0.30750  0.66900  1.0000 0.1180852215
H   H85       1.0  0.69790  0.20410  0.87200  1.0000 0.1180852215
H   H86       1.0  0.69690  0.26990  0.82690  1.0000 0.1131649354
H   H87       1.0  0.43600  0.51380  0.97350  1.0000 0.1180852215
H   H88       1.0  0.45290  0.45340  0.02380  1.0000 0.1295625336
H   H89       1.0  0.91840  0.36420  0.72130  1.0000 0.3102113739
H   H90       1.0  0.95770  0.34330  0.65640  1.0000 0.3102113739
H   H91       1.0  0.80800  0.42940  0.68650  1.0000 0.317815506
H   H92       1.0  0.75090  0.40690  0.73130  1.0000 0.3102113739
H   H93       1.0  0.71150  0.30240  0.96740  1.0000 0.3102113739
H   H94       1.0  0.64360  0.28710  0.94170  1.0000 0.3102113739
H   H95       1.0  0.48690  0.56150  0.09710  1.0000 0.2979531113
H   H96       1.0  0.41610  0.54260  0.09840  1.0000 0.3102113739
H   H97       1.0  0.84290  0.14280  0.09940  1.0000 0.1295625336
H   H98       1.0  0.77450  0.12990  0.13650  1.0000 0.1180852215
H   H99       1.0  0.80900  0.18880  0.23950  1.0000 0.1131649354
H   H100      1.0  0.80750  0.23280  0.16900  1.0000 0.1180852215
H   H101      1.0  0.70410  0.30210  0.37200  1.0000 0.1180852215
H   H102      1.0  0.76990  0.30310  0.32690  1.0000 0.1131649354
H   H103      1.0  0.01380  0.56400  0.47350  1.0000 0.1180852215
H   H104      1.0  0.95340  0.54710  0.52380  1.0000 0.1295625336
H   H105      1.0  0.86420  0.08160  0.22130  1.0000 0.3102113739
H   H106      1.0  0.84330  0.04230  0.15640  1.0000 0.3102113739
H   H107      1.0  0.92940  0.19200  0.18650  1.0000 0.317815506
H   H108      1.0  0.90690  0.24910  0.23130  1.0000 0.3102113739
H   H109      1.0  0.80240  0.28850  0.46740  1.0000 0.3102113739
H   H110      1.0  0.78710  0.35640  0.44170  1.0000 0.3102113739
H   H111      1.0  0.06150  0.51310  0.59710  1.0000 0.2979531113
H   H112      1.0  0.04260  0.58390  0.59840  1.0000 0.3102113739
H   H113      1.0  0.65710  0.35720  0.09940  1.0000 0.1295625336
H   H114      1.0  0.72550  0.37010  0.13650  1.0000 0.1180852215
H   H115      1.0  0.69100  0.31120  0.23950  1.0000 0.1131649354
H   H116      1.0  0.69250  0.26720  0.16900  1.0000 0.1180852215
H   H117      1.0  0.79590  0.19790  0.37200  1.0000 0.1180852215
H   H118      1.0  0.73010  0.19690  0.32690  1.0000 0.1131649354
H   H119      1.0  0.48620  0.93600  0.47350  1.0000 0.1180852215
H   H120      1.0  0.54660  0.95290  0.52380  1.0000 0.1295625336
H   H121      1.0  0.63580  0.41840  0.22130  1.0000 0.3102113739
H   H122      1.0  0.65670  0.45770  0.15640  1.0000 0.3102113739
H   H123      1.0  0.57060  0.30800  0.18650  1.0000 0.317815506
H   H124      1.0  0.59310  0.25090  0.23130  1.0000 0.3102113739
H   H125      1.0  0.69760  0.21150  0.46740  1.0000 0.3102113739
H   H126      1.0  0.71290  0.14360  0.44170  1.0000 0.3102113739
H   H127      1.0  0.43850  0.98690  0.59710  1.0000 0.2979531113
H   H128      1.0  0.45740  0.91610  0.59840  1.0000 0.3102113739
C   C1        1.0  0.36390  0.82110  0.35390  1.0000 -0.021861283
C   C2        1.0  0.30370  0.83000  0.30750  1.0000 -0.0336893544
C   C3        1.0  0.21300  0.74940  0.12850  1.0000 -0.0441253147
C   C4        1.0  0.96450  0.99860  0.98740  1.0000 -0.021861283
C   C5        1.0  0.13610  0.67890  0.35390  1.0000 -0.021861283
C   C6        1.0  0.19630  0.67000  0.30750  1.0000 -0.0336893544
C   C7        1.0  0.28700  0.75060  0.12850  1.0000 -0.0441253147
C   C8        1.0  0.53550  0.50140  0.98740  1.0000 -0.021861283
C   C9        1.0  0.17890  0.86390  0.85390  1.0000 -0.021861283
C   C10       1.0  0.17000  0.80370  0.80750  1.0000 -0.0336893544
C   C11       1.0  0.25060  0.71300  0.62850  1.0000 -0.0441253147
C   C12       1.0  0.00140  0.46450  0.48740  1.0000 -0.021861283
C   C13       1.0  0.32110  0.63610  0.85390  1.0000 -0.021861283
C   C14       1.0  0.33000  0.69630  0.80750  1.0000 -0.0336893544
C   C15       1.0  0.24940  0.78700  0.62850  1.0000 -0.0441253147
C   C16       1.0  0.49860  0.03550  0.48740  1.0000 -0.021861283
C   C17       1.0  0.63610  0.17890  0.64610  1.0000 -0.021861283
C   C18       1.0  0.69630  0.17000  0.69250  1.0000 -0.0336893544
C   C19       1.0  0.78700  0.25060  0.87150  1.0000 -0.0441253147
C   C20       1.0  0.03550  0.00140  0.01260  1.0000 -0.021861283
C   C21       1.0  0.86390  0.32110  0.64610  1.0000 -0.021861283
C   C22       1.0  0.80370  0.33000  0.69250  1.0000 -0.0336893544
C   C23       1.0  0.71300  0.24940  0.87150  1.0000 -0.0441253147
C   C24       1.0  0.46450  0.49860  0.01260  1.0000 -0.021861283
C   C25       1.0  0.82110  0.13610  0.14610  1.0000 -0.021861283
C   C26       1.0  0.83000  0.19630  0.19250  1.0000 -0.0336893544
C   C27       1.0  0.74940  0.28700  0.37150  1.0000 -0.0441253147
C   C28       1.0  0.99860  0.53550  0.51260  1.0000 -0.021861283
C   C29       1.0  0.67890  0.36390  0.14610  1.0000 -0.021861283
C   C30       1.0  0.67000  0.30370  0.19250  1.0000 -0.0336893544
C   C31       1.0  0.75060  0.21300  0.37150  1.0000 -0.0441253147
C   C32       1.0  0.50140  0.96450  0.51260  1.0000 -0.021861283
N   N1        1.0  0.42060  0.84600  0.32120  1.0000 -0.3883953717
N   N2        1.0  0.28500  0.89800  0.29480  1.0000 -0.4299534282
N   N3        1.0  0.18560  0.78460  0.06410  1.0000 -0.3960417647
N   N4        1.0  0.95440  0.04000  0.92140  1.0000 -0.418293706
N   N5        1.0  0.07940  0.65400  0.32120  1.0000 -0.3883953717
N   N6        1.0  0.21500  0.60200  0.29480  1.0000 -0.4299534282
N   N7        1.0  0.31440  0.71540  0.06410  1.0000 -0.3960417647
N   N8        1.0  0.54560  0.46000  0.92140  1.0000 -0.418293706
N   N9        1.0  0.15400  0.92060  0.82120  1.0000 -0.3883953717
N   N10       1.0  0.10200  0.78500  0.79480  1.0000 -0.4299534282
N   N11       1.0  0.21540  0.68560  0.56410  1.0000 -0.3960417647
N   N12       1.0  0.96000  0.45440  0.42140  1.0000 -0.418293706
N   N13       1.0  0.34600  0.57940  0.82120  1.0000 -0.3883953717
N   N14       1.0  0.39800  0.71500  0.79480  1.0000 -0.4299534282
N   N15       1.0  0.28460  0.81440  0.56410  1.0000 -0.3960417647
N   N16       1.0  0.54000  0.04560  0.42140  1.0000 -0.418293706
N   N17       1.0  0.57940  0.15400  0.67880  1.0000 -0.3883953717
N   N18       1.0  0.71500  0.10200  0.70520  1.0000 -0.4390356972
N   N19       1.0  0.81440  0.21540  0.93590  1.0000 -0.3960417647
N   N20       1.0  0.04560  0.96000  0.07860  1.0000 -0.418293706
N   N21       1.0  0.92060  0.34600  0.67880  1.0000 -0.3883953717
N   N22       1.0  0.78500  0.39800  0.70520  1.0000 -0.4390356972
N   N23       1.0  0.68560  0.28460  0.93590  1.0000 -0.3960417647
N   N24       1.0  0.45440  0.54000  0.07860  1.0000 -0.418293706
N   N25       1.0  0.84600  0.07940  0.17880  1.0000 -0.3883953717
N   N26       1.0  0.89800  0.21500  0.20520  1.0000 -0.4299534282
N   N27       1.0  0.78460  0.31440  0.43590  1.0000 -0.3960417647
N   N28       1.0  0.04000  0.54560  0.57860  1.0000 -0.418293706
N   N29       1.0  0.65400  0.42060  0.17880  1.0000 -0.3883953717
N   N30       1.0  0.60200  0.28500  0.20520  1.0000 -0.4299534282
N   N31       1.0  0.71540  0.18560  0.43590  1.0000 -0.3960417647
N   N32       1.0  0.46000  0.95440  0.57860  1.0000 -0.418293706
O   O1        1.0  0.54069  0.98009  0.89174  1.0000 -0.867978502
O   O2        1.0  0.43459  0.08147  0.96429  1.0000 -0.859753779
O   O3        1.0  0.64328  0.90867  0.82520  1.0000 -0.4299534282
O   O4        1.0  0.80802  0.10541  0.81914  1.0000 -0.6307147135
O   O5        1.0  0.62198  0.09714  0.88979  1.0000 -0.8334301998
O   O6        1.0  0.58060  0.06113  0.03506  1.0000 -0.867978502
O   O7        1.0  0.60119  0.03012  0.75857  1.0000 -0.8084908303
O   O8        1.0  0.66347  0.98551  0.95381  1.0000 -0.8084908303
O   O9        1.0  0.42600  0.20468  0.88422  1.0000 -0.8429560502
O   O10       1.0  0.35380  0.18536  0.02084  1.0000 -0.4716762964
O   O11       1.0  0.50380  0.92648  0.75376  1.0000 -0.4390356972
O   O12       1.0  0.47553  0.05136  0.70049  1.0000 -0.766756464
O   O13       1.0  0.71289  0.04693  0.08023  1.0000 -0.4857435014
O   O14       1.0  0.60800  0.15041  0.15151  1.0000 -0.4602823657
O   O15       1.0  0.67152  0.16908  0.01404  1.0000 -0.8181939189
O   O16       1.0  0.75160  0.08928  0.93943  1.0000 -0.766756464
O   O17       1.0  0.55330  0.32016  0.94272  1.0000 -0.7516224597
O   O18       1.0  0.50876  0.10310  0.83976  1.0000 -0.8429560502
O   O19       1.0  0.41730  0.01369  0.83358  1.0000 -0.7793961877
O   O20       1.0  0.39865  0.13457  0.75757  1.0000 -0.7418562685
O   O21       1.0  0.57831  0.20373  0.83130  1.0000 -0.7037316774
O   O22       1.0  0.44780  0.15537  0.63549  1.0000 -0.6307147135
O   O23       1.0  0.36094  0.06850  0.64921  1.0000 -0.7576825435
O   O24       1.0  0.46059  0.26865  0.01152  1.0000 -0.7418562685
O   O25       1.0  0.82923  0.00195  0.89460  1.0000 -0.668090484
O   O26       1.0  0.53884  0.16642  0.95390  1.0000 -0.867978502
O   O27       1.0  0.48351  0.15292  0.08061  1.0000 -0.8021479388
O   O28       1.0  0.57720  0.25541  0.05781  1.0000 -0.766756464
O   O29       1.0  0.52060  0.36389  0.06630  1.0000 -0.6881324713
O   O30       1.0  0.72244  0.01953  0.82750  1.0000 -0.7576825435
O   O31       1.0  0.32083  0.10903  0.87900  1.0000 -0.4390356972
O   O32       1.0  0.57354  0.35241  0.78435  1.0000 0.0099366934
O   O33       1.0  0.47260  0.26059  0.73281  1.0000 0.0192496864
O   O34       1.0  0.95931  0.51991  0.89174  1.0000 -0.867978502
O   O35       1.0  0.06541  0.41853  0.96429  1.0000 -0.859753779
O   O36       1.0  0.85672  0.59133  0.82520  1.0000 -0.4299534282
O   O37       1.0  0.69198  0.39459  0.81914  1.0000 -0.6307147135
O   O38       1.0  0.87802  0.40286  0.88979  1.0000 -0.8334301998
O   O39       1.0  0.91940  0.43887  0.03506  1.0000 -0.867978502
O   O40       1.0  0.89881  0.46988  0.75857  1.0000 -0.8084908303
O   O41       1.0  0.83653  0.51449  0.95381  1.0000 -0.8084908303
O   O42       1.0  0.07400  0.29532  0.88422  1.0000 -0.8429560502
O   O43       1.0  0.14620  0.31464  0.02084  1.0000 -0.4716762964
O   O44       1.0  0.99620  0.57352  0.75376  1.0000 -0.4390356972
O   O45       1.0  0.02447  0.44864  0.70049  1.0000 -0.766756464
O   O46       1.0  0.78711  0.45307  0.08023  1.0000 -0.4857435014
O   O47       1.0  0.89200  0.34959  0.15151  1.0000 -0.4602823657
O   O48       1.0  0.82848  0.33092  0.01404  1.0000 -0.8181939189
O   O49       1.0  0.74840  0.41072  0.93943  1.0000 -0.766756464
O   O50       1.0  0.94670  0.17984  0.94272  1.0000 -0.7516224597
O   O51       1.0  0.99124  0.39690  0.83976  1.0000 -0.8429560502
O   O52       1.0  0.08270  0.48631  0.83358  1.0000 -0.7793961877
O   O53       1.0  0.10135  0.36543  0.75757  1.0000 -0.7418562685
O   O54       1.0  0.92169  0.29627  0.83130  1.0000 -0.7037316774
O   O55       1.0  0.05220  0.34463  0.63549  1.0000 -0.6307147135
O   O56       1.0  0.13906  0.43150  0.64921  1.0000 -0.7576825435
O   O57       1.0  0.03941  0.23135  0.01152  1.0000 -0.7418562685
O   O58       1.0  0.67077  0.49805  0.89460  1.0000 -0.668090484
O   O59       1.0  0.96116  0.33358  0.95390  1.0000 -0.867978502
O   O60       1.0  0.01649  0.34708  0.08061  1.0000 -0.8021479388
O   O61       1.0  0.92280  0.24459  0.05781  1.0000 -0.766756464
O   O62       1.0  0.97940  0.13611  0.06630  1.0000 -0.6881324713
O   O63       1.0  0.77756  0.48047  0.82750  1.0000 -0.7576825435
O   O64       1.0  0.17917  0.39097  0.87900  1.0000 -0.4299534282
O   O65       1.0  0.92646  0.14759  0.78435  1.0000 0.0099366934
O   O66       1.0  0.02740  0.23941  0.73281  1.0000 0.0192496864
O   O67       1.0  0.01991  0.04069  0.39174  1.0000 -0.867978502
O   O68       1.0  0.91853  0.93459  0.46429  1.0000 -0.859753779
O   O69       1.0  0.09133  0.14328  0.32520  1.0000 -0.4299534282
O   O70       1.0  0.89459  0.30802  0.31914  1.0000 -0.6307147135
O   O71       1.0  0.90286  0.12198  0.38979  1.0000 -0.8334301998
O   O72       1.0  0.93887  0.08060  0.53506  1.0000 -0.867978502
O   O73       1.0  0.96988  0.10119  0.25857  1.0000 -0.8084908303
O   O74       1.0  0.01449  0.16347  0.45381  1.0000 -0.8021479388
O   O75       1.0  0.79532  0.92600  0.38422  1.0000 -0.8429560502
O   O76       1.0  0.81464  0.85380  0.52084  1.0000 -0.4716762964
O   O77       1.0  0.07352  0.00380  0.25376  1.0000 -0.4390356972
O   O78       1.0  0.94864  0.97553  0.20049  1.0000 -0.766756464
O   O79       1.0  0.95307  0.21289  0.58023  1.0000 -0.4857435014
O   O80       1.0  0.84959  0.10800  0.65151  1.0000 -0.4602823657
O   O81       1.0  0.83092  0.17152  0.51404  1.0000 -0.8181939189
O   O82       1.0  0.91072  0.25160  0.43943  1.0000 -0.766756464
O   O83       1.0  0.67984  0.05330  0.44272  1.0000 -0.7516224597
O   O84       1.0  0.89690  0.00876  0.33976  1.0000 -0.8429560502
O   O85       1.0  0.98631  0.91730  0.33358  1.0000 -0.7793961877
O   O86       1.0  0.86543  0.89865  0.25757  1.0000 -0.7418562685
O   O87       1.0  0.79627  0.07831  0.33130  1.0000 -0.7062297975
O   O88       1.0  0.84463  0.94780  0.13549  1.0000 -0.6307147135
O   O89       1.0  0.93150  0.86094  0.14921  1.0000 -0.7576825435
O   O90       1.0  0.73135  0.96059  0.51152  1.0000 -0.7418562685
O   O91       1.0  0.99805  0.32923  0.39460  1.0000 -0.668090484
O   O92       1.0  0.83358  0.03884  0.45390  1.0000 -0.867978502
O   O93       1.0  0.84708  0.98351  0.58061  1.0000 -0.8021479388
O   O94       1.0  0.74459  0.07720  0.55781  1.0000 -0.766756464
O   O95       1.0  0.63611  0.02060  0.56630  1.0000 -0.6881324713
O   O96       1.0  0.98047  0.22244  0.32750  1.0000 -0.7576825435
O   O97       1.0  0.89097  0.82083  0.37900  1.0000 -0.4390356972
O   O98       1.0  0.64759  0.07354  0.28435  1.0000 0.0192496864
O   O99       1.0  0.73941  0.97260  0.23281  1.0000 0.0319001508
O   O100      1.0  0.48009  0.45931  0.39174  1.0000 -0.867978502
O   O101      1.0  0.58147  0.56541  0.46429  1.0000 -0.859753779
O   O102      1.0  0.40867  0.35672  0.32520  1.0000 -0.4299534282
O   O103      1.0  0.60541  0.19198  0.31914  1.0000 -0.6307147135
O   O104      1.0  0.59714  0.37802  0.38979  1.0000 -0.8334301998
O   O105      1.0  0.56113  0.41940  0.53506  1.0000 -0.867978502
O   O106      1.0  0.53012  0.39881  0.25857  1.0000 -0.8084908303
O   O107      1.0  0.48551  0.33653  0.45381  1.0000 -0.8084908303
O   O108      1.0  0.70468  0.57400  0.38422  1.0000 -0.8429560502
O   O109      1.0  0.68536  0.64620  0.52084  1.0000 -0.4716762964
O   O110      1.0  0.42648  0.49620  0.25376  1.0000 -0.4390356972
O   O111      1.0  0.55136  0.52447  0.20049  1.0000 -0.766756464
O   O112      1.0  0.54693  0.28711  0.58023  1.0000 -0.4843195294
O   O113      1.0  0.65041  0.39200  0.65151  1.0000 -0.4602823657
O   O114      1.0  0.66908  0.32848  0.51404  1.0000 -0.8181939189
O   O115      1.0  0.58928  0.24840  0.43943  1.0000 -0.766756464
O   O116      1.0  0.82016  0.44670  0.44272  1.0000 -0.7516224597
O   O117      1.0  0.60310  0.49124  0.33976  1.0000 -0.8429560502
O   O118      1.0  0.51369  0.58270  0.33358  1.0000 -0.7793961877
O   O119      1.0  0.63457  0.60135  0.25757  1.0000 -0.7418562685
O   O120      1.0  0.70373  0.42169  0.33130  1.0000 -0.7062297975
O   O121      1.0  0.65537  0.55220  0.13549  1.0000 -0.6307147135
O   O122      1.0  0.56850  0.63906  0.14921  1.0000 -0.7576825435
O   O123      1.0  0.76865  0.53941  0.51152  1.0000 -0.7418562685
O   O124      1.0  0.50195  0.17077  0.39460  1.0000 -0.668090484
O   O125      1.0  0.66642  0.46116  0.45390  1.0000 -0.867978502
O   O126      1.0  0.65292  0.51649  0.58061  1.0000 -0.8021479388
O   O127      1.0  0.75541  0.42280  0.55781  1.0000 -0.766756464
O   O128      1.0  0.86389  0.47940  0.56630  1.0000 -0.6881324713
O   O129      1.0  0.51953  0.27756  0.32750  1.0000 -0.7576825435
O   O130      1.0  0.60903  0.67917  0.37900  1.0000 -0.4390356972
O   O131      1.0  0.85241  0.42646  0.28435  1.0000 0.0192496864
O   O132      1.0  0.76059  0.52740  0.23281  1.0000 0.0319001508
O   O133      1.0  0.45931  0.01991  0.10826  1.0000 -0.867978502
O   O134      1.0  0.56541  0.91853  0.03571  1.0000 -0.859753779
O   O135      1.0  0.35672  0.09133  0.17480  1.0000 -0.4299534282
O   O136      1.0  0.19198  0.89459  0.18086  1.0000 -0.6307147135
O   O137      1.0  0.37802  0.90286  0.11021  1.0000 -0.8334301998
O   O138      1.0  0.41940  0.93887  0.96494  1.0000 -0.867978502
O   O139      1.0  0.39881  0.96988  0.24143  1.0000 -0.8084908303
O   O140      1.0  0.33653  0.01449  0.04619  1.0000 -0.8084908303
O   O141      1.0  0.57400  0.79532  0.11578  1.0000 -0.8429560502
O   O142      1.0  0.64620  0.81464  0.97916  1.0000 -0.4716762964
O   O143      1.0  0.49620  0.07352  0.24624  1.0000 -0.4390356972
O   O144      1.0  0.52447  0.94864  0.29951  1.0000 -0.7576825435
O   O145      1.0  0.28711  0.95307  0.91977  1.0000 -0.4857435014
O   O146      1.0  0.39200  0.84959  0.84849  1.0000 -0.4602823657
O   O147      1.0  0.32848  0.83092  0.98596  1.0000 -0.8181939189
O   O148      1.0  0.24840  0.91072  0.06057  1.0000 -0.766756464
O   O149      1.0  0.44670  0.67984  0.05728  1.0000 -0.7516224597
O   O150      1.0  0.49124  0.89690  0.16024  1.0000 -0.8429560502
O   O151      1.0  0.58270  0.98631  0.16642  1.0000 -0.7793961877
O   O152      1.0  0.60135  0.86543  0.24243  1.0000 -0.7418562685
O   O153      1.0  0.42169  0.79627  0.16870  1.0000 -0.7037316774
O   O154      1.0  0.55220  0.84463  0.36451  1.0000 -0.6307147135
O   O155      1.0  0.63906  0.93150  0.35079  1.0000 -0.7576825435
O   O156      1.0  0.53941  0.73135  0.98848  1.0000 -0.7418562685
O   O157      1.0  0.17077  0.99805  0.10540  1.0000 -0.668090484
O   O158      1.0  0.46116  0.83358  0.04610  1.0000 -0.859753779
O   O159      1.0  0.51649  0.84708  0.91939  1.0000 -0.8021479388
O   O160      1.0  0.42280  0.74459  0.94219  1.0000 -0.766756464
O   O161      1.0  0.47940  0.63611  0.93370  1.0000 -0.6881324713
O   O162      1.0  0.27756  0.98047  0.17250  1.0000 -0.7576825435
O   O163      1.0  0.67917  0.89097  0.12100  1.0000 -0.4390356972
O   O164      1.0  0.42646  0.64759  0.21565  1.0000 0.0099366934
O   O165      1.0  0.52740  0.73941  0.26719  1.0000 0.0319001508
O   O166      1.0  0.04069  0.48009  0.10826  1.0000 -0.867978502
O   O167      1.0  0.93459  0.58147  0.03571  1.0000 -0.859753779
O   O168      1.0  0.14328  0.40867  0.17480  1.0000 -0.4299534282
O   O169      1.0  0.30802  0.60541  0.18086  1.0000 -0.6307147135
O   O170      1.0  0.12198  0.59714  0.11021  1.0000 -0.8334301998
O   O171      1.0  0.08060  0.56113  0.96494  1.0000 -0.867978502
O   O172      1.0  0.10119  0.53012  0.24143  1.0000 -0.8084908303
O   O173      1.0  0.16347  0.48551  0.04619  1.0000 -0.8084908303
O   O174      1.0  0.92600  0.70468  0.11578  1.0000 -0.8429560502
O   O175      1.0  0.85380  0.68536  0.97916  1.0000 -0.4716762964
O   O176      1.0  0.00380  0.42648  0.24624  1.0000 -0.4390356972
O   O177      1.0  0.97553  0.55136  0.29951  1.0000 -0.7576825435
O   O178      1.0  0.21289  0.54693  0.91977  1.0000 -0.4857435014
O   O179      1.0  0.10800  0.65041  0.84849  1.0000 -0.4602823657
O   O180      1.0  0.17152  0.66908  0.98596  1.0000 -0.8181939189
O   O181      1.0  0.25160  0.58928  0.06057  1.0000 -0.766756464
O   O182      1.0  0.05330  0.82016  0.05728  1.0000 -0.7516224597
O   O183      1.0  0.00876  0.60310  0.16024  1.0000 -0.8429560502
O   O184      1.0  0.91730  0.51369  0.16642  1.0000 -0.7793961877
O   O185      1.0  0.89865  0.63457  0.24243  1.0000 -0.7418562685
O   O186      1.0  0.07831  0.70373  0.16870  1.0000 -0.7037316774
O   O187      1.0  0.94780  0.65537  0.36451  1.0000 -0.6307147135
O   O188      1.0  0.86094  0.56850  0.35079  1.0000 -0.7576825435
O   O189      1.0  0.96059  0.76865  0.98848  1.0000 -0.7418562685
O   O190      1.0  0.32923  0.50195  0.10540  1.0000 -0.668090484
O   O191      1.0  0.03884  0.66642  0.04610  1.0000 -0.859753779
O   O192      1.0  0.98351  0.65292  0.91939  1.0000 -0.8084908303
O   O193      1.0  0.07720  0.75541  0.94219  1.0000 -0.766756464
O   O194      1.0  0.02060  0.86389  0.93370  1.0000 -0.6881324713
O   O195      1.0  0.22244  0.51953  0.17250  1.0000 -0.7576825435
O   O196      1.0  0.82083  0.60903  0.12100  1.0000 -0.4390356972
O   O197      1.0  0.07354  0.85241  0.21565  1.0000 0.0099366934
O   O198      1.0  0.97260  0.76059  0.26719  1.0000 0.0319001508
O   O199      1.0  0.98009  0.95931  0.60826  1.0000 -0.867978502
O   O200      1.0  0.08147  0.06541  0.53571  1.0000 -0.859753779
O   O201      1.0  0.90867  0.85672  0.67480  1.0000 -0.4299534282
O   O202      1.0  0.10541  0.69198  0.68086  1.0000 -0.6307147135
O   O203      1.0  0.09714  0.87802  0.61021  1.0000 -0.8334301998
O   O204      1.0  0.06113  0.91940  0.46494  1.0000 -0.867978502
O   O205      1.0  0.03012  0.89881  0.74143  1.0000 -0.8084908303
O   O206      1.0  0.98551  0.83653  0.54619  1.0000 -0.8084908303
O   O207      1.0  0.20468  0.07400  0.61578  1.0000 -0.8429560502
O   O208      1.0  0.18536  0.14620  0.47916  1.0000 -0.4716762964
O   O209      1.0  0.92648  0.99620  0.74624  1.0000 -0.4390356972
O   O210      1.0  0.05136  0.02447  0.79951  1.0000 -0.766756464
O   O211      1.0  0.04693  0.78711  0.41977  1.0000 -0.4857435014
O   O212      1.0  0.15041  0.89200  0.34849  1.0000 -0.4602823657
O   O213      1.0  0.16908  0.82848  0.48596  1.0000 -0.8181939189
O   O214      1.0  0.08928  0.74840  0.56057  1.0000 -0.766756464
O   O215      1.0  0.32016  0.94670  0.55728  1.0000 -0.7516224597
O   O216      1.0  0.10310  0.99124  0.66024  1.0000 -0.8429560502
O   O217      1.0  0.01369  0.08270  0.66642  1.0000 -0.766756464
O   O218      1.0  0.13457  0.10135  0.74243  1.0000 -0.7418562685
O   O219      1.0  0.20373  0.92169  0.66870  1.0000 -0.7062297975
O   O220      1.0  0.15537  0.05220  0.86451  1.0000 -0.6307147135
O   O221      1.0  0.06850  0.13906  0.85079  1.0000 -0.7576825435
O   O222      1.0  0.26865  0.03941  0.48848  1.0000 -0.7418562685
O   O223      1.0  0.00195  0.67077  0.60540  1.0000 -0.668090484
O   O224      1.0  0.16642  0.96116  0.54610  1.0000 -0.867978502
O   O225      1.0  0.15292  0.01649  0.41939  1.0000 -0.8021479388
O   O226      1.0  0.25541  0.92280  0.44219  1.0000 -0.766756464
O   O227      1.0  0.36389  0.97940  0.43370  1.0000 -0.6881324713
O   O228      1.0  0.01953  0.77756  0.67250  1.0000 -0.7576825435
O   O229      1.0  0.10903  0.17917  0.62100  1.0000 -0.4299534282
O   O230      1.0  0.35241  0.92646  0.71565  1.0000 0.0099366934
O   O231      1.0  0.26059  0.02740  0.76719  1.0000 0.0192496864
O   O232      1.0  0.51991  0.54069  0.60826  1.0000 -0.867978502
O   O233      1.0  0.41853  0.43459  0.53571  1.0000 -0.859753779
O   O234      1.0  0.59133  0.64328  0.67480  1.0000 -0.4299534282
O   O235      1.0  0.39459  0.80802  0.68086  1.0000 -0.6307147135
O   O236      1.0  0.40286  0.62198  0.61021  1.0000 -0.8334301998
O   O237      1.0  0.43887  0.58060  0.46494  1.0000 -0.867978502
O   O238      1.0  0.46988  0.60119  0.74143  1.0000 -0.8084908303
O   O239      1.0  0.51449  0.66347  0.54619  1.0000 -0.8084908303
O   O240      1.0  0.29532  0.42600  0.61578  1.0000 -0.8429560502
O   O241      1.0  0.31464  0.35380  0.47916  1.0000 -0.4716762964
O   O242      1.0  0.57352  0.50380  0.74624  1.0000 -0.4390356972
O   O243      1.0  0.44864  0.47553  0.79951  1.0000 -0.766756464
O   O244      1.0  0.45307  0.71289  0.41977  1.0000 -0.4857435014
O   O245      1.0  0.34959  0.60800  0.34849  1.0000 -0.4602823657
O   O246      1.0  0.33092  0.67152  0.48596  1.0000 -0.8181939189
O   O247      1.0  0.41072  0.75160  0.56057  1.0000 -0.766756464
O   O248      1.0  0.17984  0.55330  0.55728  1.0000 -0.7516224597
O   O249      1.0  0.39690  0.50876  0.66024  1.0000 -0.8429560502
O   O250      1.0  0.48631  0.41730  0.66642  1.0000 -0.766756464
O   O251      1.0  0.36543  0.39865  0.74243  1.0000 -0.7418562685
O   O252      1.0  0.29627  0.57831  0.66870  1.0000 -0.7062297975
O   O253      1.0  0.34463  0.44780  0.86451  1.0000 -0.6307147135
O   O254      1.0  0.43150  0.36094  0.85079  1.0000 -0.7576825435
O   O255      1.0  0.23135  0.46059  0.48848  1.0000 -0.7418562685
O   O256      1.0  0.49805  0.82923  0.60540  1.0000 -0.668090484
O   O257      1.0  0.33358  0.53884  0.54610  1.0000 -0.867978502
O   O258      1.0  0.34708  0.48351  0.41939  1.0000 -0.8021479388
O   O259      1.0  0.24459  0.57720  0.44219  1.0000 -0.766756464
O   O260      1.0  0.13611  0.52060  0.43370  1.0000 -0.6881324713
O   O261      1.0  0.48047  0.72244  0.67250  1.0000 -0.7576825435
O   O262      1.0  0.39097  0.32083  0.62100  1.0000 -0.4299534282
O   O263      1.0  0.14759  0.57354  0.71565  1.0000 0.0099366934
O   O264      1.0  0.23941  0.47260  0.76719  1.0000 0.0192496864
