# DDEC6 charges by PACMAN v1.1 (https://github.com/mtap-research/PACMAN-charge/)
data_2010[GdNa][nan]3[ION]1
_chemical_formula_sum              "Na16 Gd8 H176 C164 N24 O118"
_cell_length_a       18.5386
_cell_length_b       18.6236
_cell_length_c       27.2733
_cell_angle_alpha    92.986
_cell_angle_beta     107.871
_cell_angle_gamma    107.624

_symmetry_space_group_name_H-M    "P 1"
_symmetry_Int_Tables_number       1

loop_
  _symmetry_equiv_pos_as_xyz
  'x, y, z'

loop_
  _atom_site_type_symbol
  _atom_site_label
  _atom_site_symmetry_multiplicity
  _atom_site_fract_x
  _atom_site_fract_y
  _atom_site_fract_z
  _atom_site_occupancy
  _atom_site_charge
Na  Na1       1.0  0.63792  0.17586  0.00540  1.0000 0.8669426547
Na  Na2       1.0  0.86473  0.32655  0.00293  1.0000 0.8615650045
Na  Na3       1.0  0.82509  0.28230  0.14436  1.0000 0.8773270951
Na  Na4       1.0  0.81820  0.50190  0.05160  1.0000 0.8388943778
Na  Na5       1.0  0.74110  0.02260  0.04730  1.0000 0.8615650045
Na  Na6       1.0  0.82970  0.78450  0.14570  1.0000 0.8615650045
Na  Na7       1.0  0.66840  0.58130  0.05770  1.0000 0.8472319947
Na  Na8       1.0  0.97630  0.30930  0.29220  1.0000 0.8900500642
Na  Na9       1.0  0.36208  0.82414  0.99460  1.0000 0.8669426547
Na  Na10      1.0  0.13527  0.67345  0.99707  1.0000 0.8615650045
Na  Na11      1.0  0.17491  0.71770  0.85564  1.0000 0.8773270951
Na  Na12      1.0  0.18180  0.49810  0.94840  1.0000 0.8388943778
Na  Na13      1.0  0.25890  0.97740  0.95270  1.0000 0.8615650045
Na  Na14      1.0  0.17030  0.21550  0.85430  1.0000 0.8615650045
Na  Na15      1.0  0.33160  0.41870  0.94230  1.0000 0.8472319947
Na  Na16      1.0  0.02370  0.69070  0.70780  1.0000 0.8900500642
Gd  Gd1       1.0  0.51076  0.23482  0.89861  1.0000 1.8235963093
Gd  Gd2       1.0  0.51597  0.31107  0.12627  1.0000 1.7734375106
Gd  Gd3       1.0  0.87630  0.21949  0.89369  1.0000 1.8399951564
Gd  Gd4       1.0  0.11139  0.24585  0.12051  1.0000 1.7734375106
Gd  Gd5       1.0  0.48924  0.76518  0.10139  1.0000 1.8235963093
Gd  Gd6       1.0  0.48403  0.68893  0.87373  1.0000 1.7750530349
Gd  Gd7       1.0  0.12370  0.78051  0.10631  1.0000 1.8399951564
Gd  Gd8       1.0  0.88861  0.75415  0.87949  1.0000 1.7734375106
H   H1        1.0  0.72440  0.42910  0.91850  1.0000 0.1513512103
H   H2        1.0  0.65620  0.43430  0.94190  1.0000 0.159754573
H   H3        1.0  0.59870  0.42360  0.82280  1.0000 0.1310279438
H   H4        1.0  0.57090  0.44170  0.87090  1.0000 0.1513512103
H   H5        1.0  0.68930  0.29700  0.86720  1.0000 0.1513512103
H   H6        1.0  0.68660  0.36370  0.83230  1.0000 0.1310279438
H   H7        1.0  0.61760  0.31120  0.73870  1.0000 0.1513512103
H   H8        1.0  0.42940  0.11730  0.69670  1.0000 0.1513512103
H   H9        1.0  0.49280  0.06150  0.80970  1.0000 0.1387238549
H   H10       1.0  0.40620  0.04550  0.76650  1.0000 0.1387238549
H   H11       1.0  0.39300  0.99430  0.84680  1.0000 0.159754573
H   H12       1.0  0.38200  0.04800  0.89010  1.0000 0.159754573
H   H13       1.0  0.29800  0.06230  0.79610  1.0000 0.1513512103
H   H14       1.0  0.34160  0.14600  0.78600  1.0000 0.1513512103
H   H15       1.0  0.38430  0.18910  0.52210  1.0000 0.1387238549
H   H16       1.0  0.39200  0.20360  0.43830  1.0000 0.1310279438
H   H17       1.0  0.63130  0.31180  0.49710  1.0000 0.1387238549
H   H18       1.0  0.62620  0.29990  0.58280  1.0000 0.1310279438
H   H19       1.0  0.58350  0.40310  0.33080  1.0000 0.1513512103
H   H20       1.0  0.40480  0.19950  0.27800  1.0000 0.1513512103
H   H21       1.0  0.34880  0.15520  0.18710  1.0000 0.1387238549
H   H22       1.0  0.33440  0.22270  0.15550  1.0000 0.1387238549
H   H23       1.0  0.30110  0.12350  0.09040  1.0000 0.1513512103
H   H24       1.0  0.36830  0.11450  0.06730  1.0000 0.159754573
H   H25       1.0  0.46300  0.10050  0.13190  1.0000 0.159754573
H   H26       1.0  0.43410  0.10070  0.18140  1.0000 0.1310279438
H   H27       1.0  0.62020  0.47920  0.26910  1.0000 0.1387238549
H   H28       1.0  0.54190  0.47580  0.22190  1.0000 0.1513512103
H   H29       1.0  0.67660  0.37430  0.24800  1.0000 0.159754573
H   H30       1.0  0.73380  0.45540  0.24280  1.0000 0.1513512103
H   H31       1.0  0.68580  0.49540  0.16200  1.0000 0.1513512103
H   H32       1.0  0.66290  0.54460  0.20110  1.0000 0.1513512103
H   H33       1.0  0.71690  0.99710  0.81640  1.0000 0.1387238549
H   H34       1.0  0.79380  0.00380  0.86560  1.0000 0.1513512103
H   H35       1.0  0.77520  0.03850  0.93370  1.0000 0.159754573
H   H36       1.0  0.68310  0.03400  0.91060  1.0000 0.1513512103
H   H37       1.0  0.66310  0.13640  0.85820  1.0000 0.1513512103
H   H38       1.0  0.63500  0.05440  0.82330  1.0000 0.1310279438
H   H39       1.0  0.60920  0.06070  0.73230  1.0000 0.159754573
H   H40       1.0  0.74610  0.23900  0.69040  1.0000 0.1513512103
H   H41       1.0  0.79820  0.35180  0.80180  1.0000 0.1387238549
H   H42       1.0  0.84040  0.34670  0.75910  1.0000 0.1387238549
H   H43       1.0  0.93280  0.43730  0.84170  1.0000 0.1513512103
H   H44       1.0  0.99410  0.40730  0.88390  1.0000 0.159754573
H   H45       1.0  0.97640  0.35030  0.78900  1.0000 0.1387238549
H   H46       1.0  0.92260  0.26130  0.77700  1.0000 0.1513512103
H   H47       1.0  0.49660  0.93930  0.56940  1.0000 0.1387238549
H   H48       1.0  0.57540  0.12610  0.51400  1.0000 0.1310279438
H   H49       1.0  0.17890  0.46010  0.12630  1.0000 0.159754573
H   H50       1.0  0.26010  0.47830  0.17490  1.0000 0.1310279438
H   H51       1.0  0.19370  0.41000  0.05850  1.0000 0.159754573
H   H52       1.0  0.28580  0.41340  0.07950  1.0000 0.1513512103
H   H53       1.0  0.34360  0.42790  0.17940  1.0000 0.1310279438
H   H54       1.0  0.32730  0.34560  0.14860  1.0000 0.1513512103
H   H55       1.0  0.37750  0.42970  0.26870  1.0000 0.1513512103
H   H56       1.0  0.25610  0.25150  0.32500  1.0000 0.1513512103
H   H57       1.0  0.15860  0.14310  0.26310  1.0000 0.1387238549
H   H58       1.0  0.18600  0.12560  0.21480  1.0000 0.1513512103
H   H59       1.0  0.01430  0.15560  0.23870  1.0000 0.1513512103
H   H60       1.0  0.07890  0.23870  0.24560  1.0000 0.1513512103
H   H61       1.0  0.98180  0.07790  0.15610  1.0000 0.1753526808
H   H62       1.0  0.04570  0.04740  0.19550  1.0000 0.159754573
H   H63       1.0  0.55320  0.46990  0.44130  1.0000 0.1310279438
H   H64       1.0  0.36030  0.46780  0.47310  1.0000 0.1387238549
H   H65       1.0  0.51010  0.34470  0.97240  1.0000 0.3992031067
H   H66       1.0  0.48220  0.37710  0.92570  1.0000 0.3992031067
H   H67       1.0  0.82530  0.21480  0.04910  1.0000 0.3582532288
H   H68       1.0  0.89970  0.23770  0.08990  1.0000 0.3689549373
H   H69       1.0  0.69390  0.30280  0.09260  1.0000 0.3582532288
H   H70       1.0  0.72560  0.30760  0.05230  1.0000 0.3495798515
H   H71       1.0  0.56370  0.13000  0.07670  1.0000 0.3992031067
H   H72       1.0  0.95400  0.14370  0.96810  1.0000 0.3904082285
H   H73       1.0  0.93400  0.08770  0.92380  1.0000 0.406878621
H   H74       1.0  0.00140  0.44500  0.05870  1.0000 0.3992031067
H   H75       1.0  0.91710  0.52840  0.98780  1.0000 0.3803554879
H   H76       1.0  0.88880  0.43550  0.15150  1.0000 0.304007958
H   H77       1.0  0.93040  0.40780  0.13040  1.0000 0.3269608723
H   H78       1.0  0.70370  0.14960  0.13130  1.0000 0.4217999385
H   H79       1.0  0.57980  0.96910  0.98560  1.0000 0.3904082285
H   H80       1.0  0.82810  0.63490  0.09370  1.0000 0.3495798515
H   H81       1.0  0.79160  0.63740  0.04320  1.0000 0.3413762705
H   H82       1.0  0.67390  0.74540  0.07680  1.0000 0.3803554879
H   H83       1.0  0.76670  0.90450  0.09020  1.0000 0.3582532288
H   H84       1.0  0.74980  0.88160  0.03860  1.0000 0.3582532288
H   H85       1.0  0.92400  0.10440  0.04350  1.0000 0.4291162224
H   H86       1.0  0.81280  0.33750  0.26580  1.0000 0.4407661067
H   H87       1.0  0.81170  0.09980  0.15540  1.0000 0.4291162224
H   H88       1.0  0.96520  0.87470  0.21360  1.0000 0.4217999385
H   H89       1.0  0.27560  0.57090  0.08150  1.0000 0.1513512103
H   H90       1.0  0.34380  0.56570  0.05810  1.0000 0.159754573
H   H91       1.0  0.40130  0.57640  0.17720  1.0000 0.1310279438
H   H92       1.0  0.42910  0.55830  0.12910  1.0000 0.1513512103
H   H93       1.0  0.31070  0.70300  0.13280  1.0000 0.1513512103
H   H94       1.0  0.31340  0.63630  0.16770  1.0000 0.1310279438
H   H95       1.0  0.38240  0.68880  0.26130  1.0000 0.1513512103
H   H96       1.0  0.57060  0.88270  0.30330  1.0000 0.1513512103
H   H97       1.0  0.50720  0.93850  0.19030  1.0000 0.1387238549
H   H98       1.0  0.59380  0.95450  0.23350  1.0000 0.1387238549
H   H99       1.0  0.60700  0.00570  0.15320  1.0000 0.159754573
H   H100      1.0  0.61800  0.95200  0.10990  1.0000 0.159754573
H   H101      1.0  0.70200  0.93770  0.20390  1.0000 0.1513512103
H   H102      1.0  0.65840  0.85400  0.21400  1.0000 0.159754573
H   H103      1.0  0.61570  0.81090  0.47790  1.0000 0.1387238549
H   H104      1.0  0.60800  0.79640  0.56170  1.0000 0.1310279438
H   H105      1.0  0.36870  0.68820  0.50290  1.0000 0.1387238549
H   H106      1.0  0.37380  0.70010  0.41720  1.0000 0.1310279438
H   H107      1.0  0.41650  0.59690  0.66920  1.0000 0.1513512103
H   H108      1.0  0.59520  0.80050  0.72200  1.0000 0.1513512103
H   H109      1.0  0.65120  0.84480  0.81290  1.0000 0.1387238549
H   H110      1.0  0.66560  0.77730  0.84450  1.0000 0.1387238549
H   H111      1.0  0.69890  0.87650  0.90960  1.0000 0.1513512103
H   H112      1.0  0.63170  0.88550  0.93270  1.0000 0.159754573
H   H113      1.0  0.53700  0.89950  0.86810  1.0000 0.159754573
H   H114      1.0  0.56590  0.89930  0.81860  1.0000 0.1310279438
H   H115      1.0  0.37980  0.52080  0.73090  1.0000 0.1387238549
H   H116      1.0  0.45810  0.52420  0.77810  1.0000 0.1513512103
H   H117      1.0  0.32340  0.62570  0.75200  1.0000 0.159754573
H   H118      1.0  0.26620  0.54460  0.75720  1.0000 0.1513512103
H   H119      1.0  0.31420  0.50460  0.83800  1.0000 0.1513512103
H   H120      1.0  0.33710  0.45540  0.79890  1.0000 0.1513512103
H   H121      1.0  0.28310  0.00290  0.18360  1.0000 0.1387238549
H   H122      1.0  0.20620  0.99620  0.13440  1.0000 0.1513512103
H   H123      1.0  0.22480  0.96150  0.06630  1.0000 0.159754573
H   H124      1.0  0.31690  0.96600  0.08940  1.0000 0.1513512103
H   H125      1.0  0.33690  0.86360  0.14180  1.0000 0.1513512103
H   H126      1.0  0.36500  0.94560  0.17670  1.0000 0.1310279438
H   H127      1.0  0.39080  0.93930  0.26770  1.0000 0.159754573
H   H128      1.0  0.25390  0.76100  0.30960  1.0000 0.1513512103
H   H129      1.0  0.20180  0.64820  0.19820  1.0000 0.1387238549
H   H130      1.0  0.15960  0.65330  0.24090  1.0000 0.1387238549
H   H131      1.0  0.06720  0.56270  0.15830  1.0000 0.1513512103
H   H132      1.0  0.00590  0.59270  0.11610  1.0000 0.159754573
H   H133      1.0  0.02360  0.64970  0.21100  1.0000 0.1387238549
H   H134      1.0  0.07740  0.73870  0.22300  1.0000 0.1513512103
H   H135      1.0  0.50340  0.06070  0.43060  1.0000 0.1387238549
H   H136      1.0  0.42460  0.87390  0.48600  1.0000 0.1310279438
H   H137      1.0  0.82110  0.53990  0.87370  1.0000 0.159754573
H   H138      1.0  0.73990  0.52170  0.82510  1.0000 0.1310279438
H   H139      1.0  0.80630  0.59000  0.94150  1.0000 0.159754573
H   H140      1.0  0.71420  0.58660  0.92050  1.0000 0.1513512103
H   H141      1.0  0.65640  0.57210  0.82060  1.0000 0.1310279438
H   H142      1.0  0.67270  0.65440  0.85140  1.0000 0.1513512103
H   H143      1.0  0.62250  0.57030  0.73130  1.0000 0.1513512103
H   H144      1.0  0.74390  0.74850  0.67500  1.0000 0.1513512103
H   H145      1.0  0.84140  0.85690  0.73690  1.0000 0.1387238549
H   H146      1.0  0.81400  0.87440  0.78520  1.0000 0.1513512103
H   H147      1.0  0.98570  0.84440  0.76130  1.0000 0.1513512103
H   H148      1.0  0.92110  0.76130  0.75440  1.0000 0.1513512103
H   H149      1.0  0.01820  0.92210  0.84390  1.0000 0.1753526808
H   H150      1.0  0.95430  0.95260  0.80450  1.0000 0.159754573
H   H151      1.0  0.44680  0.53010  0.55870  1.0000 0.1310279438
H   H152      1.0  0.63970  0.53220  0.52690  1.0000 0.1387238549
H   H153      1.0  0.48990  0.65530  0.02760  1.0000 0.3992031067
H   H154      1.0  0.51780  0.62290  0.07430  1.0000 0.3992031067
H   H155      1.0  0.17470  0.78520  0.95090  1.0000 0.3582532288
H   H156      1.0  0.10030  0.76230  0.91010  1.0000 0.3689549373
H   H157      1.0  0.30610  0.69720  0.90740  1.0000 0.3582532288
H   H158      1.0  0.27440  0.69240  0.94770  1.0000 0.3495798515
H   H159      1.0  0.43630  0.87000  0.92330  1.0000 0.406878621
H   H160      1.0  0.04600  0.85630  0.03190  1.0000 0.3904082285
H   H161      1.0  0.06600  0.91230  0.07620  1.0000 0.406878621
H   H162      1.0  0.99860  0.55500  0.94130  1.0000 0.3992031067
H   H163      1.0  0.08290  0.47160  0.01220  1.0000 0.3803554879
H   H164      1.0  0.11120  0.56450  0.84850  1.0000 0.304007958
H   H165      1.0  0.06960  0.59220  0.86960  1.0000 0.3269608723
H   H166      1.0  0.29630  0.85040  0.86870  1.0000 0.4217999385
H   H167      1.0  0.42020  0.03090  0.01440  1.0000 0.3904082285
H   H168      1.0  0.17190  0.36510  0.90630  1.0000 0.3495798515
H   H169      1.0  0.20840  0.36260  0.95680  1.0000 0.3413762705
H   H170      1.0  0.32610  0.25460  0.92320  1.0000 0.3803554879
H   H171      1.0  0.23330  0.09550  0.90980  1.0000 0.3582532288
H   H172      1.0  0.25020  0.11840  0.96140  1.0000 0.3582532288
H   H173      1.0  0.07600  0.89560  0.95650  1.0000 0.4291162224
H   H174      1.0  0.18720  0.66250  0.73420  1.0000 0.4407661067
H   H175      1.0  0.18830  0.90020  0.84460  1.0000 0.4291162224
H   H176      1.0  0.03480  0.12530  0.78640  1.0000 0.4217999385
C   C1        1.0  0.69740  0.34590  0.96280  1.0000 0.6600817945
C   C2        1.0  0.67620  0.39870  0.92600  1.0000 -0.2999576075
C   C3        1.0  0.57030  0.40020  0.84640  1.0000 -0.2691073461
C   C4        1.0  0.48080  0.35080  0.81360  1.0000 0.6212963568
C   C5        1.0  0.65350  0.32150  0.84500  1.0000 -0.2090677259
C   C6        1.0  0.58960  0.26380  0.79930  1.0000 0.2784248771
C   C7        1.0  0.58140  0.26970  0.74730  1.0000 -0.2364440752
C   C8        1.0  0.51980  0.21430  0.70790  1.0000 0.1910273936
C   C9        1.0  0.47190  0.15610  0.72270  1.0000 -0.2204554482
C   C10       1.0  0.48270  0.15120  0.77400  1.0000 0.2497659109
C   C11       1.0  0.45030  0.08390  0.79490  1.0000 -0.2090677259
C   C12       1.0  0.41580  0.04530  0.86860  1.0000 -0.2489110498
C   C13       1.0  0.50690  0.06020  0.90520  1.0000 0.6293681569
C   C14       1.0  0.31810  0.14760  0.85550  1.0000 0.6212963568
C   C15       1.0  0.33940  0.11260  0.81290  1.0000 -0.2691073461
C   C16       1.0  0.51140  0.22170  0.65540  1.0000 -0.0806379312
C   C17       1.0  0.50970  0.23140  0.61130  1.0000 -0.0699023983
C   C18       1.0  0.50770  0.24300  0.55920  1.0000 0.1387238549
C   C19       1.0  0.43380  0.21450  0.51720  1.0000 -0.1241464584
C   C20       1.0  0.43890  0.22650  0.46810  1.0000 -0.1119660927
C   C21       1.0  0.50480  0.26750  0.46080  1.0000 0.1310279438
C   C22       1.0  0.58170  0.29080  0.50300  1.0000 -0.1119660927
C   C23       1.0  0.57850  0.28050  0.55320  1.0000 -0.1398253819
C   C24       1.0  0.50720  0.28030  0.41010  1.0000 -0.0806379312
C   C25       1.0  0.50210  0.28930  0.36520  1.0000 -0.0902568421
C   C26       1.0  0.49730  0.30270  0.31300  1.0000 0.2016612397
C   C27       1.0  0.54300  0.36610  0.30280  1.0000 -0.2204554482
C   C28       1.0  0.53240  0.37920  0.25100  1.0000 0.2620221482
C   C29       1.0  0.43530  0.25940  0.22120  1.0000 0.2873221146
C   C30       1.0  0.43900  0.24490  0.27180  1.0000 -0.2489110498
C   C31       1.0  0.37600  0.20170  0.17490  1.0000 -0.2204554482
C   C32       1.0  0.35360  0.15090  0.08670  1.0000 -0.2691073461
C   C33       1.0  0.34630  0.21970  0.05540  1.0000 0.6090275304
C   C34       1.0  0.46180  0.13390  0.16080  1.0000 -0.2691073461
C   C35       1.0  0.54750  0.17760  0.19550  1.0000 0.6212963568
C   C36       1.0  0.57790  0.44680  0.23700  1.0000 -0.2090677259
C   C37       1.0  0.68780  0.40930  0.22310  1.0000 -0.2911407643
C   C38       1.0  0.70940  0.37080  0.18280  1.0000 0.6426670955
C   C39       1.0  0.64200  0.49800  0.17480  1.0000 -0.2999576075
C   C40       1.0  0.57330  0.50150  0.13090  1.0000 0.6293681569
C   C41       1.0  0.82100  0.06330  0.81040  1.0000 0.6293681569
C   C42       1.0  0.76860  0.03310  0.84060  1.0000 -0.309703861
C   C43       1.0  0.73940  0.06750  0.91830  1.0000 -0.2911407643
C   C44       1.0  0.75780  0.13830  0.95700  1.0000 0.6600817945
C   C45       1.0  0.67960  0.10370  0.83700  1.0000 -0.2090677259
C   C46       1.0  0.69570  0.14190  0.79240  1.0000 0.2873221146
C   C47       1.0  0.65160  0.10820  0.74020  1.0000 -0.2489110498
C   C48       1.0  0.66970  0.14370  0.70090  1.0000 0.1910273936
C   C49       1.0  0.73140  0.21250  0.71660  1.0000 -0.2364440752
C   C50       1.0  0.77350  0.24560  0.76810  1.0000 0.2497659109
C   C51       1.0  0.82590  0.32240  0.78770  1.0000 -0.2027069224
C   C52       1.0  0.93670  0.39710  0.86370  1.0000 -0.2691073461
C   C53       1.0  0.88790  0.39730  0.90190  1.0000 0.6212963568
C   C54       1.0  0.02210  0.28930  0.84800  1.0000 0.6600817945
C   C55       1.0  0.95360  0.30620  0.80480  1.0000 -0.2619821323
C   C56       1.0  0.62760  0.11070  0.64600  1.0000 -0.0699023983
C   C57       1.0  0.59250  0.07860  0.60350  1.0000 -0.0699023983
C   C58       1.0  0.54430  0.03840  0.55110  1.0000 0.1310279438
C   C59       1.0  0.49920  0.96590  0.54090  1.0000 -0.1288715421
C   C60       1.0  0.54460  0.07360  0.50910  1.0000 -0.1398253819
C   C61       1.0  0.15940  0.41420  0.19040  1.0000 0.6426670955
C   C62       1.0  0.20860  0.43800  0.15470  1.0000 -0.2798584296
C   C63       1.0  0.23030  0.38350  0.07710  1.0000 -0.2999576075
C   C64       1.0  0.20620  0.30460  0.04810  1.0000 0.6212963568
C   C65       1.0  0.30500  0.37520  0.16750  1.0000 -0.2204554482
C   C66       1.0  0.29270  0.33940  0.21340  1.0000 0.2784248771
C   C67       1.0  0.33910  0.38020  0.26310  1.0000 -0.2489110498
C   C68       1.0  0.32520  0.34250  0.30490  1.0000 0.1910273936
C   C69       1.0  0.26760  0.27360  0.29650  1.0000 -0.2364440752
C   C70       1.0  0.22410  0.23440  0.24420  1.0000 0.2497659109
C   C71       1.0  0.16600  0.16110  0.23090  1.0000 -0.2090677259
C   C72       1.0  0.04120  0.19300  0.21990  1.0000 -0.309703861
C   C73       1.0  0.98070  0.21430  0.17960  1.0000 0.6549837099
C   C74       1.0  0.06340  0.06030  0.12680  1.0000 0.6090275304
C   C75       1.0  0.03930  0.08230  0.16950  1.0000 -0.2911407643
C   C76       1.0  0.36900  0.38430  0.35640  1.0000 -0.0806379312
C   C77       1.0  0.40670  0.41890  0.40030  1.0000 -0.0699023983
C   C78       1.0  0.45430  0.46300  0.45150  1.0000 0.1223975302
C   C79       1.0  0.53020  0.48190  0.46590  1.0000 -0.1241464584
C   C80       1.0  0.41700  0.48010  0.48350  1.0000 -0.1288715421
C   C81       1.0  0.51240  0.24590  0.02820  1.0000 0.8615650045
C   C82       1.0  0.00980  0.26710  0.02410  1.0000 0.8669426547
C   C83       1.0  0.30260  0.65410  0.03720  1.0000 0.6600817945
C   C84       1.0  0.32380  0.60130  0.07400  1.0000 -0.2999576075
C   C85       1.0  0.42970  0.59980  0.15360  1.0000 -0.2691073461
C   C86       1.0  0.51920  0.64920  0.18640  1.0000 0.6212963568
C   C87       1.0  0.34650  0.67850  0.15500  1.0000 -0.2090677259
C   C88       1.0  0.41040  0.73620  0.20070  1.0000 0.2784248771
C   C89       1.0  0.41860  0.73030  0.25270  1.0000 -0.2364440752
C   C90       1.0  0.48020  0.78570  0.29210  1.0000 0.1910273936
C   C91       1.0  0.52810  0.84390  0.27730  1.0000 -0.2204554482
C   C92       1.0  0.51730  0.84880  0.22600  1.0000 0.2497659109
C   C93       1.0  0.54970  0.91610  0.20510  1.0000 -0.2090677259
C   C94       1.0  0.58420  0.95470  0.13140  1.0000 -0.2489110498
C   C95       1.0  0.49310  0.93980  0.09480  1.0000 0.6293681569
C   C96       1.0  0.68190  0.85240  0.14450  1.0000 0.6212963568
C   C97       1.0  0.66060  0.88740  0.18710  1.0000 -0.2691073461
C   C98       1.0  0.48860  0.77830  0.34460  1.0000 -0.0806379312
C   C99       1.0  0.49030  0.76860  0.38870  1.0000 -0.0699023983
C   C100      1.0  0.49230  0.75700  0.44080  1.0000 0.1387238549
C   C101      1.0  0.56620  0.78550  0.48280  1.0000 -0.1241464584
C   C102      1.0  0.56110  0.77350  0.53190  1.0000 -0.1119660927
C   C103      1.0  0.49520  0.73250  0.53920  1.0000 0.1310279438
C   C104      1.0  0.41830  0.70920  0.49700  1.0000 -0.1119660927
C   C105      1.0  0.42150  0.71950  0.44680  1.0000 -0.1398253819
C   C106      1.0  0.49280  0.71970  0.58990  1.0000 -0.0806379312
C   C107      1.0  0.49790  0.71070  0.63480  1.0000 -0.0902568421
C   C108      1.0  0.50270  0.69730  0.68700  1.0000 0.2016612397
C   C109      1.0  0.45700  0.63390  0.69720  1.0000 -0.2204554482
C   C110      1.0  0.46760  0.62080  0.74900  1.0000 0.2620221482
C   C111      1.0  0.56470  0.74060  0.77880  1.0000 0.2873221146
C   C112      1.0  0.56100  0.75510  0.72820  1.0000 -0.2489110498
C   C113      1.0  0.62400  0.79830  0.82510  1.0000 -0.2204554482
C   C114      1.0  0.64640  0.84910  0.91330  1.0000 -0.2691073461
C   C115      1.0  0.65370  0.78030  0.94460  1.0000 0.6090275304
C   C116      1.0  0.53820  0.86610  0.83920  1.0000 -0.2691073461
C   C117      1.0  0.45250  0.82240  0.80450  1.0000 0.6212963568
C   C118      1.0  0.42210  0.55320  0.76300  1.0000 -0.2090677259
C   C119      1.0  0.31220  0.59070  0.77690  1.0000 -0.2911407643
C   C120      1.0  0.29060  0.62920  0.81720  1.0000 0.6426670955
C   C121      1.0  0.35800  0.50200  0.82520  1.0000 -0.2999576075
C   C122      1.0  0.42670  0.49850  0.86910  1.0000 0.6293681569
C   C123      1.0  0.17900  0.93670  0.18960  1.0000 0.6293681569
C   C124      1.0  0.23140  0.96690  0.15940  1.0000 -0.309703861
C   C125      1.0  0.26060  0.93250  0.08170  1.0000 -0.2911407643
C   C126      1.0  0.24220  0.86170  0.04300  1.0000 0.6600817945
C   C127      1.0  0.32040  0.89630  0.16300  1.0000 -0.2090677259
C   C128      1.0  0.30430  0.85810  0.20760  1.0000 0.2873221146
C   C129      1.0  0.34840  0.89180  0.25980  1.0000 -0.2489110498
C   C130      1.0  0.33030  0.85630  0.29910  1.0000 0.1910273936
C   C131      1.0  0.26860  0.78750  0.28340  1.0000 -0.2364440752
C   C132      1.0  0.22650  0.75440  0.23190  1.0000 0.2497659109
C   C133      1.0  0.17410  0.67760  0.21230  1.0000 -0.2027069224
C   C134      1.0  0.06330  0.60290  0.13630  1.0000 -0.2691073461
C   C135      1.0  0.11210  0.60270  0.09810  1.0000 0.6212963568
C   C136      1.0  0.97790  0.71070  0.15200  1.0000 0.6600817945
C   C137      1.0  0.04640  0.69380  0.19520  1.0000 -0.2619821323
C   C138      1.0  0.37240  0.88930  0.35400  1.0000 -0.0699023983
C   C139      1.0  0.40750  0.92140  0.39650  1.0000 -0.0699023983
C   C140      1.0  0.45570  0.96160  0.44890  1.0000 0.1310279438
C   C141      1.0  0.50080  0.03410  0.45910  1.0000 -0.1288715421
C   C142      1.0  0.45540  0.92640  0.49090  1.0000 -0.1398253819
C   C143      1.0  0.84060  0.58580  0.80960  1.0000 0.6426670955
C   C144      1.0  0.79140  0.56200  0.84530  1.0000 -0.2798584296
C   C145      1.0  0.76970  0.61650  0.92290  1.0000 -0.2999576075
C   C146      1.0  0.79380  0.69540  0.95190  1.0000 0.6212963568
C   C147      1.0  0.69500  0.62480  0.83250  1.0000 -0.2204554482
C   C148      1.0  0.70730  0.66060  0.78660  1.0000 0.2784248771
C   C149      1.0  0.66090  0.61980  0.73690  1.0000 -0.2489110498
C   C150      1.0  0.67480  0.65750  0.69510  1.0000 0.1910273936
C   C151      1.0  0.73240  0.72640  0.70350  1.0000 -0.2364440752
C   C152      1.0  0.77590  0.76560  0.75580  1.0000 0.2497659109
C   C153      1.0  0.83400  0.83890  0.76910  1.0000 -0.2090677259
C   C154      1.0  0.95880  0.80700  0.78010  1.0000 -0.309703861
C   C155      1.0  0.01930  0.78570  0.82040  1.0000 0.6549837099
C   C156      1.0  0.93660  0.93970  0.87320  1.0000 0.6090275304
C   C157      1.0  0.96070  0.91770  0.83050  1.0000 -0.2911407643
C   C158      1.0  0.63100  0.61570  0.64360  1.0000 -0.0806379312
C   C159      1.0  0.59330  0.58110  0.59970  1.0000 -0.0699023983
C   C160      1.0  0.54570  0.53700  0.54850  1.0000 0.1223975302
C   C161      1.0  0.46980  0.51810  0.53410  1.0000 -0.1241464584
C   C162      1.0  0.58300  0.51990  0.51650  1.0000 -0.1288715421
C   C163      1.0  0.48760  0.75410  0.97180  1.0000 0.8615650045
C   C164      1.0  0.99020  0.73290  0.97590  1.0000 0.8669426547
N   N1        1.0  0.61130  0.35170  0.87570  1.0000 -0.0902568421
N   N2        1.0  0.54210  0.20570  0.81350  1.0000 -0.4297302756
N   N3        1.0  0.41880  0.10350  0.83680  1.0000 -0.1119660927
N   N4        1.0  0.47940  0.32300  0.21080  1.0000 -0.4189451082
N   N5        1.0  0.41620  0.18100  0.13930  1.0000 -0.0998583044
N   N6        1.0  0.61670  0.43120  0.19870  1.0000 -0.0998583044
N   N7        1.0  0.75150  0.09050  0.86960  1.0000 -0.0902568421
N   N8        1.0  0.75480  0.20680  0.80650  1.0000 -0.399129097
N   N9        1.0  0.90300  0.32310  0.83140  1.0000 -0.0998583044
N   N10       1.0  0.22550  0.37630  0.13200  1.0000 -0.0902568421
N   N11       1.0  0.23800  0.27020  0.20330  1.0000 -0.4297302756
N   N12       1.0  0.08670  0.15860  0.19390  1.0000 -0.0902568421
N   N13       1.0  0.38870  0.64830  0.12430  1.0000 -0.0902568421
N   N14       1.0  0.45790  0.79430  0.18650  1.0000 -0.4297302756
N   N15       1.0  0.58120  0.89650  0.16320  1.0000 -0.1119660927
N   N16       1.0  0.52060  0.67700  0.78920  1.0000 -0.4189451082
N   N17       1.0  0.58380  0.81900  0.86070  1.0000 -0.0998583044
N   N18       1.0  0.38330  0.56880  0.80130  1.0000 -0.0998583044
N   N19       1.0  0.24850  0.90950  0.13040  1.0000 -0.0902568421
N   N20       1.0  0.24520  0.79320  0.19350  1.0000 -0.399129097
N   N21       1.0  0.09700  0.67690  0.16860  1.0000 -0.0998583044
N   N22       1.0  0.77450  0.62370  0.86800  1.0000 -0.0902568421
N   N23       1.0  0.76200  0.72980  0.79670  1.0000 -0.4297302756
N   N24       1.0  0.91330  0.84140  0.80610  1.0000 -0.0902568421
O   O1        1.0  0.64880  0.27730  0.95356  1.0000 -0.6807146761
O   O2        1.0  0.75980  0.37170  0.00192  1.0000 -0.622907315
O   O3        1.0  0.44780  0.29210  0.82940  1.0000 -0.6104317202
O   O4        1.0  0.44810  0.37670  0.77460  1.0000 -0.5546468986
O   O5        1.0  0.55300  0.12630  0.91776  1.0000 -0.622907315
O   O6        1.0  0.52430  0.00470  0.92430  1.0000 -0.4667933403
O   O7        1.0  0.37010  0.19120  0.88940  1.0000 -0.4876598709
O   O8        1.0  0.24490  0.13100  0.84600  1.0000 -0.4876598709
O   O9        1.0  0.38390  0.28570  0.07510  1.0000 -0.5039768113
O   O10       1.0  0.29880  0.20000  0.00960  1.0000 -0.399129097
O   O11       1.0  0.57790  0.24330  0.18840  1.0000 -0.5872109029
O   O12       1.0  0.58160  0.14220  0.22650  1.0000 -0.5244783057
O   O13       1.0  0.65530  0.35320  0.13530  1.0000 -0.6003813836
O   O14       1.0  0.77320  0.35660  0.19600  1.0000 -0.5075225128
O   O15       1.0  0.58560  0.56380  0.11270  1.0000 -0.5872109029
O   O16       1.0  0.50630  0.43630  0.11120  1.0000 -0.6003813836
O   O17       1.0  0.86930  0.13090  0.82520  1.0000 -0.6104317202
O   O18       1.0  0.81900  0.01980  0.77260  1.0000 -0.5546468986
O   O19       1.0  0.79530  0.20290  0.94793  1.0000 -0.6745494945
O   O20       1.0  0.73780  0.13010  0.99684  1.0000 -0.6315914287
O   O21       1.0  0.85580  0.33700  0.91403  1.0000 -0.6104317202
O   O22       1.0  0.89590  0.46280  0.92240  1.0000 -0.4876598709
O   O23       1.0  0.00610  0.26050  0.88590  1.0000 -0.6003813836
O   O24       1.0  0.08910  0.30310  0.84110  1.0000 -0.5843012227
O   O25       1.0  0.11550  0.34070  0.18340  1.0000 -0.6807146761
O   O26       1.0  0.16230  0.46340  0.22410  1.0000 -0.5560557736
O   O27       1.0  0.20740  0.30420  0.00200  1.0000 -0.4189451082
O   O28       1.0  0.18760  0.24970  0.06630  1.0000 -0.4667933403
O   O29       1.0  0.98100  0.20990  0.13090  1.0000 -0.6104317202
O   O30       1.0  0.92850  0.23410  0.19370  1.0000 -0.6104317202
O   O31       1.0  0.10620  0.11350  0.10420  1.0000 -0.6556252433
O   O32       1.0  0.04350  0.99350  0.10560  1.0000 -0.4297302756
O   O33       1.0  0.51020  0.21270  0.98472  1.0000 -0.6971532001
O   O34       1.0  0.51370  0.21130  0.06722  1.0000 -0.6391866498
O   O35       1.0  0.51620  0.31680  0.03520  1.0000 -0.5872109029
O   O36       1.0  0.50750  0.34940  0.94150  1.0000 -0.7410384311
O   O37       1.0  0.05310  0.32140  0.06340  1.0000 -0.6315914287
O   O38       1.0  0.96710  0.28200  0.98214  1.0000 -0.6807146761
O   O39       1.0  0.01350  0.19880  0.03010  1.0000 -0.6745494945
O   O40       1.0  0.86230  0.25100  0.07081  1.0000 -0.748398949
O   O41       1.0  0.71110  0.28040  0.07361  1.0000 -0.7410384311
O   O42       1.0  0.60310  0.11950  0.07340  1.0000 -0.7252750887
O   O43       1.0  0.92470  0.12460  0.93710  1.0000 -0.7410384311
O   O44       1.0  0.96970  0.41530  0.07100  1.0000 -0.6971532001
O   O45       1.0  0.92590  0.55620  0.01580  1.0000 -0.7104309155
O   O46       1.0  0.91420  0.40450  0.15600  1.0000 -0.7104309155
O   O47       1.0  0.66710  0.45500  0.05600  1.0000 -0.3779403759
O   O48       1.0  0.74800  0.16540  0.15590  1.0000 -0.7615341736
O   O49       1.0  0.60110  0.95190  0.01210  1.0000 -0.7214448544
O   O50       1.0  0.79320  0.60930  0.06610  1.0000 -0.7927018298
O   O51       1.0  0.69310  0.71830  0.06270  1.0000 -0.7104309155
O   O52       1.0  0.73790  0.69760  0.18200  1.0000 -0.2331869571
O   O53       1.0  0.77210  0.91940  0.06260  1.0000 -0.7104309155
O   O54       1.0  0.82280  0.49450  0.14030  1.0000 -0.3279069556
O   O55       1.0  0.88890  0.06760  0.04870  1.0000 -0.7104309155
O   O56       1.0  0.83800  0.32910  0.29500  1.0000 -0.9125043346
O   O57       1.0  0.82660  0.06730  0.14250  1.0000 -0.6915428831
O   O58       1.0  0.61340  0.58210  0.97480  1.0000 -0.2204554482
O   O59       1.0  0.94110  0.88250  0.18390  1.0000 -0.9043463363
O   O60       1.0  0.35120  0.72270  0.04644  1.0000 -0.6807146761
O   O61       1.0  0.24020  0.62830  0.99808  1.0000 -0.622907315
O   O62       1.0  0.55220  0.70790  0.17060  1.0000 -0.6104317202
O   O63       1.0  0.55190  0.62330  0.22540  1.0000 -0.5546468986
O   O64       1.0  0.44700  0.87370  0.08224  1.0000 -0.622907315
O   O65       1.0  0.47570  0.99530  0.07570  1.0000 -0.4667933403
O   O66       1.0  0.62990  0.80880  0.11060  1.0000 -0.4876598709
O   O67       1.0  0.75510  0.86900  0.15400  1.0000 -0.4876598709
O   O68       1.0  0.61610  0.71430  0.92490  1.0000 -0.5039768113
O   O69       1.0  0.70120  0.80000  0.99040  1.0000 -0.399129097
O   O70       1.0  0.42210  0.75670  0.81160  1.0000 -0.5872109029
O   O71       1.0  0.41840  0.85780  0.77350  1.0000 -0.5244783057
O   O72       1.0  0.34470  0.64680  0.86470  1.0000 -0.6003813836
O   O73       1.0  0.22680  0.64340  0.80400  1.0000 -0.5075225128
O   O74       1.0  0.41440  0.43620  0.88730  1.0000 -0.5872109029
O   O75       1.0  0.49370  0.56370  0.88880  1.0000 -0.6003813836
O   O76       1.0  0.13070  0.86910  0.17480  1.0000 -0.6104317202
O   O77       1.0  0.18100  0.98020  0.22740  1.0000 -0.5560557736
O   O78       1.0  0.20470  0.79710  0.05207  1.0000 -0.6745494945
O   O79       1.0  0.26220  0.86990  0.00316  1.0000 -0.6315914287
O   O80       1.0  0.14420  0.66300  0.08597  1.0000 -0.6104317202
O   O81       1.0  0.10410  0.53720  0.07760  1.0000 -0.4876598709
O   O82       1.0  0.99390  0.73950  0.11410  1.0000 -0.6003813836
O   O83       1.0  0.91090  0.69690  0.15890  1.0000 -0.5843012227
O   O84       1.0  0.88450  0.65930  0.81660  1.0000 -0.6807146761
O   O85       1.0  0.83770  0.53660  0.77590  1.0000 -0.5560557736
O   O86       1.0  0.79260  0.69580  0.99800  1.0000 -0.4189451082
O   O87       1.0  0.81240  0.75030  0.93370  1.0000 -0.4667933403
O   O88       1.0  0.01900  0.79010  0.86910  1.0000 -0.6104317202
O   O89       1.0  0.07150  0.76590  0.80630  1.0000 -0.6104317202
O   O90       1.0  0.89380  0.88650  0.89580  1.0000 -0.6556252433
O   O91       1.0  0.95650  0.00650  0.89440  1.0000 -0.4297302756
O   O92       1.0  0.48980  0.78730  0.01528  1.0000 -0.6971532001
O   O93       1.0  0.48630  0.78870  0.93278  1.0000 -0.6391866498
O   O94       1.0  0.48380  0.68320  0.96480  1.0000 -0.5872109029
O   O95       1.0  0.49250  0.65060  0.05850  1.0000 -0.7410384311
O   O96       1.0  0.94690  0.67860  0.93660  1.0000 -0.6391866498
O   O97       1.0  0.03290  0.71800  0.01786  1.0000 -0.6807146761
O   O98       1.0  0.98650  0.80120  0.96990  1.0000 -0.6745494945
O   O99       1.0  0.13770  0.74900  0.92919  1.0000 -0.748398949
O   O100      1.0  0.28890  0.71960  0.92639  1.0000 -0.7410384311
O   O101      1.0  0.39690  0.88050  0.92660  1.0000 -0.7214448544
O   O102      1.0  0.07530  0.87540  0.06290  1.0000 -0.748398949
O   O103      1.0  0.03030  0.58470  0.92900  1.0000 -0.6971532001
O   O104      1.0  0.07410  0.44380  0.98420  1.0000 -0.7104309155
O   O105      1.0  0.08580  0.59550  0.84400  1.0000 -0.7104309155
O   O106      1.0  0.33290  0.54500  0.94400  1.0000 -0.3779403759
O   O107      1.0  0.25200  0.83460  0.84410  1.0000 -0.7615341736
O   O108      1.0  0.39890  0.04810  0.98790  1.0000 -0.7214448544
O   O109      1.0  0.20680  0.39070  0.93390  1.0000 -0.7927018298
O   O110      1.0  0.30690  0.28170  0.93730  1.0000 -0.7104309155
O   O111      1.0  0.26210  0.30240  0.81800  1.0000 -0.2331869571
O   O112      1.0  0.22790  0.08060  0.93740  1.0000 -0.7104309155
O   O113      1.0  0.17720  0.50550  0.85970  1.0000 -0.3279069556
O   O114      1.0  0.11110  0.93240  0.95130  1.0000 -0.7104309155
O   O115      1.0  0.16200  0.67090  0.70500  1.0000 -0.9125043346
O   O116      1.0  0.17340  0.93270  0.85750  1.0000 -0.6915428831
O   O117      1.0  0.38660  0.41790  0.02520  1.0000 -0.2204554482
O   O118      1.0  0.05890  0.11750  0.81610  1.0000 -0.9043463363
