# DDEC6 charges by PACMAN v1.1 (https://github.com/mtap-research/PACMAN-charge/)
data_2010[Cd][nuc]3[ION]9
_chemical_formula_sum              "Cd4 H144 C192 N48 Cl4 O16"
_cell_length_a       15.8633
_cell_length_b       15.8633
_cell_length_c       21.76
_cell_angle_alpha    90
_cell_angle_beta     90
_cell_angle_gamma    90

_symmetry_space_group_name_H-M    "P 1"
_symmetry_Int_Tables_number       1

loop_
  _symmetry_equiv_pos_as_xyz
  'x, y, z'

loop_
  _atom_site_type_symbol
  _atom_site_label
  _atom_site_symmetry_multiplicity
  _atom_site_fract_x
  _atom_site_fract_y
  _atom_site_fract_z
  _atom_site_occupancy
  _atom_site_charge
Cd  Cd1       1.0  0.05904  0.94096  0.25000  1.0000 0.6407710064
Cd  Cd2       1.0  0.94096  0.05904  0.75000  1.0000 0.6407710064
Cd  Cd3       1.0  0.55904  0.55904  0.50000  1.0000 0.6407710064
Cd  Cd4       1.0  0.44096  0.44096  0.00000  1.0000 0.6407710064
H   H1        1.0  0.53540  0.61310  0.35070  1.0000 0.10052691
H   H2        1.0  0.46460  0.38690  0.85070  1.0000 0.10052691
H   H3        1.0  0.88690  0.03540  0.60070  1.0000 0.10052691
H   H4        1.0  0.11310  0.96460  0.10070  1.0000 0.10052691
H   H5        1.0  0.96460  0.11310  0.89930  1.0000 0.10052691
H   H6        1.0  0.03540  0.88690  0.39930  1.0000 0.10052691
H   H7        1.0  0.61310  0.53540  0.64930  1.0000 0.10052691
H   H8        1.0  0.38690  0.46460  0.14930  1.0000 0.10052691
H   H9        1.0  0.58450  0.71400  0.28390  1.0000 0.1288756379
H   H10       1.0  0.41550  0.28600  0.78390  1.0000 0.1288756379
H   H11       1.0  0.78600  0.08450  0.53390  1.0000 0.1288756379
H   H12       1.0  0.21400  0.91550  0.03390  1.0000 0.1288756379
H   H13       1.0  0.91550  0.21400  0.96610  1.0000 0.1288756379
H   H14       1.0  0.08450  0.78600  0.46610  1.0000 0.1288756379
H   H15       1.0  0.71400  0.58450  0.71610  1.0000 0.1288756379
H   H16       1.0  0.28600  0.41550  0.21610  1.0000 0.1288756379
H   H17       1.0  0.78910  0.73750  0.39410  1.0000 0.1288756379
H   H18       1.0  0.21090  0.26250  0.89410  1.0000 0.1288756379
H   H19       1.0  0.76250  0.28910  0.64410  1.0000 0.1288756379
H   H20       1.0  0.23750  0.71090  0.14410  1.0000 0.1288756379
H   H21       1.0  0.71090  0.23750  0.85590  1.0000 0.1288756379
H   H22       1.0  0.28910  0.76250  0.35590  1.0000 0.1288756379
H   H23       1.0  0.73750  0.78910  0.60590  1.0000 0.1288756379
H   H24       1.0  0.26250  0.21090  0.10590  1.0000 0.1288756379
H   H25       1.0  0.73020  0.63960  0.45940  1.0000 0.10052691
H   H26       1.0  0.26980  0.36040  0.95940  1.0000 0.10052691
H   H27       1.0  0.86040  0.23020  0.70940  1.0000 0.10052691
H   H28       1.0  0.13960  0.76980  0.20940  1.0000 0.10052691
H   H29       1.0  0.76980  0.13960  0.79060  1.0000 0.10052691
H   H30       1.0  0.23020  0.86040  0.29060  1.0000 0.10052691
H   H31       1.0  0.63960  0.73020  0.54060  1.0000 0.10052691
H   H32       1.0  0.36040  0.26980  0.04060  1.0000 0.10052691
H   H33       1.0  0.65320  0.79510  0.21890  1.0000 0.0938596104
H   H34       1.0  0.34680  0.20490  0.71890  1.0000 0.0938596104
H   H35       1.0  0.70490  0.15320  0.46890  1.0000 0.0938596104
H   H36       1.0  0.29510  0.84680  0.96890  1.0000 0.0938596104
H   H37       1.0  0.84680  0.29510  0.03110  1.0000 0.0938596104
H   H38       1.0  0.15320  0.70490  0.53110  1.0000 0.0938596104
H   H39       1.0  0.79510  0.65320  0.78110  1.0000 0.0938596104
H   H40       1.0  0.20490  0.34680  0.28110  1.0000 0.0938596104
H   H41       1.0  0.70410  0.90890  0.16380  1.0000 0.10052691
H   H42       1.0  0.29590  0.09110  0.66380  1.0000 0.10052691
H   H43       1.0  0.59110  0.20410  0.41380  1.0000 0.10052691
H   H44       1.0  0.40890  0.79590  0.91380  1.0000 0.10052691
H   H45       1.0  0.79590  0.40890  0.08620  1.0000 0.10052691
H   H46       1.0  0.20410  0.59110  0.58620  1.0000 0.10052691
H   H47       1.0  0.90890  0.70410  0.83620  1.0000 0.10052691
H   H48       1.0  0.09110  0.29590  0.33620  1.0000 0.10052691
H   H49       1.0  0.80230  0.00150  0.20730  1.0000 0.10052691
H   H50       1.0  0.19770  0.99850  0.70730  1.0000 0.10052691
H   H51       1.0  0.49850  0.30230  0.45730  1.0000 0.10052691
H   H52       1.0  0.50150  0.69770  0.95730  1.0000 0.10052691
H   H53       1.0  0.69770  0.50150  0.04270  1.0000 0.10052691
H   H54       1.0  0.30230  0.49850  0.54270  1.0000 0.10052691
H   H55       1.0  0.00150  0.80230  0.79270  1.0000 0.10052691
H   H56       1.0  0.99850  0.19770  0.29270  1.0000 0.10052691
H   H57       1.0  0.80280  0.86070  0.36280  1.0000 0.1093634413
H   H58       1.0  0.19720  0.13930  0.86280  1.0000 0.1093634413
H   H59       1.0  0.63930  0.30280  0.61280  1.0000 0.1093634413
H   H60       1.0  0.36070  0.69720  0.11280  1.0000 0.1093634413
H   H61       1.0  0.69720  0.36070  0.88720  1.0000 0.1093634413
H   H62       1.0  0.30280  0.63930  0.38720  1.0000 0.1093634413
H   H63       1.0  0.86070  0.80280  0.63720  1.0000 0.1093634413
H   H64       1.0  0.13930  0.19720  0.13720  1.0000 0.1093634413
H   H65       1.0  0.04420  0.11890  0.45980  1.0000 0.1093634413
H   H66       1.0  0.95580  0.88110  0.95980  1.0000 0.1093634413
H   H67       1.0  0.38110  0.54420  0.70980  1.0000 0.1093634413
H   H68       1.0  0.61890  0.45580  0.20980  1.0000 0.1093634413
H   H69       1.0  0.45580  0.61890  0.79020  1.0000 0.1093634413
H   H70       1.0  0.54420  0.38110  0.29020  1.0000 0.1093634413
H   H71       1.0  0.11890  0.04420  0.54020  1.0000 0.1093634413
H   H72       1.0  0.88110  0.95580  0.04020  1.0000 0.1093634413
H   H73       1.0  0.06520  0.23040  0.52700  1.0000 0.1093634413
H   H74       1.0  0.93480  0.76960  0.02700  1.0000 0.1093634413
H   H75       1.0  0.26960  0.56520  0.77700  1.0000 0.1093634413
H   H76       1.0  0.73040  0.43480  0.27700  1.0000 0.1093634413
H   H77       1.0  0.43480  0.73040  0.72300  1.0000 0.1093634413
H   H78       1.0  0.56520  0.26960  0.22300  1.0000 0.1093634413
H   H79       1.0  0.23040  0.06520  0.47300  1.0000 0.1093634413
H   H80       1.0  0.76960  0.93480  0.97300  1.0000 0.1093634413
H   H81       1.0  0.96340  0.33410  0.53820  1.0000 0.1093634413
H   H82       1.0  0.03660  0.66590  0.03820  1.0000 0.1093634413
H   H83       1.0  0.16590  0.46340  0.78820  1.0000 0.1093634413
H   H84       1.0  0.83410  0.53660  0.28820  1.0000 0.1093634413
H   H85       1.0  0.53660  0.83410  0.71180  1.0000 0.1093634413
H   H86       1.0  0.46340  0.16590  0.21180  1.0000 0.1093634413
H   H87       1.0  0.33410  0.96340  0.46180  1.0000 0.1093634413
H   H88       1.0  0.66590  0.03660  0.96180  1.0000 0.1093634413
H   H89       1.0  0.82480  0.22310  0.40460  1.0000 0.10052691
H   H90       1.0  0.17520  0.77690  0.90460  1.0000 0.10052691
H   H91       1.0  0.27690  0.32480  0.65460  1.0000 0.10052691
H   H92       1.0  0.72310  0.67520  0.15460  1.0000 0.10052691
H   H93       1.0  0.67520  0.72310  0.84540  1.0000 0.10052691
H   H94       1.0  0.32480  0.27690  0.34540  1.0000 0.10052691
H   H95       1.0  0.22310  0.82480  0.59540  1.0000 0.10052691
H   H96       1.0  0.77690  0.17520  0.09540  1.0000 0.10052691
H   H97       1.0  0.85130  0.39900  0.56250  1.0000 0.1288756379
H   H98       1.0  0.14870  0.60100  0.06250  1.0000 0.1288756379
H   H99       1.0  0.10100  0.35130  0.81250  1.0000 0.1288756379
H   H100      1.0  0.89900  0.64870  0.31250  1.0000 0.1288756379
H   H101      1.0  0.64870  0.89900  0.68750  1.0000 0.1288756379
H   H102      1.0  0.35130  0.10100  0.18750  1.0000 0.1288756379
H   H103      1.0  0.39900  0.85130  0.43750  1.0000 0.1288756379
H   H104      1.0  0.60100  0.14870  0.93750  1.0000 0.1288756379
H   H105      1.0  0.74190  0.49590  0.57270  1.0000 0.0938596104
H   H106      1.0  0.25810  0.50410  0.07270  1.0000 0.0938596104
H   H107      1.0  0.00410  0.24190  0.82270  1.0000 0.0938596104
H   H108      1.0  0.99590  0.75810  0.32270  1.0000 0.0938596104
H   H109      1.0  0.75810  0.99590  0.67730  1.0000 0.0938596104
H   H110      1.0  0.24190  0.00410  0.17730  1.0000 0.0938596104
H   H111      1.0  0.49590  0.74190  0.42730  1.0000 0.0938596104
H   H112      1.0  0.50410  0.25810  0.92730  1.0000 0.0938596104
H   H113      1.0  0.65740  0.44030  0.40820  1.0000 0.10052691
H   H114      1.0  0.34260  0.55970  0.90820  1.0000 0.10052691
H   H115      1.0  0.05970  0.15740  0.65820  1.0000 0.10052691
H   H116      1.0  0.94030  0.84260  0.15820  1.0000 0.10052691
H   H117      1.0  0.84260  0.94030  0.84180  1.0000 0.10052691
H   H118      1.0  0.15740  0.05970  0.34180  1.0000 0.10052691
H   H119      1.0  0.44030  0.65740  0.59180  1.0000 0.10052691
H   H120      1.0  0.55970  0.34260  0.09180  1.0000 0.10052691
H   H121      1.0  0.76550  0.34560  0.39220  1.0000 0.1190448204
H   H122      1.0  0.23450  0.65440  0.89220  1.0000 0.1190448204
H   H123      1.0  0.15440  0.26550  0.64220  1.0000 0.1190448204
H   H124      1.0  0.84560  0.73450  0.14220  1.0000 0.1190448204
H   H125      1.0  0.73450  0.84560  0.85780  1.0000 0.1190448204
H   H126      1.0  0.26550  0.15440  0.35780  1.0000 0.1190448204
H   H127      1.0  0.34560  0.76550  0.60780  1.0000 0.1190448204
H   H128      1.0  0.65440  0.23450  0.10780  1.0000 0.1190448204
H   H129      1.0  0.73980  0.10130  0.35300  1.0000 0.2538499285
H   H130      1.0  0.26020  0.89870  0.85300  1.0000 0.2538499285
H   H131      1.0  0.39870  0.23980  0.60300  1.0000 0.2538499285
H   H132      1.0  0.60130  0.76020  0.10300  1.0000 0.2538499285
H   H133      1.0  0.76020  0.60130  0.89700  1.0000 0.2538499285
H   H134      1.0  0.23980  0.39870  0.39700  1.0000 0.2538499285
H   H135      1.0  0.10130  0.73980  0.64700  1.0000 0.2538499285
H   H136      1.0  0.89870  0.26020  0.14700  1.0000 0.2538499285
H   H137      1.0  0.74300  0.02510  0.39260  1.0000 0.2652893711
H   H138      1.0  0.25700  0.97490  0.89260  1.0000 0.2652893711
H   H139      1.0  0.47490  0.24300  0.64260  1.0000 0.2652893711
H   H140      1.0  0.52510  0.75700  0.14260  1.0000 0.2652893711
H   H141      1.0  0.75700  0.52510  0.85740  1.0000 0.2652893711
H   H142      1.0  0.24300  0.47490  0.35740  1.0000 0.2652893711
H   H143      1.0  0.02510  0.74300  0.60740  1.0000 0.2652893711
H   H144      1.0  0.97490  0.25700  0.10740  1.0000 0.2652893711
C   C1        1.0  0.58650  0.64130  0.36060  1.0000 0.0639984997
C   C2        1.0  0.41350  0.35870  0.86060  1.0000 0.0639984997
C   C3        1.0  0.85870  0.08650  0.61060  1.0000 0.0706207589
C   C4        1.0  0.14130  0.91350  0.11060  1.0000 0.0639984997
C   C5        1.0  0.91350  0.14130  0.88940  1.0000 0.0639984997
C   C6        1.0  0.08650  0.85870  0.38940  1.0000 0.0706207589
C   C7        1.0  0.64130  0.58650  0.63940  1.0000 0.0639984997
C   C8        1.0  0.35870  0.41350  0.13940  1.0000 0.0639984997
C   C9        1.0  0.61500  0.70140  0.32030  1.0000 -0.1993812251
C   C10       1.0  0.38500  0.29860  0.82030  1.0000 -0.1993812251
C   C11       1.0  0.79860  0.11500  0.57030  1.0000 -0.1993812251
C   C12       1.0  0.20140  0.88500  0.07030  1.0000 -0.1993812251
C   C13       1.0  0.88500  0.20140  0.92970  1.0000 -0.1993812251
C   C14       1.0  0.11500  0.79860  0.42970  1.0000 -0.1993812251
C   C15       1.0  0.70140  0.61500  0.67970  1.0000 -0.1993812251
C   C16       1.0  0.29860  0.38500  0.17970  1.0000 -0.1993812251
C   C17       1.0  0.69100  0.74420  0.33420  1.0000 0.1190448204
C   C18       1.0  0.30900  0.25580  0.83420  1.0000 0.1190448204
C   C19       1.0  0.75580  0.19100  0.58420  1.0000 0.1190448204
C   C20       1.0  0.24420  0.80900  0.08420  1.0000 0.1190448204
C   C21       1.0  0.80900  0.24420  0.91580  1.0000 0.1190448204
C   C22       1.0  0.19100  0.75580  0.41580  1.0000 0.1190448204
C   C23       1.0  0.74420  0.69100  0.66580  1.0000 0.1190448204
C   C24       1.0  0.25580  0.30900  0.16580  1.0000 0.1190448204
C   C25       1.0  0.73460  0.71560  0.38540  1.0000 -0.1926642785
C   C26       1.0  0.26540  0.28440  0.88540  1.0000 -0.1926642785
C   C27       1.0  0.78440  0.23460  0.63540  1.0000 -0.1926642785
C   C28       1.0  0.21560  0.76540  0.13540  1.0000 -0.1926642785
C   C29       1.0  0.76540  0.21560  0.86460  1.0000 -0.1926642785
C   C30       1.0  0.23460  0.78440  0.36460  1.0000 -0.1926642785
C   C31       1.0  0.71560  0.73460  0.61460  1.0000 -0.1926642785
C   C32       1.0  0.28440  0.26540  0.11460  1.0000 -0.1926642785
C   C33       1.0  0.69990  0.65590  0.42370  1.0000 0.0456374411
C   C34       1.0  0.30010  0.34410  0.92370  1.0000 0.0456374411
C   C35       1.0  0.84410  0.19990  0.67370  1.0000 0.0456374411
C   C36       1.0  0.15590  0.80010  0.17370  1.0000 0.0456374411
C   C37       1.0  0.80010  0.15590  0.82630  1.0000 0.0456374411
C   C38       1.0  0.19990  0.84410  0.32630  1.0000 0.0456374411
C   C39       1.0  0.65590  0.69990  0.57630  1.0000 0.0456374411
C   C40       1.0  0.34410  0.30010  0.07630  1.0000 0.0456374411
C   C41       1.0  0.72150  0.81580  0.29670  1.0000 0.0706207589
C   C42       1.0  0.27850  0.18420  0.79670  1.0000 0.0706207589
C   C43       1.0  0.68420  0.22150  0.54670  1.0000 0.0706207589
C   C44       1.0  0.31580  0.77850  0.04670  1.0000 0.0706207589
C   C45       1.0  0.77850  0.31580  0.95330  1.0000 0.0706207589
C   C46       1.0  0.22150  0.68420  0.45330  1.0000 0.0706207589
C   C47       1.0  0.81580  0.72150  0.70330  1.0000 0.0706207589
C   C48       1.0  0.18420  0.27850  0.20330  1.0000 0.0706207589
C   C49       1.0  0.69360  0.83160  0.23720  1.0000 -0.1651251267
C   C50       1.0  0.30640  0.16840  0.73720  1.0000 -0.1570899488
C   C51       1.0  0.66840  0.19360  0.48720  1.0000 -0.1651251267
C   C52       1.0  0.33160  0.80640  0.98720  1.0000 -0.1651251267
C   C53       1.0  0.80640  0.33160  0.01280  1.0000 -0.1651251267
C   C54       1.0  0.19360  0.66840  0.51280  1.0000 -0.1651251267
C   C55       1.0  0.83160  0.69360  0.76280  1.0000 -0.1651251267
C   C56       1.0  0.16840  0.30640  0.26280  1.0000 -0.1570899488
C   C57       1.0  0.72370  0.89940  0.20440  1.0000 -0.1041532259
C   C58       1.0  0.27630  0.10060  0.70440  1.0000 -0.1041532259
C   C59       1.0  0.60060  0.22370  0.45440  1.0000 -0.1041532259
C   C60       1.0  0.39940  0.77630  0.95440  1.0000 -0.1041532259
C   C61       1.0  0.77630  0.39940  0.04560  1.0000 -0.1041532259
C   C62       1.0  0.22370  0.60060  0.54560  1.0000 -0.1041532259
C   C63       1.0  0.89940  0.72370  0.79560  1.0000 -0.1041532259
C   C64       1.0  0.10060  0.27630  0.29560  1.0000 -0.1041532259
C   C65       1.0  0.78230  0.95440  0.23000  1.0000 -0.1570899488
C   C66       1.0  0.21770  0.04560  0.73000  1.0000 -0.1570899488
C   C67       1.0  0.54560  0.28230  0.48000  1.0000 -0.1570899488
C   C68       1.0  0.45440  0.71770  0.98000  1.0000 -0.1570899488
C   C69       1.0  0.71770  0.45440  0.02000  1.0000 -0.1570899488
C   C70       1.0  0.28230  0.54560  0.52000  1.0000 -0.1570899488
C   C71       1.0  0.95440  0.78230  0.77000  1.0000 -0.1570899488
C   C72       1.0  0.04560  0.21770  0.27000  1.0000 -0.1570899488
C   C73       1.0  0.81110  0.93940  0.28940  1.0000 0.018449049
C   C74       1.0  0.18890  0.06060  0.78940  1.0000 0.018449049
C   C75       1.0  0.56060  0.31110  0.53940  1.0000 0.018449049
C   C76       1.0  0.43940  0.68890  0.03940  1.0000 0.018449049
C   C77       1.0  0.68890  0.43940  0.96060  1.0000 0.018449049
C   C78       1.0  0.31110  0.56060  0.46060  1.0000 0.018449049
C   C79       1.0  0.93940  0.81110  0.71060  1.0000 0.018449049
C   C80       1.0  0.06060  0.18890  0.21060  1.0000 0.018449049
C   C81       1.0  0.78200  0.87080  0.32250  1.0000 -0.1993812251
C   C82       1.0  0.21800  0.12920  0.82250  1.0000 -0.1993812251
C   C83       1.0  0.62920  0.28200  0.57250  1.0000 -0.1993812251
C   C84       1.0  0.37080  0.71800  0.07250  1.0000 -0.1993812251
C   C85       1.0  0.71800  0.37080  0.92750  1.0000 -0.1993812251
C   C86       1.0  0.28200  0.62920  0.42750  1.0000 -0.1993812251
C   C87       1.0  0.87080  0.78200  0.67750  1.0000 -0.1993812251
C   C88       1.0  0.12920  0.21800  0.17750  1.0000 -0.1993812251
C   C89       1.0  0.87340  0.99490  0.31990  1.0000 0.1800520041
C   C90       1.0  0.12660  0.00510  0.81990  1.0000 0.1800520041
C   C91       1.0  0.50510  0.37340  0.56990  1.0000 0.1800520041
C   C92       1.0  0.49490  0.62660  0.06990  1.0000 0.1800520041
C   C93       1.0  0.62660  0.49490  0.93010  1.0000 0.1800520041
C   C94       1.0  0.37340  0.50510  0.43010  1.0000 0.1800520041
C   C95       1.0  0.99490  0.87340  0.68010  1.0000 0.1800520041
C   C96       1.0  0.00510  0.12660  0.18010  1.0000 0.1800520041
C   C97       1.0  0.92420  0.09060  0.38170  1.0000 0.1800520041
C   C98       1.0  0.07580  0.90940  0.88170  1.0000 0.1800520041
C   C99       1.0  0.40940  0.42420  0.63170  1.0000 0.1800520041
C   C100      1.0  0.59060  0.57580  0.13170  1.0000 0.1800520041
C   C101      1.0  0.57580  0.59060  0.86830  1.0000 0.1800520041
C   C102      1.0  0.42420  0.40940  0.36830  1.0000 0.1800520041
C   C103      1.0  0.09060  0.92420  0.61830  1.0000 0.1800520041
C   C104      1.0  0.90940  0.07580  0.11830  1.0000 0.1800520041
C   C105      1.0  0.93240  0.16100  0.42610  1.0000 0.0432201826
C   C106      1.0  0.06760  0.83900  0.92610  1.0000 0.0432201826
C   C107      1.0  0.33900  0.43240  0.67610  1.0000 0.0432201826
C   C108      1.0  0.66100  0.56760  0.17610  1.0000 0.0432201826
C   C109      1.0  0.56760  0.66100  0.82390  1.0000 0.0432201826
C   C110      1.0  0.43240  0.33900  0.32390  1.0000 0.0432201826
C   C111      1.0  0.16100  0.93240  0.57390  1.0000 0.0432201826
C   C112      1.0  0.83900  0.06760  0.07390  1.0000 0.0432201826
C   C113      1.0  0.00360  0.16280  0.46250  1.0000 -0.1494889323
C   C114      1.0  0.99640  0.83720  0.96250  1.0000 -0.1494889323
C   C115      1.0  0.33720  0.50360  0.71250  1.0000 -0.1494889323
C   C116      1.0  0.66280  0.49640  0.21250  1.0000 -0.1494889323
C   C117      1.0  0.49640  0.66280  0.78750  1.0000 -0.1494889323
C   C118      1.0  0.50360  0.33720  0.28750  1.0000 -0.1494889323
C   C119      1.0  0.16280  0.00360  0.53750  1.0000 -0.1494889323
C   C120      1.0  0.83720  0.99640  0.03750  1.0000 -0.1494889323
C   C121      1.0  0.01540  0.22830  0.50270  1.0000 -0.1076377629
C   C122      1.0  0.98460  0.77170  0.00270  1.0000 -0.1076377629
C   C123      1.0  0.27170  0.51540  0.75270  1.0000 -0.1076377629
C   C124      1.0  0.72830  0.48460  0.25270  1.0000 -0.1076377629
C   C125      1.0  0.48460  0.72830  0.74730  1.0000 -0.1076377629
C   C126      1.0  0.51540  0.27170  0.24730  1.0000 -0.1076377629
C   C127      1.0  0.22830  0.01540  0.49730  1.0000 -0.1076377629
C   C128      1.0  0.77170  0.98460  0.99730  1.0000 -0.1076377629
C   C129      1.0  0.95610  0.29090  0.50840  1.0000 -0.1570899488
C   C130      1.0  0.04390  0.70910  0.00840  1.0000 -0.1570899488
C   C131      1.0  0.20910  0.45610  0.75840  1.0000 -0.1570899488
C   C132      1.0  0.79090  0.54390  0.25840  1.0000 -0.1570899488
C   C133      1.0  0.54390  0.79090  0.74160  1.0000 -0.1570899488
C   C134      1.0  0.45610  0.20910  0.24160  1.0000 -0.1570899488
C   C135      1.0  0.29090  0.95610  0.49160  1.0000 -0.1570899488
C   C136      1.0  0.70910  0.04390  0.99160  1.0000 -0.1570899488
C   C137      1.0  0.88520  0.29130  0.47060  1.0000 0.0706207589
C   C138      1.0  0.11480  0.70870  0.97060  1.0000 0.0706207589
C   C139      1.0  0.20870  0.38520  0.72060  1.0000 0.0706207589
C   C140      1.0  0.79130  0.61480  0.22060  1.0000 0.0706207589
C   C141      1.0  0.61480  0.79130  0.77940  1.0000 0.0706207589
C   C142      1.0  0.38520  0.20870  0.27940  1.0000 0.0706207589
C   C143      1.0  0.29130  0.88520  0.52940  1.0000 0.0706207589
C   C144      1.0  0.70870  0.11480  0.02940  1.0000 0.0706207589
C   C145      1.0  0.87360  0.22470  0.42990  1.0000 -0.1926642785
C   C146      1.0  0.12640  0.77530  0.92990  1.0000 -0.1926642785
C   C147      1.0  0.27530  0.37360  0.67990  1.0000 -0.1926642785
C   C148      1.0  0.72470  0.62640  0.17990  1.0000 -0.1926642785
C   C149      1.0  0.62640  0.72470  0.82010  1.0000 -0.1926642785
C   C150      1.0  0.37360  0.27530  0.32010  1.0000 -0.1926642785
C   C151      1.0  0.22470  0.87360  0.57010  1.0000 -0.1926642785
C   C152      1.0  0.77530  0.12640  0.07010  1.0000 -0.1926642785
C   C153      1.0  0.81930  0.35820  0.47710  1.0000 0.1190448204
C   C154      1.0  0.18070  0.64180  0.97710  1.0000 0.1190448204
C   C155      1.0  0.14180  0.31930  0.72710  1.0000 0.1190448204
C   C156      1.0  0.85820  0.68070  0.22710  1.0000 0.1190448204
C   C157      1.0  0.68070  0.85820  0.77290  1.0000 0.1190448204
C   C158      1.0  0.31930  0.14180  0.27290  1.0000 0.1190448204
C   C159      1.0  0.35820  0.81930  0.52290  1.0000 0.1190448204
C   C160      1.0  0.64180  0.18070  0.02290  1.0000 0.1190448204
C   C161      1.0  0.81170  0.40580  0.53010  1.0000 -0.1993812251
C   C162      1.0  0.18830  0.59420  0.03010  1.0000 -0.1993812251
C   C163      1.0  0.09420  0.31170  0.78010  1.0000 -0.1993812251
C   C164      1.0  0.90580  0.68830  0.28010  1.0000 -0.1993812251
C   C165      1.0  0.68830  0.90580  0.71990  1.0000 -0.1993812251
C   C166      1.0  0.31170  0.09420  0.21990  1.0000 -0.1993812251
C   C167      1.0  0.40580  0.81170  0.46990  1.0000 -0.1993812251
C   C168      1.0  0.59420  0.18830  0.96990  1.0000 -0.1993812251
C   C169      1.0  0.74580  0.46380  0.53600  1.0000 0.0706207589
C   C170      1.0  0.25420  0.53620  0.03600  1.0000 0.0706207589
C   C171      1.0  0.03620  0.24580  0.78600  1.0000 0.0706207589
C   C172      1.0  0.96380  0.75420  0.28600  1.0000 0.0706207589
C   C173      1.0  0.75420  0.96380  0.71400  1.0000 0.0706207589
C   C174      1.0  0.24580  0.03620  0.21400  1.0000 0.0706207589
C   C175      1.0  0.46380  0.74580  0.46400  1.0000 0.0706207589
C   C176      1.0  0.53620  0.25420  0.96400  1.0000 0.0706207589
C   C177      1.0  0.69720  0.43170  0.44020  1.0000 0.0759470474
C   C178      1.0  0.30280  0.56830  0.94020  1.0000 0.0759470474
C   C179      1.0  0.06830  0.19720  0.69020  1.0000 0.0759470474
C   C180      1.0  0.93170  0.80280  0.19020  1.0000 0.0759470474
C   C181      1.0  0.80280  0.93170  0.80980  1.0000 0.0759470474
C   C182      1.0  0.19720  0.06830  0.30980  1.0000 0.0759470474
C   C183      1.0  0.43170  0.69720  0.55980  1.0000 0.0759470474
C   C184      1.0  0.56830  0.30280  0.05980  1.0000 0.0759470474
C   C185      1.0  0.76110  0.37410  0.43040  1.0000 -0.1993812251
C   C186      1.0  0.23890  0.62590  0.93040  1.0000 -0.1993812251
C   C187      1.0  0.12590  0.26110  0.68040  1.0000 -0.1993812251
C   C188      1.0  0.87410  0.73890  0.18040  1.0000 -0.1993812251
C   C189      1.0  0.73890  0.87410  0.81960  1.0000 -0.1993812251
C   C190      1.0  0.26110  0.12590  0.31960  1.0000 -0.1993812251
C   C191      1.0  0.37410  0.76110  0.56960  1.0000 -0.1993812251
C   C192      1.0  0.62590  0.23890  0.06960  1.0000 -0.1993812251
N   N1        1.0  0.62510  0.61960  0.41271  1.0000 -0.2403043898
N   N2        1.0  0.37490  0.38040  0.91271  1.0000 -0.2403043898
N   N3        1.0  0.88040  0.12510  0.66271  1.0000 -0.2403043898
N   N4        1.0  0.11960  0.87490  0.16271  1.0000 -0.2403043898
N   N5        1.0  0.87490  0.11960  0.83729  1.0000 -0.2403043898
N   N6        1.0  0.12510  0.88040  0.33729  1.0000 -0.2403043898
N   N7        1.0  0.61960  0.62510  0.58729  1.0000 -0.2403043898
N   N8        1.0  0.38040  0.37490  0.08729  1.0000 -0.2403043898
N   N9        1.0  0.95580  0.99350  0.31620  1.0000 -0.2285732485
N   N10       1.0  0.04420  0.00650  0.81620  1.0000 -0.2285732485
N   N11       1.0  0.50650  0.45580  0.56620  1.0000 -0.2285732485
N   N12       1.0  0.49350  0.54420  0.06620  1.0000 -0.2285732485
N   N13       1.0  0.54420  0.49350  0.93380  1.0000 -0.2285732485
N   N14       1.0  0.45580  0.50650  0.43380  1.0000 -0.2285732485
N   N15       1.0  0.99350  0.95580  0.68380  1.0000 -0.2285732485
N   N16       1.0  0.00650  0.04420  0.18380  1.0000 -0.2285732485
N   N17       1.0  0.98810  0.05470  0.35443  1.0000 -0.2676214527
N   N18       1.0  0.01190  0.94530  0.85443  1.0000 -0.2676214527
N   N19       1.0  0.44530  0.48810  0.60443  1.0000 -0.2676214527
N   N20       1.0  0.55470  0.51190  0.10443  1.0000 -0.2676214527
N   N21       1.0  0.51190  0.55470  0.89557  1.0000 -0.2676214527
N   N22       1.0  0.48810  0.44530  0.39557  1.0000 -0.2676214527
N   N23       1.0  0.05470  0.98810  0.64557  1.0000 -0.2676214527
N   N24       1.0  0.94530  0.01190  0.14557  1.0000 -0.2676214527
N   N25       1.0  0.85090  0.05560  0.36043  1.0000 0.0639984997
N   N26       1.0  0.14910  0.94440  0.86043  1.0000 0.0639984997
N   N27       1.0  0.44440  0.35090  0.61043  1.0000 0.0639984997
N   N28       1.0  0.55560  0.64910  0.11043  1.0000 0.0639984997
N   N29       1.0  0.64910  0.55560  0.88957  1.0000 0.0639984997
N   N30       1.0  0.35090  0.44440  0.38957  1.0000 0.0639984997
N   N31       1.0  0.05560  0.85090  0.63957  1.0000 0.0639984997
N   N32       1.0  0.94440  0.14910  0.13957  1.0000 0.0639984997
N   N33       1.0  0.76960  0.07400  0.38270  1.0000 -0.4992051672
N   N34       1.0  0.23040  0.92600  0.88270  1.0000 -0.4992051672
N   N35       1.0  0.42600  0.26960  0.63270  1.0000 -0.4992051672
N   N36       1.0  0.57400  0.73040  0.13270  1.0000 -0.4992051672
N   N37       1.0  0.73040  0.57400  0.86730  1.0000 -0.4992051672
N   N38       1.0  0.26960  0.42600  0.36730  1.0000 -0.4992051672
N   N39       1.0  0.07400  0.76960  0.61730  1.0000 -0.4992051672
N   N40       1.0  0.92600  0.23040  0.11730  1.0000 -0.4992051672
N   N41       1.0  0.68800  0.47590  0.49190  1.0000 -0.2403043898
N   N42       1.0  0.31200  0.52410  0.99190  1.0000 -0.2403043898
N   N43       1.0  0.02410  0.18800  0.74190  1.0000 -0.2403043898
N   N44       1.0  0.97590  0.81200  0.24190  1.0000 -0.2403043898
N   N45       1.0  0.81200  0.97590  0.75810  1.0000 -0.2403043898
N   N46       1.0  0.18800  0.02410  0.25810  1.0000 -0.2403043898
N   N47       1.0  0.47590  0.68800  0.50810  1.0000 -0.2403043898
N   N48       1.0  0.52410  0.31200  0.00810  1.0000 -0.2403043898
Cl  Cl1       1.0  0.62261  0.37739  0.75000  1.0000 1.0365035881
Cl  Cl2       1.0  0.37739  0.62261  0.25000  1.0000 1.0365035881
Cl  Cl3       1.0  0.87739  0.87739  0.50000  1.0000 1.0365035881
Cl  Cl4       1.0  0.12261  0.12261  0.00000  1.0000 1.0365035881
O   O1        1.0  0.61630  0.31230  0.78520  1.0000 -0.3586533654
O   O2        1.0  0.68770  0.38370  0.71480  1.0000 -0.3586533654
O   O3        1.0  0.62660  0.43650  0.78890  1.0000 -0.3586533654
O   O4        1.0  0.56350  0.37340  0.71110  1.0000 -0.3586533654
O   O5        1.0  0.38370  0.68770  0.28520  1.0000 -0.3586533654
O   O6        1.0  0.31230  0.61630  0.21480  1.0000 -0.3586533654
O   O7        1.0  0.37340  0.56350  0.28890  1.0000 -0.3586533654
O   O8        1.0  0.43650  0.62660  0.21110  1.0000 -0.3586533654
O   O9        1.0  0.81230  0.88370  0.53520  1.0000 -0.3586533654
O   O10       1.0  0.88370  0.81230  0.46480  1.0000 -0.3586533654
O   O11       1.0  0.93650  0.87340  0.53890  1.0000 -0.3586533654
O   O12       1.0  0.87340  0.93650  0.46110  1.0000 -0.3586533654
O   O13       1.0  0.18770  0.11630  0.03520  1.0000 -0.3586533654
O   O14       1.0  0.11630  0.18770  0.96480  1.0000 -0.3586533654
O   O15       1.0  0.06350  0.12660  0.03890  1.0000 -0.3586533654
O   O16       1.0  0.12660  0.06350  0.96110  1.0000 -0.3586533654
