# DDEC6 charges by PACMAN v1.1 (https://github.com/mtap-research/PACMAN-charge/)
data_2010[Zn][pts]3[ION]1
_chemical_formula_sum              "Zn2 H20 C20 N4 O16"
_cell_length_a       9.592
_cell_length_b       9.592
_cell_length_c       11.021
_cell_angle_alpha    91.4204
_cell_angle_beta     91.4204
_cell_angle_gamma    105.98

_symmetry_space_group_name_H-M    "P 1"
_symmetry_Int_Tables_number       1

loop_
  _symmetry_equiv_pos_as_xyz
  'x, y, z'

loop_
  _atom_site_type_symbol
  _atom_site_label
  _atom_site_symmetry_multiplicity
  _atom_site_fract_x
  _atom_site_fract_y
  _atom_site_fract_z
  _atom_site_occupancy
  _atom_site_charge
Zn  Zn1       1.0  0.50040  0.50223  0.25294  1.0000 0.9741394668
Zn  Zn2       1.0  0.49737  0.50519  0.75283  1.0000 0.9758848696
H   H1        1.0  0.53224  0.05328  0.72487  1.0000 0.1158176809
H   H2        1.0  0.94967  0.47211  0.78089  1.0000 0.1158176809
H   H3        1.0  0.46491  0.95391  0.28103  1.0000 0.1158176809
H   H4        1.0  0.04809  0.53537  0.22502  1.0000 0.114168696
H   H5        1.0  0.87683  0.81250  0.45711  1.0000 0.2987316697
H   H6        1.0  0.82770  0.81240  0.60480  1.0000 0.2987316697
H   H7        1.0  0.91883  0.69347  0.55463  1.0000 0.3209864199
H   H8        1.0  0.23865  0.12743  0.86195  1.0000 0.3094073757
H   H9        1.0  0.22585  0.22436  0.99106  1.0000 0.3094073757
H   H10       1.0  0.36191  0.14240  0.97909  1.0000 0.3287275085
H   H11       1.0  0.14643  0.26064  0.36742  1.0000 0.3094073757
H   H12       1.0  0.08093  0.35478  0.47486  1.0000 0.3209864199
H   H13       1.0  0.24719  0.32575  0.49659  1.0000 0.3209864199
H   H14       1.0  0.77060  0.92030  0.96790  1.0000 0.3094073757
H   H15       1.0  0.68071  0.89774  0.10075  1.0000 0.3209864199
H   H16       1.0  0.82830  0.83319  0.08391  1.0000 0.2937263995
H   H17       1.0  0.67011  0.75195  0.00574  1.0000 0.3287275085
H   H18       1.0  0.74322  0.67156  0.50788  1.0000 0.3287275085
H   H19       1.0  0.09423  0.18478  0.50314  1.0000 0.2937263995
H   H20       1.0  0.18743  0.03998  0.99330  1.0000 0.2987316697
C   C1        1.0  0.50020  0.11960  0.42384  1.0000 -0.0407442401
C   C2        1.0  0.49341  0.23512  0.33680  1.0000 0.5314908921
C   C3        1.0  0.51988  0.14573  0.55117  1.0000 -0.0596593042
C   C4        1.0  0.51655  0.03027  0.62786  1.0000 -0.1058711385
C   C5        1.0  0.54489  0.29085  0.60900  1.0000 0.5419530818
C   C6        1.0  0.88276  0.50182  0.08207  1.0000 -0.0516121351
C   C7        1.0  0.76723  0.50799  0.16923  1.0000 0.5314908921
C   C8        1.0  0.85690  0.48353  0.95461  1.0000 -0.0596593042
C   C9        1.0  0.97248  0.48715  0.87796  1.0000 -0.1058711385
C   C10       1.0  0.71181  0.45880  0.89663  1.0000 0.5419530818
C   C11       1.0  0.49697  0.88757  0.58207  1.0000 -0.0407442401
C   C12       1.0  0.50341  0.77209  0.66921  1.0000 0.5314908921
C   C13       1.0  0.47761  0.86147  0.45468  1.0000 -0.0596593042
C   C14       1.0  0.48073  0.97691  0.37803  1.0000 -0.1058711385
C   C15       1.0  0.45300  0.71636  0.39679  1.0000 0.5419530818
C   C16       1.0  0.11502  0.50590  0.92385  1.0000 -0.0407442401
C   C17       1.0  0.23052  0.49914  0.83678  1.0000 0.5314908921
C   C18       1.0  0.14092  0.52452  0.05127  1.0000 -0.0596593042
C   C19       1.0  0.02531  0.52066  0.12794  1.0000 -0.1040073261
C   C20       1.0  0.28605  0.54941  0.10910  1.0000 0.5464209467
N   N1        1.0  0.84177  0.74755  0.53114  1.0000 -0.7516544512
N   N2        1.0  0.25344  0.13359  0.95634  1.0000 -0.7554556579
N   N3        1.0  0.14216  0.28149  0.46049  1.0000 -0.7516544512
N   N4        1.0  0.73744  0.85087  0.03960  1.0000 -0.7516544512
O   O1        1.0  0.51564  0.37894  0.37576  1.0000 -0.5166469068
O   O2        1.0  0.46748  0.20416  0.22912  1.0000 -0.47719647
O   O3        1.0  0.65347  0.38696  0.58786  1.0000 -0.4011601434
O   O4        1.0  0.44741  0.31601  0.69235  1.0000 -0.577406928
O   O5        1.0  0.62366  0.48712  0.13017  1.0000 -0.5108402223
O   O6        1.0  0.79793  0.53226  0.27709  1.0000 -0.472173229
O   O7        1.0  0.61533  0.35067  0.91812  1.0000 -0.4011601434
O   O8        1.0  0.68692  0.55592  0.81281  1.0000 -0.5736707896
O   O9        1.0  0.48155  0.62835  0.63019  1.0000 -0.5108402223
O   O10       1.0  0.52876  0.80294  0.77693  1.0000 -0.47719647
O   O11       1.0  0.34473  0.61993  0.41809  1.0000 -0.4011601434
O   O12       1.0  0.55046  0.69157  0.31327  1.0000 -0.5736707896
O   O13       1.0  0.37409  0.51978  0.87591  1.0000 -0.5166469068
O   O14       1.0  0.19980  0.47468  0.72893  1.0000 -0.472173229
O   O15       1.0  0.38225  0.65791  0.08791  1.0000 -0.4011601434
O   O16       1.0  0.31122  0.45187  0.19239  1.0000 -0.5736707896
