# DDEC6 charges by PACMAN v1.1 (https://github.com/mtap-research/PACMAN-charge/)
data_2010[In][nan]3[ION]1
_chemical_formula_sum              "In18 H48 C144 O100"
_cell_length_a       22.269
_cell_length_b       22.269
_cell_length_c       22.269
_cell_angle_alpha    109.471
_cell_angle_beta     109.471
_cell_angle_gamma    109.471

_symmetry_space_group_name_H-M    "P 1"
_symmetry_Int_Tables_number       1

loop_
  _symmetry_equiv_pos_as_xyz
  'x, y, z'

loop_
  _atom_site_type_symbol
  _atom_site_label
  _atom_site_symmetry_multiplicity
  _atom_site_fract_x
  _atom_site_fract_y
  _atom_site_fract_z
  _atom_site_occupancy
  _atom_site_charge
In  In1       1.0  0.69437  0.90283  0.00000  1.0000 1.498655046
In  In2       1.0  0.90283  0.69437  0.00000  1.0000 1.498655046
In  In3       1.0  0.09717  0.09717  0.79154  1.0000 1.498655046
In  In4       1.0  0.30563  0.30563  0.20846  1.0000 1.498655046
In  In5       1.0  0.00000  0.69437  0.90283  1.0000 1.498655046
In  In6       1.0  0.00000  0.90283  0.69437  1.0000 1.498655046
In  In7       1.0  0.79154  0.09717  0.09717  1.0000 1.498655046
In  In8       1.0  0.20846  0.30563  0.30563  1.0000 1.498655046
In  In9       1.0  0.90283  0.00000  0.69437  1.0000 1.498655046
In  In10      1.0  0.69437  0.00000  0.90283  1.0000 1.498655046
In  In11      1.0  0.09717  0.79154  0.09717  1.0000 1.498655046
In  In12      1.0  0.30563  0.20846  0.30563  1.0000 1.498655046
In  In13      1.0  0.50000  0.75000  0.25000  1.0000 1.2897898009
In  In14      1.0  0.50000  0.25000  0.75000  1.0000 1.2897898009
In  In15      1.0  0.25000  0.50000  0.75000  1.0000 1.2897898009
In  In16      1.0  0.75000  0.50000  0.25000  1.0000 1.2897898009
In  In17      1.0  0.75000  0.25000  0.50000  1.0000 1.2897898009
In  In18      1.0  0.25000  0.75000  0.50000  1.0000 1.2897898009
H   H1        1.0  0.60001  0.87357  0.13349  1.0000 0.1234736951
H   H2        1.0  0.74008  0.46653  0.86651  1.0000 0.1234736951
H   H3        1.0  0.25992  0.12643  0.72645  1.0000 0.1234736951
H   H4        1.0  0.39999  0.53347  0.27355  1.0000 0.1234736951
H   H5        1.0  0.13349  0.60001  0.87357  1.0000 0.1234736951
H   H6        1.0  0.86651  0.74008  0.46653  1.0000 0.1234736951
H   H7        1.0  0.72645  0.25992  0.12643  1.0000 0.1234736951
H   H8        1.0  0.27355  0.39999  0.53347  1.0000 0.1234736951
H   H9        1.0  0.87357  0.13349  0.60001  1.0000 0.1234736951
H   H10       1.0  0.46653  0.86651  0.74008  1.0000 0.1234736951
H   H11       1.0  0.12643  0.72645  0.25992  1.0000 0.1234736951
H   H12       1.0  0.53347  0.27355  0.39999  1.0000 0.1234736951
H   H13       1.0  0.87357  0.60001  0.13349  1.0000 0.1234736951
H   H14       1.0  0.46653  0.74008  0.86651  1.0000 0.1234736951
H   H15       1.0  0.12643  0.25992  0.72645  1.0000 0.1234736951
H   H16       1.0  0.53347  0.39999  0.27355  1.0000 0.1234736951
H   H17       1.0  0.60001  0.13349  0.87357  1.0000 0.1234736951
H   H18       1.0  0.74008  0.86651  0.46653  1.0000 0.1234736951
H   H19       1.0  0.25992  0.72645  0.12643  1.0000 0.1234736951
H   H20       1.0  0.39999  0.27355  0.53347  1.0000 0.1234736951
H   H21       1.0  0.13349  0.87357  0.60001  1.0000 0.1234736951
H   H22       1.0  0.86651  0.46653  0.74008  1.0000 0.1234736951
H   H23       1.0  0.72645  0.12643  0.25992  1.0000 0.1234736951
H   H24       1.0  0.27355  0.53347  0.39999  1.0000 0.1234736951
H   H25       1.0  0.99875  0.11956  0.21120  1.0000 0.1123753649
H   H26       1.0  0.90836  0.78755  0.78880  1.0000 0.1123753649
H   H27       1.0  0.09164  0.88044  0.87919  1.0000 0.1123753649
H   H28       1.0  0.00125  0.21245  0.12081  1.0000 0.1123753649
H   H29       1.0  0.21120  0.99875  0.11956  1.0000 0.1123753649
H   H30       1.0  0.78880  0.90836  0.78755  1.0000 0.1123753649
H   H31       1.0  0.87919  0.09164  0.88044  1.0000 0.1123753649
H   H32       1.0  0.12081  0.00125  0.21245  1.0000 0.1123753649
H   H33       1.0  0.12081  0.21245  0.00125  1.0000 0.1123753649
H   H34       1.0  0.78880  0.78755  0.90836  1.0000 0.1123753649
H   H35       1.0  0.87919  0.88044  0.09164  1.0000 0.1123753649
H   H36       1.0  0.21120  0.11956  0.99875  1.0000 0.1123753649
H   H37       1.0  0.60569  0.00033  0.34094  1.0000 0.1234736951
H   H38       1.0  0.65906  0.26474  0.65939  1.0000 0.1234736951
H   H39       1.0  0.34061  0.99967  0.60536  1.0000 0.1234736951
H   H40       1.0  0.39464  0.73526  0.39431  1.0000 0.1234736951
H   H41       1.0  0.34094  0.60569  0.00033  1.0000 0.1234736951
H   H42       1.0  0.65939  0.65906  0.26474  1.0000 0.1234736951
H   H43       1.0  0.60569  0.34094  0.00033  1.0000 0.1234736951
H   H44       1.0  0.39464  0.39431  0.73526  1.0000 0.1234736951
H   H45       1.0  0.99967  0.34061  0.60536  1.0000 0.1234736951
H   H46       1.0  0.26474  0.65906  0.65939  1.0000 0.1234736951
H   H47       1.0  0.99967  0.60536  0.34061  1.0000 0.1234736951
H   H48       1.0  0.73526  0.39464  0.39431  1.0000 0.1234736951
C   C1        1.0  0.55970  0.86840  0.23610  1.0000 0.5113663748
C   C2        1.0  0.62060  0.92940  0.18120  1.0000 -0.0492492512
C   C3        1.0  0.60100  0.93360  0.23960  1.0000 -0.0881416279
C   C4        1.0  0.63230  0.32360  0.76390  1.0000 0.5113663748
C   C5        1.0  0.74820  0.43940  0.81880  1.0000 -0.0492492512
C   C6        1.0  0.69400  0.36140  0.76040  1.0000 -0.0881416279
C   C7        1.0  0.36770  0.13160  0.69130  1.0000 0.5113663748
C   C8        1.0  0.25180  0.07060  0.69120  1.0000 -0.0492492512
C   C9        1.0  0.30600  0.06640  0.66740  1.0000 -0.0881416279
C   C10       1.0  0.44030  0.67640  0.30870  1.0000 0.5113663748
C   C11       1.0  0.37940  0.56060  0.30880  1.0000 -0.0492492512
C   C12       1.0  0.39900  0.63860  0.33260  1.0000 -0.0881416279
C   C13       1.0  0.23610  0.55970  0.86840  1.0000 0.5113663748
C   C14       1.0  0.18120  0.62060  0.92940  1.0000 -0.0492492512
C   C15       1.0  0.23960  0.60100  0.93360  1.0000 -0.0881416279
C   C16       1.0  0.76390  0.63230  0.32360  1.0000 0.5113663748
C   C17       1.0  0.81880  0.74820  0.43940  1.0000 -0.0492492512
C   C18       1.0  0.76040  0.69400  0.36140  1.0000 -0.0881416279
C   C19       1.0  0.69130  0.36770  0.13160  1.0000 0.5113663748
C   C20       1.0  0.69120  0.25180  0.07060  1.0000 -0.0492492512
C   C21       1.0  0.66740  0.30600  0.06640  1.0000 -0.0881416279
C   C22       1.0  0.30870  0.44030  0.67640  1.0000 0.5113663748
C   C23       1.0  0.30880  0.37940  0.56060  1.0000 -0.0492492512
C   C24       1.0  0.33260  0.39900  0.63860  1.0000 -0.0881416279
C   C25       1.0  0.86840  0.23610  0.55970  1.0000 0.5113663748
C   C26       1.0  0.92940  0.18120  0.62060  1.0000 -0.0492492512
C   C27       1.0  0.93360  0.23960  0.60100  1.0000 -0.0881416279
C   C28       1.0  0.32360  0.76390  0.63230  1.0000 0.5113663748
C   C29       1.0  0.43940  0.81880  0.74820  1.0000 -0.0492492512
C   C30       1.0  0.36140  0.76040  0.69400  1.0000 -0.0881416279
C   C31       1.0  0.13160  0.69130  0.36770  1.0000 0.5113663748
C   C32       1.0  0.07060  0.69120  0.25180  1.0000 -0.0492492512
C   C33       1.0  0.06640  0.66740  0.30600  1.0000 -0.0881416279
C   C34       1.0  0.67640  0.30870  0.44030  1.0000 0.5113663748
C   C35       1.0  0.56060  0.30880  0.37940  1.0000 -0.0492492512
C   C36       1.0  0.63860  0.33260  0.39900  1.0000 -0.0881416279
C   C37       1.0  0.86840  0.55970  0.23610  1.0000 0.5113663748
C   C38       1.0  0.92940  0.62060  0.18120  1.0000 -0.0492492512
C   C39       1.0  0.93360  0.60100  0.23960  1.0000 -0.0881416279
C   C40       1.0  0.32360  0.63230  0.76390  1.0000 0.5113663748
C   C41       1.0  0.43940  0.74820  0.81880  1.0000 -0.0492492512
C   C42       1.0  0.36140  0.69400  0.76040  1.0000 -0.0881416279
C   C43       1.0  0.13160  0.36770  0.69130  1.0000 0.5113663748
C   C44       1.0  0.07060  0.25180  0.69120  1.0000 -0.0492492512
C   C45       1.0  0.06640  0.30600  0.66740  1.0000 -0.0881416279
C   C46       1.0  0.67640  0.44030  0.30870  1.0000 0.5113663748
C   C47       1.0  0.56060  0.37940  0.30880  1.0000 -0.0492492512
C   C48       1.0  0.63860  0.39900  0.33260  1.0000 -0.0881416279
C   C49       1.0  0.55970  0.23610  0.86840  1.0000 0.5113663748
C   C50       1.0  0.62060  0.18120  0.92940  1.0000 -0.0492492512
C   C51       1.0  0.60100  0.23960  0.93360  1.0000 -0.0881416279
C   C52       1.0  0.63230  0.76390  0.32360  1.0000 0.5113663748
C   C53       1.0  0.74820  0.81880  0.43940  1.0000 -0.0492492512
C   C54       1.0  0.69400  0.76040  0.36140  1.0000 -0.0881416279
C   C55       1.0  0.36770  0.69130  0.13160  1.0000 0.5113663748
C   C56       1.0  0.25180  0.69120  0.07060  1.0000 -0.0492492512
C   C57       1.0  0.30600  0.66740  0.06640  1.0000 -0.0881416279
C   C58       1.0  0.44030  0.30870  0.67640  1.0000 0.5113663748
C   C59       1.0  0.37940  0.30880  0.56060  1.0000 -0.0492492512
C   C60       1.0  0.39900  0.33260  0.63860  1.0000 -0.0881416279
C   C61       1.0  0.23610  0.86840  0.55970  1.0000 0.5113663748
C   C62       1.0  0.18120  0.92940  0.62060  1.0000 -0.0492492512
C   C63       1.0  0.23960  0.93360  0.60100  1.0000 -0.0881416279
C   C64       1.0  0.76390  0.32360  0.63230  1.0000 0.5113663748
C   C65       1.0  0.81880  0.43940  0.74820  1.0000 -0.0492492512
C   C66       1.0  0.76040  0.36140  0.69400  1.0000 -0.0881416279
C   C67       1.0  0.69130  0.13160  0.36770  1.0000 0.5113663748
C   C68       1.0  0.69120  0.07060  0.25180  1.0000 -0.0492492512
C   C69       1.0  0.66740  0.06640  0.30600  1.0000 -0.0881416279
C   C70       1.0  0.30870  0.67640  0.44030  1.0000 0.5113663748
C   C71       1.0  0.30880  0.56060  0.37940  1.0000 -0.0492492512
C   C72       1.0  0.33260  0.63860  0.39900  1.0000 -0.0881416279
C   C73       1.0  0.00000  0.06590  0.19330  1.0000 -0.0741424314
C   C74       1.0  0.87260  0.80670  0.80670  1.0000 -0.0741424314
C   C75       1.0  0.12740  0.93410  0.93410  1.0000 -0.0741424314
C   C76       1.0  0.00000  0.19330  0.06590  1.0000 -0.0741424314
C   C77       1.0  0.19330  0.00000  0.06590  1.0000 -0.0741424314
C   C78       1.0  0.80670  0.87260  0.80670  1.0000 -0.0741424314
C   C79       1.0  0.93410  0.12740  0.93410  1.0000 -0.0741424314
C   C80       1.0  0.06590  0.00000  0.19330  1.0000 -0.0754017631
C   C81       1.0  0.06590  0.19330  0.00000  1.0000 -0.0741424314
C   C82       1.0  0.80670  0.80670  0.87260  1.0000 -0.0741424314
C   C83       1.0  0.93410  0.93410  0.12740  1.0000 -0.0741424314
C   C84       1.0  0.19330  0.06590  0.00000  1.0000 -0.0741424314
C   C85       1.0  0.93560  0.00000  0.14960  1.0000 -0.0339093582
C   C86       1.0  0.69140  0.00000  0.13840  1.0000 0.6164450695
C   C87       1.0  0.86120  0.00000  0.12300  1.0000 0.6264404605
C   C88       1.0  0.62340  0.00000  0.29840  1.0000 -0.0339093582
C   C89       1.0  0.66470  0.00000  0.19470  1.0000 -0.0430481794
C   C90       1.0  0.85040  0.78600  0.85040  1.0000 -0.0339093582
C   C91       1.0  0.86160  0.55300  0.86160  1.0000 0.6164450695
C   C92       1.0  0.87700  0.73820  0.87700  1.0000 0.6264404605
C   C93       1.0  0.70160  0.32500  0.70160  1.0000 -0.0339093582
C   C94       1.0  0.80530  0.47000  0.80530  1.0000 -0.0430481794
C   C95       1.0  0.14960  1.00000  0.93560  1.0000 -0.0339093582
C   C96       1.0  0.13840  0.00000  0.69140  1.0000 0.6164450695
C   C97       1.0  0.12300  0.00000  0.86120  1.0000 0.6264404605
C   C98       1.0  0.29840  0.00000  0.62340  1.0000 -0.0339093582
C   C99       1.0  0.19470  0.00000  0.66470  1.0000 -0.0430481794
C   C100      1.0  0.06440  0.21400  0.06440  1.0000 -0.0339093582
C   C101      1.0  0.30860  0.44700  0.30860  1.0000 0.6164450695
C   C102      1.0  0.13880  0.26180  0.13880  1.0000 0.6264404605
C   C103      1.0  0.37660  0.67500  0.37660  1.0000 -0.0339093582
C   C104      1.0  0.33530  0.53000  0.33530  1.0000 -0.0430481794
C   C105      1.0  0.14960  0.93560  0.00000  1.0000 -0.0339093582
C   C106      1.0  0.13840  0.69140  0.00000  1.0000 0.6164450695
C   C107      1.0  0.12300  0.86120  0.00000  1.0000 0.6264404605
C   C108      1.0  0.29840  0.62340  0.00000  1.0000 -0.0339093582
C   C109      1.0  0.19470  0.66470  0.00000  1.0000 -0.0430481794
C   C110      1.0  0.85040  0.85040  0.78600  1.0000 -0.0339093582
C   C111      1.0  0.86160  0.86160  0.55300  1.0000 0.6164450695
C   C112      1.0  0.87700  0.87700  0.73820  1.0000 0.6264404605
C   C113      1.0  0.70160  0.70160  0.32500  1.0000 -0.0339093582
C   C114      1.0  0.80530  0.80530  0.47000  1.0000 -0.0430481794
C   C115      1.0  0.93560  0.14960  0.00000  1.0000 -0.0339093582
C   C116      1.0  0.69140  0.13840  0.00000  1.0000 0.6164450695
C   C117      1.0  0.86120  0.12300  0.00000  1.0000 0.6264404605
C   C118      1.0  0.62340  0.29840  0.00000  1.0000 -0.0339093582
C   C119      1.0  0.66470  0.19470  0.00000  1.0000 -0.0430481794
C   C120      1.0  0.06440  0.06440  0.21400  1.0000 -0.0339093582
C   C121      1.0  0.30860  0.30860  0.44700  1.0000 0.6164450695
C   C122      1.0  0.13880  0.13880  0.26180  1.0000 0.6264404605
C   C123      1.0  0.37660  0.37660  0.67500  1.0000 -0.0339093582
C   C124      1.0  0.33530  0.33530  0.53000  1.0000 -0.0430481794
C   C125      1.0  1.00000  0.14960  0.93560  1.0000 -0.0430481794
C   C126      1.0  0.00000  0.13840  0.69140  1.0000 0.6164450695
C   C127      1.0  0.00000  0.12300  0.86120  1.0000 0.6264404605
C   C128      1.0  0.00000  0.29840  0.62340  1.0000 -0.0339093582
C   C129      1.0  0.00000  0.19470  0.66470  1.0000 -0.0430481794
C   C130      1.0  0.78600  0.85040  0.85040  1.0000 -0.0430481794
C   C131      1.0  0.55300  0.86160  0.86160  1.0000 0.6164450695
C   C132      1.0  0.73820  0.87700  0.87700  1.0000 0.6264404605
C   C133      1.0  0.32500  0.70160  0.70160  1.0000 -0.0339093582
C   C134      1.0  0.47000  0.80530  0.80530  1.0000 -0.0430481794
C   C135      1.0  0.00000  0.93560  0.14960  1.0000 -0.0339093582
C   C136      1.0  0.00000  0.69140  0.13840  1.0000 0.6164450695
C   C137      1.0  0.00000  0.86120  0.12300  1.0000 0.6264404605
C   C138      1.0  0.00000  0.62340  0.29840  1.0000 -0.0339093582
C   C139      1.0  0.00000  0.66470  0.19470  1.0000 -0.0430481794
C   C140      1.0  0.21400  0.06440  0.06440  1.0000 -0.0339093582
C   C141      1.0  0.44700  0.30860  0.30860  1.0000 0.6164450695
C   C142      1.0  0.26180  0.13880  0.13880  1.0000 0.6264404605
C   C143      1.0  0.67500  0.37660  0.37660  1.0000 -0.0339093582
C   C144      1.0  0.53000  0.33530  0.33530  1.0000 -0.0430481794
O   O1        1.0  0.54650  0.81060  0.19150  1.0000 -0.448177709
O   O2        1.0  0.67020  0.94020  0.08800  1.0000 -0.5447072337
O   O3        1.0  0.80360  0.93790  0.07930  1.0000 -0.578245615
O   O4        1.0  0.53690  0.86610  0.27960  1.0000 -0.4641010141
O   O5        1.0  0.61910  0.35500  0.80850  1.0000 -0.448177709
O   O6        1.0  0.85220  0.58220  0.91200  1.0000 -0.5456077407
O   O7        1.0  0.85860  0.72430  0.92070  1.0000 -0.578245615
O   O8        1.0  0.58650  0.25730  0.72040  1.0000 -0.4641010141
O   O9        1.0  0.38090  0.18940  0.73590  1.0000 -0.448177709
O   O10       1.0  0.14780  0.05980  0.73000  1.0000 -0.5447072337
O   O11       1.0  0.14140  0.06210  0.86570  1.0000 -0.578245615
O   O12       1.0  0.41350  0.13390  0.67080  1.0000 -0.4641010141
O   O13       1.0  0.45350  0.64500  0.26410  1.0000 -0.448177709
O   O14       1.0  0.32980  0.41780  0.27000  1.0000 -0.5447072337
O   O15       1.0  0.19640  0.27570  0.13430  1.0000 -0.578245615
O   O16       1.0  0.46310  0.74270  0.32920  1.0000 -0.4641010141
O   O17       1.0  0.19150  0.54650  0.81060  1.0000 -0.448177709
O   O18       1.0  0.08800  0.67020  0.94020  1.0000 -0.5447072337
O   O19       1.0  0.07930  0.80360  0.93790  1.0000 -0.578245615
O   O20       1.0  0.27960  0.53690  0.86610  1.0000 -0.4641010141
O   O21       1.0  0.80850  0.61910  0.35500  1.0000 -0.448177709
O   O22       1.0  0.91200  0.85220  0.58220  1.0000 -0.5447072337
O   O23       1.0  0.92070  0.85860  0.72430  1.0000 -0.578245615
O   O24       1.0  0.72040  0.58650  0.25730  1.0000 -0.4641010141
O   O25       1.0  0.73590  0.38090  0.18940  1.0000 -0.448177709
O   O26       1.0  0.73000  0.14780  0.05980  1.0000 -0.5447072337
O   O27       1.0  0.86570  0.14140  0.06210  1.0000 -0.578245615
O   O28       1.0  0.67080  0.41350  0.13390  1.0000 -0.4641010141
O   O29       1.0  0.26410  0.45350  0.64500  1.0000 -0.448177709
O   O30       1.0  0.27000  0.32980  0.41780  1.0000 -0.5447072337
O   O31       1.0  0.13430  0.19640  0.27570  1.0000 -0.578245615
O   O32       1.0  0.32920  0.46310  0.74270  1.0000 -0.4641010141
O   O33       1.0  0.81060  0.19150  0.54650  1.0000 -0.448177709
O   O34       1.0  0.94020  0.08800  0.67020  1.0000 -0.5456077407
O   O35       1.0  0.93790  0.07930  0.80360  1.0000 -0.578245615
O   O36       1.0  0.86610  0.27960  0.53690  1.0000 -0.4641010141
O   O37       1.0  0.35500  0.80850  0.61910  1.0000 -0.448177709
O   O38       1.0  0.58220  0.91200  0.85220  1.0000 -0.5447072337
O   O39       1.0  0.72430  0.92070  0.85860  1.0000 -0.578245615
O   O40       1.0  0.25730  0.72040  0.58650  1.0000 -0.4641010141
O   O41       1.0  0.18940  0.73590  0.38090  1.0000 -0.448177709
O   O42       1.0  0.05980  0.73000  0.14780  1.0000 -0.5447072337
O   O43       1.0  0.06210  0.86570  0.14140  1.0000 -0.578245615
O   O44       1.0  0.13390  0.67080  0.41350  1.0000 -0.4641010141
O   O45       1.0  0.64500  0.26410  0.45350  1.0000 -0.448177709
O   O46       1.0  0.41780  0.27000  0.32980  1.0000 -0.5456077407
O   O47       1.0  0.27570  0.13430  0.19640  1.0000 -0.578245615
O   O48       1.0  0.74270  0.32920  0.46310  1.0000 -0.4641010141
O   O49       1.0  0.81060  0.54650  0.19150  1.0000 -0.448177709
O   O50       1.0  0.94020  0.67020  0.08800  1.0000 -0.5447072337
O   O51       1.0  0.93790  0.80360  0.07930  1.0000 -0.578245615
O   O52       1.0  0.86610  0.53690  0.27960  1.0000 -0.4641010141
O   O53       1.0  0.35500  0.61910  0.80850  1.0000 -0.448177709
O   O54       1.0  0.58220  0.85220  0.91200  1.0000 -0.5456077407
O   O55       1.0  0.72430  0.85860  0.92070  1.0000 -0.578245615
O   O56       1.0  0.25730  0.58650  0.72040  1.0000 -0.4641010141
O   O57       1.0  0.18940  0.38090  0.73590  1.0000 -0.448177709
O   O58       1.0  0.05980  0.14780  0.73000  1.0000 -0.5447072337
O   O59       1.0  0.06210  0.14140  0.86570  1.0000 -0.578245615
O   O60       1.0  0.13390  0.41350  0.67080  1.0000 -0.4641010141
O   O61       1.0  0.64500  0.45350  0.26410  1.0000 -0.448177709
O   O62       1.0  0.41780  0.32980  0.27000  1.0000 -0.5447072337
O   O63       1.0  0.27570  0.19640  0.13430  1.0000 -0.578245615
O   O64       1.0  0.74270  0.46310  0.32920  1.0000 -0.4641010141
O   O65       1.0  0.54650  0.19150  0.81060  1.0000 -0.448177709
O   O66       1.0  0.67020  0.08800  0.94020  1.0000 -0.5456077407
O   O67       1.0  0.80360  0.07930  0.93790  1.0000 -0.578245615
O   O68       1.0  0.53690  0.27960  0.86610  1.0000 -0.4641010141
O   O69       1.0  0.61910  0.80850  0.35500  1.0000 -0.448177709
O   O70       1.0  0.85220  0.91200  0.58220  1.0000 -0.5447072337
O   O71       1.0  0.85860  0.92070  0.72430  1.0000 -0.578245615
O   O72       1.0  0.58650  0.72040  0.25730  1.0000 -0.4641010141
O   O73       1.0  0.38090  0.73590  0.18940  1.0000 -0.448177709
O   O74       1.0  0.14780  0.73000  0.05980  1.0000 -0.5447072337
O   O75       1.0  0.14140  0.86570  0.06210  1.0000 -0.578245615
O   O76       1.0  0.41350  0.67080  0.13390  1.0000 -0.4641010141
O   O77       1.0  0.45350  0.26410  0.64500  1.0000 -0.448177709
O   O78       1.0  0.32980  0.27000  0.41780  1.0000 -0.5447072337
O   O79       1.0  0.19640  0.13430  0.27570  1.0000 -0.578245615
O   O80       1.0  0.46310  0.32920  0.74270  1.0000 -0.4641010141
O   O81       1.0  0.19150  0.81060  0.54650  1.0000 -0.448177709
O   O82       1.0  0.08800  0.94020  0.67020  1.0000 -0.5447072337
O   O83       1.0  0.07930  0.93790  0.80360  1.0000 -0.578245615
O   O84       1.0  0.27960  0.86610  0.53690  1.0000 -0.4641010141
O   O85       1.0  0.80850  0.35500  0.61910  1.0000 -0.448177709
O   O86       1.0  0.91200  0.58220  0.85220  1.0000 -0.5447072337
O   O87       1.0  0.92070  0.72430  0.85860  1.0000 -0.578245615
O   O88       1.0  0.72040  0.25730  0.58650  1.0000 -0.4641010141
O   O89       1.0  0.73590  0.18940  0.38090  1.0000 -0.448177709
O   O90       1.0  0.73000  0.05980  0.14780  1.0000 -0.5456077407
O   O91       1.0  0.86570  0.06210  0.14140  1.0000 -0.578245615
O   O92       1.0  0.67080  0.13390  0.41350  1.0000 -0.4641010141
O   O93       1.0  0.26410  0.64500  0.45350  1.0000 -0.448177709
O   O94       1.0  0.27000  0.41780  0.32980  1.0000 -0.5447072337
O   O95       1.0  0.13430  0.27570  0.19640  1.0000 -0.578245615
O   O96       1.0  0.32920  0.74270  0.46310  1.0000 -0.4641010141
O   O97       1.0  0.73140  0.00000  0.00000  1.0000 -1.0788963387
O   O98       1.0  0.00000  0.73140  0.00000  1.0000 -1.0788963387
O   O99       1.0  0.00000  0.00000  0.73140  1.0000 -1.0788963387
O   O100      1.0  0.26860  0.26860  0.26860  1.0000 -1.0788963387
