# DDEC6 charges by PACMAN v1.1 (https://github.com/mtap-research/PACMAN-charge/)
data_2010[Co][bcg]3[ION]1
_chemical_formula_sum              "Co6 H52 C68 N4 O32"
_cell_length_a       17.3188
_cell_length_b       17.3188
_cell_length_c       18.311
_cell_angle_alpha    92.5031
_cell_angle_beta     92.5031
_cell_angle_gamma    32.7565

_symmetry_space_group_name_H-M    "P 1"
_symmetry_Int_Tables_number       1

loop_
  _symmetry_equiv_pos_as_xyz
  'x, y, z'

loop_
  _atom_site_type_symbol
  _atom_site_label
  _atom_site_symmetry_multiplicity
  _atom_site_fract_x
  _atom_site_fract_y
  _atom_site_fract_z
  _atom_site_occupancy
  _atom_site_charge
Co  Co1       1.0  0.64911  0.04569  0.01300  1.0000 0.9536534304
Co  Co2       1.0  0.95431  0.35089  0.48700  1.0000 0.9536534304
Co  Co3       1.0  0.35089  0.95431  0.98700  1.0000 0.9536534304
Co  Co4       1.0  0.04569  0.64911  0.51300  1.0000 0.9536534304
Co  Co5       1.0  0.50000  0.00000  0.00000  1.0000 1.0681008453
Co  Co6       1.0  0.00000  0.50000  0.50000  1.0000 1.0681008453
H   H1        1.0  0.26130  0.24670  0.83100  1.0000 0.1300204488
H   H2        1.0  0.14730  0.35530  0.71900  1.0000 0.1363533839
H   H3        1.0  0.33030  0.40690  0.69970  1.0000 0.1210754965
H   H4        1.0  0.44580  0.29700  0.81090  1.0000 0.1300204488
H   H5        1.0  0.03170  0.54290  0.10950  1.0000 0.1210754965
H   H6        1.0  0.81660  0.68560  0.92050  1.0000 0.1300204488
H   H7        1.0  0.08210  0.81050  0.96290  1.0000 0.1300204488
H   H8        1.0  0.22910  0.79450  0.96110  1.0000 0.1300204488
H   H9        1.0  0.46450  0.55950  0.74760  1.0000 0.187298117
H   H10       1.0  0.50050  0.61030  0.73970  1.0000 0.2773593718
H   H11       1.0  0.61440  0.44400  0.64900  1.0000 0.1014088446
H   H12       1.0  0.68660  0.33360  0.70880  1.0000 0.0903518701
H   H13       1.0  0.72910  0.38470  0.70270  1.0000 0.1210754965
H   H14       1.0  0.75330  0.73870  0.66900  1.0000 0.1363533839
H   H15       1.0  0.64470  0.85270  0.78100  1.0000 0.1363533839
H   H16       1.0  0.59310  0.66970  0.80030  1.0000 0.1300204488
H   H17       1.0  0.70300  0.55420  0.68910  1.0000 0.1210754965
H   H18       1.0  0.45710  0.96830  0.39050  1.0000 0.1210754965
H   H19       1.0  0.31440  0.18340  0.57950  1.0000 0.1300204488
H   H20       1.0  0.18950  0.91790  0.53710  1.0000 0.1300204488
H   H21       1.0  0.20550  0.77090  0.53890  1.0000 0.1300204488
H   H22       1.0  0.44050  0.53550  0.75240  1.0000 0.1840953508
H   H23       1.0  0.38970  0.49950  0.76030  1.0000 0.2731922919
H   H24       1.0  0.43670  0.47930  0.63710  1.0000 0.1210754965
H   H25       1.0  0.53220  0.33240  0.66620  1.0000 0.1300204488
H   H26       1.0  0.59610  0.36170  0.65960  1.0000 0.0753748471
H   H27       1.0  0.73870  0.75330  0.16900  1.0000 0.1363533839
H   H28       1.0  0.85270  0.64470  0.28100  1.0000 0.1363533839
H   H29       1.0  0.66970  0.59310  0.30030  1.0000 0.1300204488
H   H30       1.0  0.55420  0.70300  0.18910  1.0000 0.1210754965
H   H31       1.0  0.96830  0.45710  0.89050  1.0000 0.1210754965
H   H32       1.0  0.18340  0.31440  0.07950  1.0000 0.1300204488
H   H33       1.0  0.91790  0.18950  0.03710  1.0000 0.1300204488
H   H34       1.0  0.77090  0.20550  0.03890  1.0000 0.1300204488
H   H35       1.0  0.53550  0.44050  0.25240  1.0000 0.1840953508
H   H36       1.0  0.49950  0.38970  0.26030  1.0000 0.2731922919
H   H37       1.0  0.47930  0.43670  0.13710  1.0000 0.1210754965
H   H38       1.0  0.33240  0.53220  0.16620  1.0000 0.1300204488
H   H39       1.0  0.36170  0.59610  0.15960  1.0000 0.0748612041
H   H40       1.0  0.24670  0.26130  0.33100  1.0000 0.1300204488
H   H41       1.0  0.35530  0.14730  0.21900  1.0000 0.1363533839
H   H42       1.0  0.40690  0.33030  0.19970  1.0000 0.1210754965
H   H43       1.0  0.29700  0.44580  0.31090  1.0000 0.1300204488
H   H44       1.0  0.54290  0.03170  0.60950  1.0000 0.1210754965
H   H45       1.0  0.68560  0.81660  0.42050  1.0000 0.1300204488
H   H46       1.0  0.81050  0.08210  0.46290  1.0000 0.1300204488
H   H47       1.0  0.79450  0.22910  0.46110  1.0000 0.1300204488
H   H48       1.0  0.55950  0.46450  0.24760  1.0000 0.187298117
H   H49       1.0  0.61030  0.50050  0.23970  1.0000 0.2773593718
H   H50       1.0  0.44400  0.61440  0.14900  1.0000 0.1014088446
H   H51       1.0  0.33360  0.68660  0.20880  1.0000 0.0903518701
H   H52       1.0  0.38470  0.72910  0.20270  1.0000 0.1210754965
C   C1        1.0  0.36760  0.25840  0.83160  1.0000 -0.0030246561
C   C2        1.0  0.27642  0.27782  0.80460  1.0000 -0.0918698908
C   C3        1.0  0.20725  0.34405  0.73760  1.0000 -0.0997454197
C   C4        1.0  0.22679  0.39299  0.69870  1.0000 -0.0030246561
C   C5        1.0  0.31609  0.37469  0.72590  1.0000 -0.1087596363
C   C6        1.0  0.38590  0.30810  0.79260  1.0000 -0.0997454197
C   C7        1.0  0.44313  0.18693  0.90380  1.0000 0.5996072048
C   C8        1.0  0.14993  0.46533  0.62660  1.0000 0.5996072048
C   C9        1.0  0.01900  0.52520  0.06550  1.0000 -0.0997454197
C   C10       1.0  0.90769  0.63749  0.01790  1.0000 0.0048175168
C   C11       1.0  0.89000  0.61120  0.95250  1.0000 -0.0918698908
C   C12       1.0  0.81201  0.78501  0.03760  1.0000 0.5776502693
C   C13       1.0  0.04780  0.88780  0.97800  1.0000 -0.0997454197
C   C14       1.0  0.91100  0.01120  0.00130  1.0000 0.0073715838
C   C15       1.0  0.13580  0.87880  0.97710  1.0000 -0.1087596363
C   C16       1.0  0.83470  0.99670  0.99220  1.0000 0.5454796309
C   C17       1.0  0.65200  0.41400  0.69800  1.0000 -0.2545917278
C   C18       1.0  0.74160  0.63240  0.66840  1.0000 -0.0030246561
C   C19       1.0  0.72218  0.72358  0.69540  1.0000 -0.0918698908
C   C20       1.0  0.65595  0.79275  0.76240  1.0000 -0.0997454197
C   C21       1.0  0.60701  0.77321  0.80130  1.0000 -0.0030246561
C   C22       1.0  0.62531  0.68391  0.77410  1.0000 -0.1087596363
C   C23       1.0  0.69190  0.61410  0.70740  1.0000 -0.0997454197
C   C24       1.0  0.81307  0.55687  0.59620  1.0000 0.5996072048
C   C25       1.0  0.53467  0.85007  0.87340  1.0000 0.5996072048
C   C26       1.0  0.47480  0.98100  0.43450  1.0000 -0.0997454197
C   C27       1.0  0.36251  0.09231  0.48210  1.0000 0.0073715838
C   C28       1.0  0.38880  0.11000  0.54750  1.0000 -0.0918698908
C   C29       1.0  0.21499  0.18799  0.46240  1.0000 0.5776502693
C   C30       1.0  0.11220  0.95220  0.52200  1.0000 -0.0997454197
C   C31       1.0  0.98880  0.08900  0.49870  1.0000 0.0073715838
C   C32       1.0  0.12120  0.86420  0.52290  1.0000 -0.0997454197
C   C33       1.0  0.00330  0.16530  0.50780  1.0000 0.5454796309
C   C34       1.0  0.51200  0.40400  0.67100  1.0000 -0.2741772777
C   C35       1.0  0.63240  0.74160  0.16840  1.0000 -0.0030246561
C   C36       1.0  0.72358  0.72218  0.19540  1.0000 -0.0918698908
C   C37       1.0  0.79275  0.65595  0.26240  1.0000 -0.0997454197
C   C38       1.0  0.77321  0.60701  0.30130  1.0000 -0.0030246561
C   C39       1.0  0.68391  0.62531  0.27410  1.0000 -0.1087596363
C   C40       1.0  0.61410  0.69190  0.20740  1.0000 -0.0997454197
C   C41       1.0  0.55687  0.81307  0.09620  1.0000 0.5996072048
C   C42       1.0  0.85007  0.53467  0.37340  1.0000 0.5996072048
C   C43       1.0  0.98100  0.47480  0.93450  1.0000 -0.0997454197
C   C44       1.0  0.09231  0.36251  0.98210  1.0000 0.0073715838
C   C45       1.0  0.11000  0.38880  0.04750  1.0000 -0.0918698908
C   C46       1.0  0.18799  0.21499  0.96240  1.0000 0.5776502693
C   C47       1.0  0.95220  0.11220  0.02200  1.0000 -0.0997454197
C   C48       1.0  0.08900  0.98880  0.99870  1.0000 0.0073715838
C   C49       1.0  0.86420  0.12120  0.02290  1.0000 -0.0997454197
C   C50       1.0  0.16530  0.00330  0.00780  1.0000 0.5454796309
C   C51       1.0  0.40400  0.51200  0.17100  1.0000 -0.2741772777
C   C52       1.0  0.25840  0.36760  0.33160  1.0000 -0.0030246561
C   C53       1.0  0.27782  0.27642  0.30460  1.0000 -0.0918698908
C   C54       1.0  0.34405  0.20725  0.23760  1.0000 -0.0997454197
C   C55       1.0  0.39299  0.22679  0.19870  1.0000 -0.0030246561
C   C56       1.0  0.37469  0.31609  0.22590  1.0000 -0.1087596363
C   C57       1.0  0.30810  0.38590  0.29260  1.0000 -0.0997454197
C   C58       1.0  0.18693  0.44313  0.40380  1.0000 0.5996072048
C   C59       1.0  0.46533  0.14993  0.12660  1.0000 0.5996072048
C   C60       1.0  0.52520  0.01900  0.56550  1.0000 -0.0997454197
C   C61       1.0  0.63749  0.90769  0.51790  1.0000 0.0048175168
C   C62       1.0  0.61120  0.89000  0.45250  1.0000 -0.0918698908
C   C63       1.0  0.78501  0.81201  0.53760  1.0000 0.5776502693
C   C64       1.0  0.88780  0.04780  0.47800  1.0000 -0.0997454197
C   C65       1.0  0.01120  0.91100  0.50130  1.0000 0.0073715838
C   C66       1.0  0.87880  0.13580  0.47710  1.0000 -0.1087596363
C   C67       1.0  0.99670  0.83470  0.49220  1.0000 0.5454796309
C   C68       1.0  0.41400  0.65200  0.19800  1.0000 -0.2556606775
N   N1        1.0  0.53610  0.53410  0.75100  1.0000 -0.3803131825
N   N2        1.0  0.46590  0.46390  0.74900  1.0000 -0.3803131825
N   N3        1.0  0.46390  0.46590  0.24900  1.0000 -0.3803131825
N   N4        1.0  0.53410  0.53610  0.25100  1.0000 -0.3803131825
O   O1        1.0  0.53896  0.15356  0.92090  1.0000 -0.50949117
O   O2        1.0  0.40425  0.16505  0.94209  1.0000 -0.5691406971
O   O3        1.0  0.15626  0.52506  0.59920  1.0000 -0.5308034068
O   O4        1.0  0.08822  0.45882  0.59962  1.0000 -0.5517083352
O   O5        1.0  0.83745  0.80625  0.09150  1.0000 -0.4998100197
O   O6        1.0  0.70573  0.88713  0.99360  1.0000 -0.6028711742
O   O7        1.0  0.74260  0.06540  0.03290  1.0000 -0.4366999512
O   O8        1.0  0.86590  0.91690  0.94470  1.0000 -0.4886125645
O   O9        1.0  0.84644  0.46104  0.57910  1.0000 -0.5156635886
O   O10       1.0  0.83495  0.59575  0.55791  1.0000 -0.5691406971
O   O11       1.0  0.47494  0.84374  0.90080  1.0000 -0.5308034068
O   O12       1.0  0.54118  0.91178  0.90038  1.0000 -0.5517083352
O   O13       1.0  0.19375  0.16255  0.40850  1.0000 -0.4998100197
O   O14       1.0  0.11287  0.29427  0.50640  1.0000 -0.6028711742
O   O15       1.0  0.93460  0.25740  0.46710  1.0000 -0.4303272611
O   O16       1.0  0.08310  0.13410  0.55530  1.0000 -0.4886125645
O   O17       1.0  0.46104  0.84644  0.07910  1.0000 -0.5156635886
O   O18       1.0  0.59575  0.83495  0.05791  1.0000 -0.5691406971
O   O19       1.0  0.84374  0.47494  0.40080  1.0000 -0.5308034068
O   O20       1.0  0.91178  0.54118  0.40038  1.0000 -0.5517083352
O   O21       1.0  0.16255  0.19375  0.90850  1.0000 -0.4998100197
O   O22       1.0  0.29427  0.11287  0.00640  1.0000 -0.6028711742
O   O23       1.0  0.25740  0.93460  0.96710  1.0000 -0.4303272611
O   O24       1.0  0.13410  0.08310  0.05530  1.0000 -0.4886125645
O   O25       1.0  0.15356  0.53896  0.42090  1.0000 -0.50949117
O   O26       1.0  0.16505  0.40425  0.44209  1.0000 -0.5691406971
O   O27       1.0  0.52506  0.15626  0.09920  1.0000 -0.5308034068
O   O28       1.0  0.45882  0.08822  0.09962  1.0000 -0.5517083352
O   O29       1.0  0.80625  0.83745  0.59150  1.0000 -0.4998100197
O   O30       1.0  0.88713  0.70573  0.49360  1.0000 -0.6028711742
O   O31       1.0  0.06540  0.74260  0.53290  1.0000 -0.4366999512
O   O32       1.0  0.91690  0.86590  0.44470  1.0000 -0.4886125645
