# DDEC6 charges by PACMAN v1.1 (https://github.com/mtap-research/PACMAN-charge/)
data_2010[Cu][bor]3[ION]1
_chemical_formula_sum              "Cu62 H144 C96 S56 N192 Cl8 O32"
_cell_length_a       25.8638
_cell_length_b       25.8638
_cell_length_c       25.8638
_cell_angle_alpha    60
_cell_angle_beta     60
_cell_angle_gamma    60

_symmetry_space_group_name_H-M    "P 1"
_symmetry_Int_Tables_number       1

loop_
  _symmetry_equiv_pos_as_xyz
  'x, y, z'

loop_
  _atom_site_type_symbol
  _atom_site_label
  _atom_site_symmetry_multiplicity
  _atom_site_fract_x
  _atom_site_fract_y
  _atom_site_fract_z
  _atom_site_occupancy
  _atom_site_charge
Cu  Cu1       1.0  0.44370  0.85210  0.85210  1.0000 0.2499747285
Cu  Cu2       1.0  0.85210  0.44370  0.85210  1.0000 0.2499747285
Cu  Cu3       1.0  0.85210  0.85210  0.44370  1.0000 0.2499747285
Cu  Cu4       1.0  0.85210  0.85210  0.85210  1.0000 0.2499747285
Cu  Cu5       1.0  0.35210  0.94370  0.35210  1.0000 0.2499747285
Cu  Cu6       1.0  0.94370  0.35210  0.35210  1.0000 0.2499747285
Cu  Cu7       1.0  0.35210  0.35210  0.94370  1.0000 0.2499747285
Cu  Cu8       1.0  0.35210  0.35210  0.35210  1.0000 0.2499747285
Cu  Cu9       1.0  0.36360  0.80838  0.97404  1.0000 0.3207827001
Cu  Cu10      1.0  0.80838  0.36360  0.85398  1.0000 0.3207827001
Cu  Cu11      1.0  0.97404  0.85398  0.36360  1.0000 0.3207827001
Cu  Cu12      1.0  0.85398  0.97404  0.80838  1.0000 0.3288640496
Cu  Cu13      1.0  0.97404  0.36360  0.80838  1.0000 0.3207827001
Cu  Cu14      1.0  0.85398  0.80838  0.36360  1.0000 0.3288640496
Cu  Cu15      1.0  0.36360  0.97404  0.85398  1.0000 0.3207827001
Cu  Cu16      1.0  0.80838  0.85398  0.97404  1.0000 0.3207827001
Cu  Cu17      1.0  0.80838  0.97404  0.36360  1.0000 0.3207827001
Cu  Cu18      1.0  0.36360  0.85398  0.80838  1.0000 0.3207827001
Cu  Cu19      1.0  0.85398  0.36360  0.97404  1.0000 0.3207827001
Cu  Cu20      1.0  0.97404  0.80838  0.85398  1.0000 0.3207827001
Cu  Cu21      1.0  0.30838  0.86360  0.47404  1.0000 0.3207827001
Cu  Cu22      1.0  0.86360  0.30838  0.35398  1.0000 0.3207827001
Cu  Cu23      1.0  0.35398  0.47404  0.86360  1.0000 0.3207827001
Cu  Cu24      1.0  0.47404  0.35398  0.30838  1.0000 0.3207827001
Cu  Cu25      1.0  0.86360  0.47404  0.30838  1.0000 0.3207827001
Cu  Cu26      1.0  0.30838  0.35398  0.86360  1.0000 0.3288640496
Cu  Cu27      1.0  0.47404  0.86360  0.35398  1.0000 0.3207827001
Cu  Cu28      1.0  0.35398  0.30838  0.47404  1.0000 0.3288640496
Cu  Cu29      1.0  0.47404  0.30838  0.86360  1.0000 0.3207827001
Cu  Cu30      1.0  0.35398  0.86360  0.30838  1.0000 0.3288640496
Cu  Cu31      1.0  0.86360  0.35398  0.47404  1.0000 0.3288640496
Cu  Cu32      1.0  0.30838  0.47404  0.35398  1.0000 0.3207827001
Cu  Cu33      1.0  0.33258  0.77704  0.12992  1.0000 0.2987668969
Cu  Cu34      1.0  0.77704  0.33258  0.76046  1.0000 0.2987668969
Cu  Cu35      1.0  0.12992  0.76046  0.33258  1.0000 0.2987668969
Cu  Cu36      1.0  0.76046  0.12992  0.77704  1.0000 0.2987668969
Cu  Cu37      1.0  0.12992  0.33258  0.77704  1.0000 0.2987668969
Cu  Cu38      1.0  0.76046  0.77704  0.33258  1.0000 0.2987668969
Cu  Cu39      1.0  0.33258  0.12992  0.76046  1.0000 0.2987668969
Cu  Cu40      1.0  0.77704  0.76046  0.12992  1.0000 0.2987668969
Cu  Cu41      1.0  0.77704  0.12992  0.33258  1.0000 0.2987668969
Cu  Cu42      1.0  0.33258  0.76046  0.77704  1.0000 0.2987668969
Cu  Cu43      1.0  0.76046  0.33258  0.12992  1.0000 0.2987668969
Cu  Cu44      1.0  0.12992  0.77704  0.76046  1.0000 0.2987668969
Cu  Cu45      1.0  0.27704  0.83258  0.62992  1.0000 0.2987668969
Cu  Cu46      1.0  0.83258  0.27704  0.26046  1.0000 0.2987668969
Cu  Cu47      1.0  0.26046  0.62992  0.83258  1.0000 0.2987668969
Cu  Cu48      1.0  0.62992  0.26046  0.27704  1.0000 0.2987668969
Cu  Cu49      1.0  0.83258  0.62992  0.27704  1.0000 0.2987668969
Cu  Cu50      1.0  0.27704  0.26046  0.83258  1.0000 0.2987668969
Cu  Cu51      1.0  0.62992  0.83258  0.26046  1.0000 0.2987668969
Cu  Cu52      1.0  0.26046  0.27704  0.62992  1.0000 0.2987668969
Cu  Cu53      1.0  0.62992  0.27704  0.83258  1.0000 0.2987668969
Cu  Cu54      1.0  0.26046  0.83258  0.27704  1.0000 0.2987668969
Cu  Cu55      1.0  0.83258  0.26046  0.62992  1.0000 0.2987668969
Cu  Cu56      1.0  0.27704  0.62992  0.26046  1.0000 0.2987668969
Cu  Cu57      1.0  0.25000  0.75000  0.25000  1.0000 0.1915781537
Cu  Cu58      1.0  0.75000  0.25000  0.75000  1.0000 0.1915781537
Cu  Cu59      1.0  0.25000  0.25000  0.75000  1.0000 0.1915781537
Cu  Cu60      1.0  0.75000  0.75000  0.25000  1.0000 0.1915781537
Cu  Cu61      1.0  0.75000  0.25000  0.25000  1.0000 0.1915781537
Cu  Cu62      1.0  0.25000  0.75000  0.75000  1.0000 0.1915781537
H   H1        1.0  0.18990  0.71710  0.11230  1.0000 0.3091663298
H   H2        1.0  0.71710  0.18990  0.98070  1.0000 0.3091663298
H   H3        1.0  0.11230  0.98070  0.18990  1.0000 0.3091663298
H   H4        1.0  0.98070  0.11230  0.71710  1.0000 0.3091663298
H   H5        1.0  0.11230  0.18990  0.71710  1.0000 0.3091663298
H   H6        1.0  0.98070  0.71710  0.18990  1.0000 0.3091663298
H   H7        1.0  0.18990  0.11230  0.98070  1.0000 0.3091663298
H   H8        1.0  0.71710  0.98070  0.11230  1.0000 0.3091663298
H   H9        1.0  0.71710  0.11230  0.18990  1.0000 0.3091663298
H   H10       1.0  0.18990  0.98070  0.71710  1.0000 0.3091663298
H   H11       1.0  0.98070  0.18990  0.11230  1.0000 0.3091663298
H   H12       1.0  0.11230  0.71710  0.98070  1.0000 0.3091663298
H   H13       1.0  0.21710  0.68990  0.61230  1.0000 0.3091663298
H   H14       1.0  0.68990  0.21710  0.48070  1.0000 0.3091663298
H   H15       1.0  0.48070  0.61230  0.68990  1.0000 0.3091663298
H   H16       1.0  0.61230  0.48070  0.21710  1.0000 0.3091663298
H   H17       1.0  0.68990  0.61230  0.21710  1.0000 0.3091663298
H   H18       1.0  0.21710  0.48070  0.68990  1.0000 0.3091663298
H   H19       1.0  0.61230  0.68990  0.48070  1.0000 0.3091663298
H   H20       1.0  0.48070  0.21710  0.61230  1.0000 0.3091663298
H   H21       1.0  0.61230  0.21710  0.68990  1.0000 0.3091663298
H   H22       1.0  0.48070  0.68990  0.21710  1.0000 0.3091663298
H   H23       1.0  0.68990  0.48070  0.61230  1.0000 0.3091663298
H   H24       1.0  0.21710  0.61230  0.48070  1.0000 0.3091663298
H   H25       1.0  0.28230  0.76430  0.95210  1.0000 0.3091663298
H   H26       1.0  0.76430  0.28230  0.00130  1.0000 0.3091663298
H   H27       1.0  0.95210  0.00130  0.28230  1.0000 0.3091663298
H   H28       1.0  0.00130  0.95210  0.76430  1.0000 0.3091663298
H   H29       1.0  0.95210  0.28230  0.76430  1.0000 0.3091663298
H   H30       1.0  0.00130  0.76430  0.28230  1.0000 0.3091663298
H   H31       1.0  0.28230  0.95210  0.00130  1.0000 0.3091663298
H   H32       1.0  0.76430  0.00130  0.95210  1.0000 0.3091663298
H   H33       1.0  0.76430  0.95210  0.28230  1.0000 0.3091663298
H   H34       1.0  0.28230  0.00130  0.76430  1.0000 0.3091663298
H   H35       1.0  0.00130  0.28230  0.95210  1.0000 0.3091663298
H   H36       1.0  0.95210  0.76430  0.00130  1.0000 0.3091663298
H   H37       1.0  0.26430  0.78230  0.45210  1.0000 0.3091663298
H   H38       1.0  0.78230  0.26430  0.50130  1.0000 0.3091663298
H   H39       1.0  0.50130  0.45210  0.78230  1.0000 0.3091663298
H   H40       1.0  0.45210  0.50130  0.26430  1.0000 0.3091663298
H   H41       1.0  0.78230  0.45210  0.26430  1.0000 0.3091663298
H   H42       1.0  0.26430  0.50130  0.78230  1.0000 0.3091663298
H   H43       1.0  0.45210  0.78230  0.50130  1.0000 0.3091663298
H   H44       1.0  0.50130  0.26430  0.45210  1.0000 0.3091663298
H   H45       1.0  0.45210  0.26430  0.78230  1.0000 0.3091663298
H   H46       1.0  0.50130  0.78230  0.26430  1.0000 0.3091663298
H   H47       1.0  0.78230  0.50130  0.45210  1.0000 0.3091663298
H   H48       1.0  0.26430  0.45210  0.50130  1.0000 0.3091663298
H   H49       1.0  0.22750  0.74070  0.99310  1.0000 0.3207827001
H   H50       1.0  0.74070  0.22750  0.03870  1.0000 0.3207827001
H   H51       1.0  0.99310  0.03870  0.22750  1.0000 0.3207827001
H   H52       1.0  0.03870  0.99310  0.74070  1.0000 0.3207827001
H   H53       1.0  0.99310  0.22750  0.74070  1.0000 0.3207827001
H   H54       1.0  0.03870  0.74070  0.22750  1.0000 0.3207827001
H   H55       1.0  0.22750  0.99310  0.03870  1.0000 0.3207827001
H   H56       1.0  0.74070  0.03870  0.99310  1.0000 0.3207827001
H   H57       1.0  0.74070  0.99310  0.22750  1.0000 0.3207827001
H   H58       1.0  0.22750  0.03870  0.74070  1.0000 0.3207827001
H   H59       1.0  0.03870  0.22750  0.99310  1.0000 0.3207827001
H   H60       1.0  0.99310  0.74070  0.03870  1.0000 0.3207827001
H   H61       1.0  0.24070  0.72750  0.49310  1.0000 0.3207827001
H   H62       1.0  0.72750  0.24070  0.53870  1.0000 0.3207827001
H   H63       1.0  0.53870  0.49310  0.72750  1.0000 0.3207827001
H   H64       1.0  0.49310  0.53870  0.24070  1.0000 0.3207827001
H   H65       1.0  0.72750  0.49310  0.24070  1.0000 0.3207827001
H   H66       1.0  0.24070  0.53870  0.72750  1.0000 0.3207827001
H   H67       1.0  0.49310  0.72750  0.53870  1.0000 0.3207827001
H   H68       1.0  0.53870  0.24070  0.49310  1.0000 0.3207827001
H   H69       1.0  0.49310  0.24070  0.72750  1.0000 0.3207827001
H   H70       1.0  0.53870  0.72750  0.24070  1.0000 0.3207827001
H   H71       1.0  0.72750  0.53870  0.49310  1.0000 0.3207827001
H   H72       1.0  0.24070  0.49310  0.53870  1.0000 0.3207827001
H   H73       1.0  0.44810  0.63010  0.93110  1.0000 0.3288640496
H   H74       1.0  0.63010  0.44810  0.99070  1.0000 0.3288640496
H   H75       1.0  0.93110  0.99070  0.44810  1.0000 0.3288640496
H   H76       1.0  0.99070  0.93110  0.63010  1.0000 0.3288640496
H   H77       1.0  0.93110  0.44810  0.63010  1.0000 0.3288640496
H   H78       1.0  0.99070  0.63010  0.44810  1.0000 0.3288640496
H   H79       1.0  0.44810  0.93110  0.99070  1.0000 0.3288640496
H   H80       1.0  0.63010  0.99070  0.93110  1.0000 0.3288640496
H   H81       1.0  0.63010  0.93110  0.44810  1.0000 0.3288640496
H   H82       1.0  0.44810  0.99070  0.63010  1.0000 0.3288640496
H   H83       1.0  0.99070  0.44810  0.93110  1.0000 0.3288640496
H   H84       1.0  0.93110  0.63010  0.99070  1.0000 0.3288640496
H   H85       1.0  0.13010  0.94810  0.43110  1.0000 0.3288640496
H   H86       1.0  0.94810  0.13010  0.49070  1.0000 0.3288640496
H   H87       1.0  0.49070  0.43110  0.94810  1.0000 0.3288640496
H   H88       1.0  0.43110  0.49070  0.13010  1.0000 0.3288640496
H   H89       1.0  0.94810  0.43110  0.13010  1.0000 0.3288640496
H   H90       1.0  0.13010  0.49070  0.94810  1.0000 0.3288640496
H   H91       1.0  0.43110  0.94810  0.49070  1.0000 0.3288640496
H   H92       1.0  0.49070  0.13010  0.43110  1.0000 0.3288640496
H   H93       1.0  0.43110  0.13010  0.94810  1.0000 0.3288640496
H   H94       1.0  0.49070  0.94810  0.13010  1.0000 0.3288640496
H   H95       1.0  0.94810  0.49070  0.43110  1.0000 0.3288640496
H   H96       1.0  0.13010  0.43110  0.49070  1.0000 0.3288640496
H   H97       1.0  0.37680  0.60960  0.86140  1.0000 0.2987668969
H   H98       1.0  0.60960  0.37680  0.15220  1.0000 0.2987668969
H   H99       1.0  0.86140  0.15220  0.37680  1.0000 0.2987668969
H   H100      1.0  0.15220  0.86140  0.60960  1.0000 0.2987668969
H   H101      1.0  0.86140  0.37680  0.60960  1.0000 0.2987668969
H   H102      1.0  0.15220  0.60960  0.37680  1.0000 0.2987668969
H   H103      1.0  0.37680  0.86140  0.15220  1.0000 0.2987668969
H   H104      1.0  0.60960  0.15220  0.86140  1.0000 0.2987668969
H   H105      1.0  0.60960  0.86140  0.37680  1.0000 0.2987668969
H   H106      1.0  0.37680  0.15220  0.60960  1.0000 0.2987668969
H   H107      1.0  0.15220  0.37680  0.86140  1.0000 0.2987668969
H   H108      1.0  0.86140  0.60960  0.15220  1.0000 0.2987668969
H   H109      1.0  0.10960  0.87680  0.36140  1.0000 0.2987668969
H   H110      1.0  0.87680  0.10960  0.65220  1.0000 0.2987668969
H   H111      1.0  0.65220  0.36140  0.87680  1.0000 0.2987668969
H   H112      1.0  0.36140  0.65220  0.10960  1.0000 0.2987668969
H   H113      1.0  0.87680  0.36140  0.10960  1.0000 0.2987668969
H   H114      1.0  0.10960  0.65220  0.87680  1.0000 0.2987668969
H   H115      1.0  0.36140  0.87680  0.65220  1.0000 0.2987668969
H   H116      1.0  0.65220  0.10960  0.36140  1.0000 0.2987668969
H   H117      1.0  0.36140  0.10960  0.87680  1.0000 0.2987668969
H   H118      1.0  0.65220  0.87680  0.10960  1.0000 0.2987668969
H   H119      1.0  0.87680  0.65220  0.36140  1.0000 0.2987668969
H   H120      1.0  0.10960  0.36140  0.65220  1.0000 0.2987668969
H   H121      1.0  0.41480  0.57160  0.90460  1.0000 0.3403939613
H   H122      1.0  0.57160  0.41480  0.10900  1.0000 0.3403939613
H   H123      1.0  0.90460  0.10900  0.41480  1.0000 0.3403939613
H   H124      1.0  0.10900  0.90460  0.57160  1.0000 0.3403939613
H   H125      1.0  0.90460  0.41480  0.57160  1.0000 0.3403939613
H   H126      1.0  0.10900  0.57160  0.41480  1.0000 0.3403939613
H   H127      1.0  0.41480  0.90460  0.10900  1.0000 0.3403939613
H   H128      1.0  0.57160  0.10900  0.90460  1.0000 0.3403939613
H   H129      1.0  0.57160  0.90460  0.41480  1.0000 0.3403939613
H   H130      1.0  0.41480  0.10900  0.57160  1.0000 0.3403939613
H   H131      1.0  0.10900  0.41480  0.90460  1.0000 0.3403939613
H   H132      1.0  0.90460  0.57160  0.10900  1.0000 0.3403939613
H   H133      1.0  0.07160  0.91480  0.40460  1.0000 0.3403939613
H   H134      1.0  0.91480  0.07160  0.60900  1.0000 0.3403939613
H   H135      1.0  0.60900  0.40460  0.91480  1.0000 0.3403939613
H   H136      1.0  0.40460  0.60900  0.07160  1.0000 0.3403939613
H   H137      1.0  0.91480  0.40460  0.07160  1.0000 0.3403939613
H   H138      1.0  0.07160  0.60900  0.91480  1.0000 0.3403939613
H   H139      1.0  0.40460  0.91480  0.60900  1.0000 0.3403939613
H   H140      1.0  0.60900  0.07160  0.40460  1.0000 0.3403939613
H   H141      1.0  0.40460  0.07160  0.91480  1.0000 0.3403939613
H   H142      1.0  0.60900  0.91480  0.07160  1.0000 0.3403939613
H   H143      1.0  0.91480  0.60900  0.40460  1.0000 0.3403939613
H   H144      1.0  0.07160  0.40460  0.60900  1.0000 0.3403939613
C   C1        1.0  0.23841  0.73371  0.13965  1.0000 0.3403939613
C   C2        1.0  0.73371  0.23841  0.88823  1.0000 0.3403939613
C   C3        1.0  0.13965  0.88823  0.23841  1.0000 0.3403939613
C   C4        1.0  0.88823  0.13965  0.73371  1.0000 0.3403939613
C   C5        1.0  0.13965  0.23841  0.73371  1.0000 0.3403939613
C   C6        1.0  0.88823  0.73371  0.23841  1.0000 0.3403939613
C   C7        1.0  0.23841  0.13965  0.88823  1.0000 0.3403939613
C   C8        1.0  0.73371  0.88823  0.13965  1.0000 0.3403939613
C   C9        1.0  0.73371  0.13965  0.23841  1.0000 0.3403939613
C   C10       1.0  0.23841  0.88823  0.73371  1.0000 0.3403939613
C   C11       1.0  0.88823  0.23841  0.13965  1.0000 0.3403939613
C   C12       1.0  0.13965  0.73371  0.88823  1.0000 0.3403939613
C   C13       1.0  0.23371  0.73841  0.63965  1.0000 0.3403939613
C   C14       1.0  0.73841  0.23371  0.38823  1.0000 0.3403939613
C   C15       1.0  0.38823  0.63965  0.73841  1.0000 0.3403939613
C   C16       1.0  0.63965  0.38823  0.23371  1.0000 0.3403939613
C   C17       1.0  0.73841  0.63965  0.23371  1.0000 0.3403939613
C   C18       1.0  0.23371  0.38823  0.73841  1.0000 0.3403939613
C   C19       1.0  0.63965  0.73841  0.38823  1.0000 0.3403939613
C   C20       1.0  0.38823  0.23371  0.63965  1.0000 0.3403939613
C   C21       1.0  0.63965  0.23371  0.73841  1.0000 0.3403939613
C   C22       1.0  0.38823  0.73841  0.23371  1.0000 0.3403939613
C   C23       1.0  0.73841  0.38823  0.63965  1.0000 0.3403939613
C   C24       1.0  0.23371  0.63965  0.38823  1.0000 0.3403939613
C   C25       1.0  0.25864  0.75092  0.04120  1.0000 0.5192068606
C   C26       1.0  0.75092  0.25864  0.94924  1.0000 0.5192068606
C   C27       1.0  0.04120  0.94924  0.25864  1.0000 0.5192068606
C   C28       1.0  0.94924  0.04120  0.75092  1.0000 0.5192068606
C   C29       1.0  0.04120  0.25864  0.75092  1.0000 0.5192068606
C   C30       1.0  0.94924  0.75092  0.25864  1.0000 0.5192068606
C   C31       1.0  0.25864  0.04120  0.94924  1.0000 0.5192068606
C   C32       1.0  0.75092  0.94924  0.04120  1.0000 0.5192068606
C   C33       1.0  0.75092  0.04120  0.25864  1.0000 0.5192068606
C   C34       1.0  0.25864  0.94924  0.75092  1.0000 0.5192068606
C   C35       1.0  0.94924  0.25864  0.04120  1.0000 0.5192068606
C   C36       1.0  0.04120  0.75092  0.94924  1.0000 0.5192068606
C   C37       1.0  0.25092  0.75864  0.54120  1.0000 0.5192068606
C   C38       1.0  0.75864  0.25092  0.44924  1.0000 0.5192068606
C   C39       1.0  0.44924  0.54120  0.75864  1.0000 0.5192068606
C   C40       1.0  0.54120  0.44924  0.25092  1.0000 0.5192068606
C   C41       1.0  0.75864  0.54120  0.25092  1.0000 0.5192068606
C   C42       1.0  0.25092  0.44924  0.75864  1.0000 0.5192068606
C   C43       1.0  0.54120  0.75864  0.44924  1.0000 0.5192068606
C   C44       1.0  0.44924  0.25092  0.54120  1.0000 0.5192068606
C   C45       1.0  0.54120  0.25092  0.75864  1.0000 0.5192068606
C   C46       1.0  0.44924  0.75864  0.25092  1.0000 0.5192068606
C   C47       1.0  0.75864  0.44924  0.54120  1.0000 0.5192068606
C   C48       1.0  0.25092  0.54120  0.44924  1.0000 0.5192068606
C   C49       1.0  0.42136  0.72412  0.88846  1.0000 0.3288640496
C   C50       1.0  0.72412  0.42136  0.96606  1.0000 0.3288640496
C   C51       1.0  0.88846  0.96606  0.42136  1.0000 0.3288640496
C   C52       1.0  0.96606  0.88846  0.72412  1.0000 0.3288640496
C   C53       1.0  0.88846  0.42136  0.72412  1.0000 0.3288640496
C   C54       1.0  0.96606  0.72412  0.42136  1.0000 0.3288640496
C   C55       1.0  0.42136  0.88846  0.96606  1.0000 0.3288640496
C   C56       1.0  0.72412  0.96606  0.88846  1.0000 0.3288640496
C   C57       1.0  0.72412  0.88846  0.42136  1.0000 0.3288640496
C   C58       1.0  0.42136  0.96606  0.72412  1.0000 0.3288640496
C   C59       1.0  0.96606  0.42136  0.88846  1.0000 0.3288640496
C   C60       1.0  0.88846  0.72412  0.96606  1.0000 0.3288640496
C   C61       1.0  0.22412  0.92136  0.38846  1.0000 0.3288640496
C   C62       1.0  0.92136  0.22412  0.46606  1.0000 0.3288640496
C   C63       1.0  0.46606  0.38846  0.92136  1.0000 0.3288640496
C   C64       1.0  0.38846  0.46606  0.22412  1.0000 0.3288640496
C   C65       1.0  0.92136  0.38846  0.22412  1.0000 0.3288640496
C   C66       1.0  0.22412  0.46606  0.92136  1.0000 0.3288640496
C   C67       1.0  0.38846  0.92136  0.46606  1.0000 0.3288640496
C   C68       1.0  0.46606  0.22412  0.38846  1.0000 0.3288640496
C   C69       1.0  0.38846  0.22412  0.92136  1.0000 0.3288640496
C   C70       1.0  0.46606  0.92136  0.22412  1.0000 0.3288640496
C   C71       1.0  0.92136  0.46606  0.38846  1.0000 0.3288640496
C   C72       1.0  0.22412  0.38846  0.46606  1.0000 0.3288640496
C   C73       1.0  0.39807  0.66193  0.87661  1.0000 0.5192068606
C   C74       1.0  0.66193  0.39807  0.06339  1.0000 0.5192068606
C   C75       1.0  0.87661  0.06339  0.39807  1.0000 0.5192068606
C   C76       1.0  0.06339  0.87661  0.66193  1.0000 0.5192068606
C   C77       1.0  0.87661  0.39807  0.66193  1.0000 0.5192068606
C   C78       1.0  0.06339  0.66193  0.39807  1.0000 0.5192068606
C   C79       1.0  0.39807  0.87661  0.06339  1.0000 0.5192068606
C   C80       1.0  0.66193  0.06339  0.87661  1.0000 0.5192068606
C   C81       1.0  0.66193  0.87661  0.39807  1.0000 0.5192068606
C   C82       1.0  0.39807  0.06339  0.66193  1.0000 0.5192068606
C   C83       1.0  0.06339  0.39807  0.87661  1.0000 0.5192068606
C   C84       1.0  0.87661  0.66193  0.06339  1.0000 0.5192068606
C   C85       1.0  0.16193  0.89807  0.37661  1.0000 0.5192068606
C   C86       1.0  0.89807  0.16193  0.56339  1.0000 0.5192068606
C   C87       1.0  0.56339  0.37661  0.89807  1.0000 0.5192068606
C   C88       1.0  0.37661  0.56339  0.16193  1.0000 0.5192068606
C   C89       1.0  0.89807  0.37661  0.16193  1.0000 0.5192068606
C   C90       1.0  0.16193  0.56339  0.89807  1.0000 0.5192068606
C   C91       1.0  0.37661  0.89807  0.56339  1.0000 0.5192068606
C   C92       1.0  0.56339  0.16193  0.37661  1.0000 0.5192068606
C   C93       1.0  0.37661  0.16193  0.89807  1.0000 0.5192068606
C   C94       1.0  0.56339  0.89807  0.16193  1.0000 0.5192068606
C   C95       1.0  0.89807  0.56339  0.37661  1.0000 0.5192068606
C   C96       1.0  0.16193  0.37661  0.56339  1.0000 0.5192068606
S   S1        1.0  0.20105  0.71389  0.22183  1.0000 -0.4112168834
S   S2        1.0  0.71389  0.20105  0.86323  1.0000 -0.4112168834
S   S3        1.0  0.22183  0.86323  0.20105  1.0000 -0.4112168834
S   S4        1.0  0.86323  0.22183  0.71389  1.0000 -0.4112168834
S   S5        1.0  0.22183  0.20105  0.71389  1.0000 -0.4112168834
S   S6        1.0  0.86323  0.71389  0.20105  1.0000 -0.4112168834
S   S7        1.0  0.20105  0.22183  0.86323  1.0000 -0.4112168834
S   S8        1.0  0.71389  0.86323  0.22183  1.0000 -0.4112168834
S   S9        1.0  0.71389  0.22183  0.20105  1.0000 -0.4112168834
S   S10       1.0  0.20105  0.86323  0.71389  1.0000 -0.4112168834
S   S11       1.0  0.86323  0.20105  0.22183  1.0000 -0.4112168834
S   S12       1.0  0.22183  0.71389  0.86323  1.0000 -0.4112168834
S   S13       1.0  0.21389  0.70105  0.72183  1.0000 -0.4174813912
S   S14       1.0  0.70105  0.21389  0.36323  1.0000 -0.4174813912
S   S15       1.0  0.36323  0.72183  0.70105  1.0000 -0.4174813912
S   S16       1.0  0.72183  0.36323  0.21389  1.0000 -0.4174813912
S   S17       1.0  0.70105  0.72183  0.21389  1.0000 -0.4174813912
S   S18       1.0  0.21389  0.36323  0.70105  1.0000 -0.4174813912
S   S19       1.0  0.72183  0.70105  0.36323  1.0000 -0.4174813912
S   S20       1.0  0.36323  0.21389  0.72183  1.0000 -0.4174813912
S   S21       1.0  0.72183  0.21389  0.70105  1.0000 -0.4174813912
S   S22       1.0  0.36323  0.70105  0.21389  1.0000 -0.4174813912
S   S23       1.0  0.70105  0.36323  0.72183  1.0000 -0.4174813912
S   S24       1.0  0.21389  0.72183  0.36323  1.0000 -0.4174813912
S   S25       1.0  0.45332  0.74880  0.91450  1.0000 -0.3427195883
S   S26       1.0  0.74880  0.45332  0.88338  1.0000 -0.3427195883
S   S27       1.0  0.91450  0.88338  0.45332  1.0000 -0.3427195883
S   S28       1.0  0.88338  0.91450  0.74880  1.0000 -0.3427195883
S   S29       1.0  0.91450  0.45332  0.74880  1.0000 -0.3427195883
S   S30       1.0  0.88338  0.74880  0.45332  1.0000 -0.3427195883
S   S31       1.0  0.45332  0.91450  0.88338  1.0000 -0.3427195883
S   S32       1.0  0.74880  0.88338  0.91450  1.0000 -0.3427195883
S   S33       1.0  0.74880  0.91450  0.45332  1.0000 -0.3427195883
S   S34       1.0  0.45332  0.88338  0.74880  1.0000 -0.3427195883
S   S35       1.0  0.88338  0.45332  0.91450  1.0000 -0.3427195883
S   S36       1.0  0.91450  0.74880  0.88338  1.0000 -0.3427195883
S   S37       1.0  0.24880  0.95332  0.41450  1.0000 -0.3427195883
S   S38       1.0  0.95332  0.24880  0.38338  1.0000 -0.3427195883
S   S39       1.0  0.38338  0.41450  0.95332  1.0000 -0.3427195883
S   S40       1.0  0.41450  0.38338  0.24880  1.0000 -0.3427195883
S   S41       1.0  0.95332  0.41450  0.24880  1.0000 -0.3427195883
S   S42       1.0  0.24880  0.38338  0.95332  1.0000 -0.3427195883
S   S43       1.0  0.41450  0.95332  0.38338  1.0000 -0.3427195883
S   S44       1.0  0.38338  0.24880  0.41450  1.0000 -0.3427195883
S   S45       1.0  0.41450  0.24880  0.95332  1.0000 -0.3427195883
S   S46       1.0  0.38338  0.95332  0.24880  1.0000 -0.3427195883
S   S47       1.0  0.95332  0.38338  0.41450  1.0000 -0.3427195883
S   S48       1.0  0.24880  0.41450  0.38338  1.0000 -0.3427195883
S   S49       1.0  0.00000  0.00000  0.00000  1.0000 0.7771323909
S   S50       1.0  0.50000  0.50000  0.50000  1.0000 1.121323048
S   S51       1.0  0.50000  0.50000  0.00000  1.0000 1.4100842267
S   S52       1.0  0.00000  0.00000  0.50000  1.0000 1.4100842267
S   S53       1.0  0.50000  0.00000  0.50000  1.0000 1.4100842267
S   S54       1.0  0.00000  0.50000  0.00000  1.0000 1.4100842267
S   S55       1.0  0.00000  0.50000  0.50000  1.0000 1.4100842267
S   S56       1.0  0.50000  0.00000  0.00000  1.0000 1.4100842267
N   N1        1.0  0.28551  0.75645  0.10483  1.0000 -0.2326158336
N   N2        1.0  0.75645  0.28551  0.85321  1.0000 -0.2326158336
N   N3        1.0  0.10483  0.85321  0.28551  1.0000 -0.2326158336
N   N4        1.0  0.85321  0.10483  0.75645  1.0000 -0.2326158336
N   N5        1.0  0.10483  0.28551  0.75645  1.0000 -0.2326158336
N   N6        1.0  0.85321  0.75645  0.28551  1.0000 -0.2326158336
N   N7        1.0  0.28551  0.10483  0.85321  1.0000 -0.2326158336
N   N8        1.0  0.75645  0.85321  0.10483  1.0000 -0.2326158336
N   N9        1.0  0.75645  0.10483  0.28551  1.0000 -0.2326158336
N   N10       1.0  0.28551  0.85321  0.75645  1.0000 -0.2326158336
N   N11       1.0  0.85321  0.28551  0.10483  1.0000 -0.2326158336
N   N12       1.0  0.10483  0.75645  0.85321  1.0000 -0.2326158336
N   N13       1.0  0.25645  0.78551  0.60483  1.0000 -0.2326158336
N   N14       1.0  0.78551  0.25645  0.35321  1.0000 -0.2326158336
N   N15       1.0  0.35321  0.60483  0.78551  1.0000 -0.2326158336
N   N16       1.0  0.60483  0.35321  0.25645  1.0000 -0.2326158336
N   N17       1.0  0.78551  0.60483  0.25645  1.0000 -0.2326158336
N   N18       1.0  0.25645  0.35321  0.78551  1.0000 -0.2326158336
N   N19       1.0  0.60483  0.78551  0.35321  1.0000 -0.2326158336
N   N20       1.0  0.35321  0.25645  0.60483  1.0000 -0.2326158336
N   N21       1.0  0.60483  0.25645  0.78551  1.0000 -0.2326158336
N   N22       1.0  0.35321  0.78551  0.25645  1.0000 -0.2326158336
N   N23       1.0  0.78551  0.35321  0.60483  1.0000 -0.2326158336
N   N24       1.0  0.25645  0.60483  0.35321  1.0000 -0.2326158336
N   N25       1.0  0.29902  0.76706  0.04082  1.0000 -0.297535053
N   N26       1.0  0.76706  0.29902  0.89310  1.0000 -0.297535053
N   N27       1.0  0.04082  0.89310  0.29902  1.0000 -0.297535053
N   N28       1.0  0.89310  0.04082  0.76706  1.0000 -0.297535053
N   N29       1.0  0.04082  0.29902  0.76706  1.0000 -0.297535053
N   N30       1.0  0.89310  0.76706  0.29902  1.0000 -0.297535053
N   N31       1.0  0.29902  0.04082  0.89310  1.0000 -0.297535053
N   N32       1.0  0.76706  0.89310  0.04082  1.0000 -0.297535053
N   N33       1.0  0.76706  0.04082  0.29902  1.0000 -0.297535053
N   N34       1.0  0.29902  0.89310  0.76706  1.0000 -0.297535053
N   N35       1.0  0.89310  0.29902  0.04082  1.0000 -0.297535053
N   N36       1.0  0.04082  0.76706  0.89310  1.0000 -0.297535053
N   N37       1.0  0.26706  0.79902  0.54082  1.0000 -0.289787378
N   N38       1.0  0.79902  0.26706  0.39310  1.0000 -0.289787378
N   N39       1.0  0.39310  0.54082  0.79902  1.0000 -0.289787378
N   N40       1.0  0.54082  0.39310  0.26706  1.0000 -0.289787378
N   N41       1.0  0.79902  0.54082  0.26706  1.0000 -0.289787378
N   N42       1.0  0.26706  0.39310  0.79902  1.0000 -0.289787378
N   N43       1.0  0.54082  0.79902  0.39310  1.0000 -0.289787378
N   N44       1.0  0.39310  0.26706  0.54082  1.0000 -0.289787378
N   N45       1.0  0.54082  0.26706  0.79902  1.0000 -0.289787378
N   N46       1.0  0.39310  0.79902  0.26706  1.0000 -0.289787378
N   N47       1.0  0.79902  0.39310  0.54082  1.0000 -0.289787378
N   N48       1.0  0.26706  0.54082  0.39310  1.0000 -0.289787378
N   N49       1.0  0.21997  0.72999  0.10107  1.0000 -0.3427195883
N   N50       1.0  0.72999  0.21997  0.94897  1.0000 -0.3427195883
N   N51       1.0  0.10107  0.94897  0.21997  1.0000 -0.3427195883
N   N52       1.0  0.94897  0.10107  0.72999  1.0000 -0.3427195883
N   N53       1.0  0.10107  0.21997  0.72999  1.0000 -0.3427195883
N   N54       1.0  0.94897  0.72999  0.21997  1.0000 -0.3427195883
N   N55       1.0  0.21997  0.10107  0.94897  1.0000 -0.3427195883
N   N56       1.0  0.72999  0.94897  0.10107  1.0000 -0.3427195883
N   N57       1.0  0.72999  0.10107  0.21997  1.0000 -0.3427195883
N   N58       1.0  0.21997  0.94897  0.72999  1.0000 -0.3427195883
N   N59       1.0  0.94897  0.21997  0.10107  1.0000 -0.3427195883
N   N60       1.0  0.10107  0.72999  0.94897  1.0000 -0.3427195883
N   N61       1.0  0.22999  0.71997  0.60107  1.0000 -0.3289157621
N   N62       1.0  0.71997  0.22999  0.44897  1.0000 -0.3289157621
N   N63       1.0  0.44897  0.60107  0.71997  1.0000 -0.3289157621
N   N64       1.0  0.60107  0.44897  0.22999  1.0000 -0.3289157621
N   N65       1.0  0.71997  0.60107  0.22999  1.0000 -0.3289157621
N   N66       1.0  0.22999  0.44897  0.71997  1.0000 -0.3289157621
N   N67       1.0  0.60107  0.71997  0.44897  1.0000 -0.3289157621
N   N68       1.0  0.44897  0.22999  0.60107  1.0000 -0.3289157621
N   N69       1.0  0.60107  0.22999  0.71997  1.0000 -0.3289157621
N   N70       1.0  0.44897  0.71997  0.22999  1.0000 -0.3289157621
N   N71       1.0  0.71997  0.44897  0.60107  1.0000 -0.3289157621
N   N72       1.0  0.22999  0.60107  0.44897  1.0000 -0.3289157621
N   N73       1.0  0.25582  0.75210  0.98892  1.0000 -0.623240313
N   N74       1.0  0.75210  0.25582  0.00316  1.0000 -0.623240313
N   N75       1.0  0.98892  0.00316  0.25582  1.0000 -0.623240313
N   N76       1.0  0.00316  0.98892  0.75210  1.0000 -0.623240313
N   N77       1.0  0.98892  0.25582  0.75210  1.0000 -0.623240313
N   N78       1.0  0.00316  0.75210  0.25582  1.0000 -0.623240313
N   N79       1.0  0.25582  0.98892  0.00316  1.0000 -0.623240313
N   N80       1.0  0.75210  0.00316  0.98892  1.0000 -0.623240313
N   N81       1.0  0.75210  0.98892  0.25582  1.0000 -0.623240313
N   N82       1.0  0.25582  0.00316  0.75210  1.0000 -0.623240313
N   N83       1.0  0.00316  0.25582  0.98892  1.0000 -0.623240313
N   N84       1.0  0.98892  0.75210  0.00316  1.0000 -0.623240313
N   N85       1.0  0.25210  0.75582  0.48892  1.0000 -0.6021462415
N   N86       1.0  0.75582  0.25210  0.50316  1.0000 -0.6021462415
N   N87       1.0  0.50316  0.48892  0.75582  1.0000 -0.6021462415
N   N88       1.0  0.48892  0.50316  0.25210  1.0000 -0.6021462415
N   N89       1.0  0.75582  0.48892  0.25210  1.0000 -0.6021462415
N   N90       1.0  0.25210  0.50316  0.75582  1.0000 -0.6021462415
N   N91       1.0  0.48892  0.75582  0.50316  1.0000 -0.6021462415
N   N92       1.0  0.50316  0.25210  0.48892  1.0000 -0.6021462415
N   N93       1.0  0.48892  0.25210  0.75582  1.0000 -0.6021462415
N   N94       1.0  0.50316  0.75582  0.25210  1.0000 -0.6021462415
N   N95       1.0  0.75582  0.50316  0.48892  1.0000 -0.6021462415
N   N96       1.0  0.25210  0.48892  0.50316  1.0000 -0.6021462415
N   N97       1.0  0.38689  0.76015  0.85059  1.0000 -0.2326158336
N   N98       1.0  0.76015  0.38689  0.00237  1.0000 -0.2326158336
N   N99       1.0  0.85059  0.00237  0.38689  1.0000 -0.2326158336
N   N100      1.0  0.00237  0.85059  0.76015  1.0000 -0.2326158336
N   N101      1.0  0.85059  0.38689  0.76015  1.0000 -0.2326158336
N   N102      1.0  0.00237  0.76015  0.38689  1.0000 -0.2326158336
N   N103      1.0  0.38689  0.85059  0.00237  1.0000 -0.2326158336
N   N104      1.0  0.76015  0.00237  0.85059  1.0000 -0.2326158336
N   N105      1.0  0.76015  0.85059  0.38689  1.0000 -0.2326158336
N   N106      1.0  0.38689  0.00237  0.76015  1.0000 -0.2326158336
N   N107      1.0  0.00237  0.38689  0.85059  1.0000 -0.2326158336
N   N108      1.0  0.85059  0.76015  0.00237  1.0000 -0.2326158336
N   N109      1.0  0.26015  0.88689  0.35059  1.0000 -0.2326158336
N   N110      1.0  0.88689  0.26015  0.50237  1.0000 -0.2326158336
N   N111      1.0  0.50237  0.35059  0.88689  1.0000 -0.2326158336
N   N112      1.0  0.35059  0.50237  0.26015  1.0000 -0.2326158336
N   N113      1.0  0.88689  0.35059  0.26015  1.0000 -0.2326158336
N   N114      1.0  0.26015  0.50237  0.88689  1.0000 -0.2326158336
N   N115      1.0  0.35059  0.88689  0.50237  1.0000 -0.2326158336
N   N116      1.0  0.50237  0.26015  0.35059  1.0000 -0.2326158336
N   N117      1.0  0.35059  0.26015  0.88689  1.0000 -0.2326158336
N   N118      1.0  0.50237  0.88689  0.26015  1.0000 -0.2326158336
N   N119      1.0  0.88689  0.50237  0.35059  1.0000 -0.2326158336
N   N120      1.0  0.26015  0.35059  0.50237  1.0000 -0.2326158336
N   N121      1.0  0.37166  0.72056  0.84262  1.0000 -0.289787378
N   N122      1.0  0.72056  0.37166  0.06516  1.0000 -0.289787378
N   N123      1.0  0.84262  0.06516  0.37166  1.0000 -0.289787378
N   N124      1.0  0.06516  0.84262  0.72056  1.0000 -0.289787378
N   N125      1.0  0.84262  0.37166  0.72056  1.0000 -0.289787378
N   N126      1.0  0.06516  0.72056  0.37166  1.0000 -0.289787378
N   N127      1.0  0.37166  0.84262  0.06516  1.0000 -0.289787378
N   N128      1.0  0.72056  0.06516  0.84262  1.0000 -0.289787378
N   N129      1.0  0.72056  0.84262  0.37166  1.0000 -0.289787378
N   N130      1.0  0.37166  0.06516  0.72056  1.0000 -0.289787378
N   N131      1.0  0.06516  0.37166  0.84262  1.0000 -0.289787378
N   N132      1.0  0.84262  0.72056  0.06516  1.0000 -0.289787378
N   N133      1.0  0.22056  0.87166  0.34262  1.0000 -0.289787378
N   N134      1.0  0.87166  0.22056  0.56516  1.0000 -0.289787378
N   N135      1.0  0.56516  0.34262  0.87166  1.0000 -0.289787378
N   N136      1.0  0.34262  0.56516  0.22056  1.0000 -0.289787378
N   N137      1.0  0.87166  0.34262  0.22056  1.0000 -0.289787378
N   N138      1.0  0.22056  0.56516  0.87166  1.0000 -0.289787378
N   N139      1.0  0.34262  0.87166  0.56516  1.0000 -0.289787378
N   N140      1.0  0.56516  0.22056  0.34262  1.0000 -0.289787378
N   N141      1.0  0.34262  0.22056  0.87166  1.0000 -0.289787378
N   N142      1.0  0.56516  0.87166  0.22056  1.0000 -0.289787378
N   N143      1.0  0.87166  0.56516  0.34262  1.0000 -0.289787378
N   N144      1.0  0.22056  0.34262  0.56516  1.0000 -0.289787378
N   N145      1.0  0.42831  0.66231  0.90613  1.0000 -0.3289157621
N   N146      1.0  0.66231  0.42831  0.00325  1.0000 -0.3245173584
N   N147      1.0  0.90613  0.00325  0.42831  1.0000 -0.3289157621
N   N148      1.0  0.00325  0.90613  0.66231  1.0000 -0.3289157621
N   N149      1.0  0.90613  0.42831  0.66231  1.0000 -0.3289157621
N   N150      1.0  0.00325  0.66231  0.42831  1.0000 -0.3245173584
N   N151      1.0  0.42831  0.90613  0.00325  1.0000 -0.3245173584
N   N152      1.0  0.66231  0.00325  0.90613  1.0000 -0.3289157621
N   N153      1.0  0.66231  0.90613  0.42831  1.0000 -0.3245173584
N   N154      1.0  0.42831  0.00325  0.66231  1.0000 -0.3245173584
N   N155      1.0  0.00325  0.42831  0.90613  1.0000 -0.3245173584
N   N156      1.0  0.90613  0.66231  0.00325  1.0000 -0.3245173584
N   N157      1.0  0.16231  0.92831  0.40613  1.0000 -0.3289157621
N   N158      1.0  0.92831  0.16231  0.50325  1.0000 -0.3289157621
N   N159      1.0  0.50325  0.40613  0.92831  1.0000 -0.3289157621
N   N160      1.0  0.40613  0.50325  0.16231  1.0000 -0.3289157621
N   N161      1.0  0.92831  0.40613  0.16231  1.0000 -0.3245173584
N   N162      1.0  0.16231  0.50325  0.92831  1.0000 -0.3245173584
N   N163      1.0  0.40613  0.92831  0.50325  1.0000 -0.3289157621
N   N164      1.0  0.50325  0.16231  0.40613  1.0000 -0.3289157621
N   N165      1.0  0.40613  0.16231  0.92831  1.0000 -0.3289157621
N   N166      1.0  0.50325  0.92831  0.16231  1.0000 -0.3289157621
N   N167      1.0  0.92831  0.50325  0.40613  1.0000 -0.3289157621
N   N168      1.0  0.16231  0.40613  0.50325  1.0000 -0.3245173584
N   N169      1.0  0.39630  0.60770  0.88150  1.0000 -0.6370991404
N   N170      1.0  0.60770  0.39630  0.11450  1.0000 -0.6370991404
N   N171      1.0  0.88150  0.11450  0.39630  1.0000 -0.6370991404
N   N172      1.0  0.11450  0.88150  0.60770  1.0000 -0.6370991404
N   N173      1.0  0.88150  0.39630  0.60770  1.0000 -0.6370991404
N   N174      1.0  0.11450  0.60770  0.39630  1.0000 -0.6370991404
N   N175      1.0  0.39630  0.88150  0.11450  1.0000 -0.6370991404
N   N176      1.0  0.60770  0.11450  0.88150  1.0000 -0.6370991404
N   N177      1.0  0.60770  0.88150  0.39630  1.0000 -0.6370991404
N   N178      1.0  0.39630  0.11450  0.60770  1.0000 -0.6370991404
N   N179      1.0  0.11450  0.39630  0.88150  1.0000 -0.6370991404
N   N180      1.0  0.88150  0.60770  0.11450  1.0000 -0.6370991404
N   N181      1.0  0.10770  0.89630  0.38150  1.0000 -0.6370991404
N   N182      1.0  0.89630  0.10770  0.61450  1.0000 -0.6370991404
N   N183      1.0  0.61450  0.38150  0.89630  1.0000 -0.6370991404
N   N184      1.0  0.38150  0.61450  0.10770  1.0000 -0.6370991404
N   N185      1.0  0.89630  0.38150  0.10770  1.0000 -0.6370991404
N   N186      1.0  0.10770  0.61450  0.89630  1.0000 -0.6370991404
N   N187      1.0  0.38150  0.89630  0.61450  1.0000 -0.6370991404
N   N188      1.0  0.61450  0.10770  0.38150  1.0000 -0.6370991404
N   N189      1.0  0.38150  0.10770  0.89630  1.0000 -0.6370991404
N   N190      1.0  0.61450  0.89630  0.10770  1.0000 -0.6370991404
N   N191      1.0  0.89630  0.61450  0.38150  1.0000 -0.6370991404
N   N192      1.0  0.10770  0.38150  0.61450  1.0000 -0.6370991404
Cl  Cl1       1.0  0.29886  0.90038  0.90038  1.0000 -0.5562276765
Cl  Cl2       1.0  0.90038  0.29886  0.90038  1.0000 -0.5528211008
Cl  Cl3       1.0  0.90038  0.90038  0.29886  1.0000 -0.5562276765
Cl  Cl4       1.0  0.90038  0.90038  0.90038  1.0000 -0.5562276765
Cl  Cl5       1.0  0.40038  0.79886  0.40038  1.0000 -0.5562276765
Cl  Cl6       1.0  0.79886  0.40038  0.40038  1.0000 -0.5562276765
Cl  Cl7       1.0  0.40038  0.40038  0.79886  1.0000 -0.5562276765
Cl  Cl8       1.0  0.40038  0.40038  0.40038  1.0000 -0.5562276765
O   O1        1.0  0.97691  0.97691  0.97691  1.0000 -0.5046342026
O   O2        1.0  0.97691  0.97691  0.06927  1.0000 -0.5046342026
O   O3        1.0  0.06927  0.97691  0.97691  1.0000 -0.5064435612
O   O4        1.0  0.97691  0.06927  0.97691  1.0000 -0.6021462415
O   O5        1.0  0.47691  0.47691  0.47691  1.0000 -0.6803218285
O   O6        1.0  0.47691  0.47691  0.56927  1.0000 -0.6803218285
O   O7        1.0  0.47691  0.56927  0.47691  1.0000 -0.6803218285
O   O8        1.0  0.56927  0.47691  0.47691  1.0000 -0.6803218285
O   O9        1.0  0.49782  0.45730  0.06512  1.0000 -0.6934323156
O   O10       1.0  0.45730  0.49782  0.97976  1.0000 -0.6934323156
O   O11       1.0  0.47976  0.56512  0.99782  1.0000 -0.6934323156
O   O12       1.0  0.56512  0.47976  0.95730  1.0000 -0.6934323156
O   O13       1.0  0.06512  0.97976  0.49782  1.0000 -0.6952399622
O   O14       1.0  0.97976  0.06512  0.45730  1.0000 -0.6934323156
O   O15       1.0  0.95730  0.99782  0.56512  1.0000 -0.6934323156
O   O16       1.0  0.99782  0.95730  0.47976  1.0000 -0.6934323156
O   O17       1.0  0.45730  0.06512  0.49782  1.0000 -0.6934323156
O   O18       1.0  0.49782  0.97976  0.45730  1.0000 -0.6934323156
O   O19       1.0  0.56512  0.99782  0.47976  1.0000 -0.6934323156
O   O20       1.0  0.47976  0.95730  0.56512  1.0000 -0.6934323156
O   O21       1.0  0.97976  0.49782  0.06512  1.0000 -0.6952399622
O   O22       1.0  0.06512  0.45730  0.97976  1.0000 -0.6952399622
O   O23       1.0  0.99782  0.56512  0.95730  1.0000 -0.6934323156
O   O24       1.0  0.95730  0.47976  0.99782  1.0000 -0.6934323156
O   O25       1.0  0.06512  0.49782  0.45730  1.0000 -0.6952399622
O   O26       1.0  0.97976  0.45730  0.49782  1.0000 -0.6934323156
O   O27       1.0  0.99782  0.47976  0.56512  1.0000 -0.6934323156
O   O28       1.0  0.95730  0.56512  0.47976  1.0000 -0.6934323156
O   O29       1.0  0.49782  0.06512  0.97976  1.0000 -0.6952399622
O   O30       1.0  0.45730  0.97976  0.06512  1.0000 -0.6952399622
O   O31       1.0  0.56512  0.95730  0.99782  1.0000 -0.6934323156
O   O32       1.0  0.47976  0.99782  0.95730  1.0000 -0.6934323156
