# DDEC6 charges by PACMAN v1.1 (https://github.com/mtap-research/PACMAN-charge/)
data_2010[Ag][nan]3[ION]1
_chemical_formula_sum              "Ag8 B8 H384 C360 N36 O36"
_cell_length_a       22.3511
_cell_length_b       22.3511
_cell_length_c       25.3776
_cell_angle_alpha    90
_cell_angle_beta     90
_cell_angle_gamma    90

_symmetry_space_group_name_H-M    "P 1"
_symmetry_Int_Tables_number       1

loop_
  _symmetry_equiv_pos_as_xyz
  'x, y, z'

loop_
  _atom_site_type_symbol
  _atom_site_label
  _atom_site_symmetry_multiplicity
  _atom_site_fract_x
  _atom_site_fract_y
  _atom_site_fract_z
  _atom_site_occupancy
  _atom_site_charge
Ag  Ag1       1.0  0.74198  0.36660  0.33159  1.0000 0.2559689794
Ag  Ag2       1.0  0.25802  0.63340  0.83159  1.0000 0.2559689794
Ag  Ag3       1.0  0.63340  0.25802  0.16841  1.0000 0.2559689794
Ag  Ag4       1.0  0.36660  0.74198  0.66841  1.0000 0.2559689794
Ag  Ag5       1.0  0.86660  0.75802  0.08159  1.0000 0.2559689794
Ag  Ag6       1.0  0.13340  0.24198  0.58159  1.0000 0.2559689794
Ag  Ag7       1.0  0.75802  0.86660  0.91841  1.0000 0.2559689794
Ag  Ag8       1.0  0.24198  0.13340  0.41841  1.0000 0.2559689794
B   B1        1.0  0.43220  0.22578  0.64245  1.0000 0.4078241389
B   B2        1.0  0.56780  0.77422  0.14245  1.0000 0.4078241389
B   B3        1.0  0.77422  0.56780  0.85755  1.0000 0.4078241389
B   B4        1.0  0.22578  0.43220  0.35755  1.0000 0.4078241389
B   B5        1.0  0.72578  0.06780  0.39245  1.0000 0.4078241389
B   B6        1.0  0.27422  0.93220  0.89245  1.0000 0.4078241389
B   B7        1.0  0.06780  0.72578  0.60755  1.0000 0.4078241389
B   B8        1.0  0.93220  0.27422  0.10755  1.0000 0.4078241389
H   H1        1.0  0.63990  0.27100  0.35190  1.0000 0.1090603531
H   H2        1.0  0.36010  0.72900  0.85190  1.0000 0.1090603531
H   H3        1.0  0.72900  0.36010  0.14810  1.0000 0.1090603531
H   H4        1.0  0.27100  0.63990  0.64810  1.0000 0.1090603531
H   H5        1.0  0.57520  0.23570  0.41430  1.0000 0.139801156
H   H6        1.0  0.42480  0.76430  0.91430  1.0000 0.139801156
H   H7        1.0  0.76430  0.42480  0.08570  1.0000 0.139801156
H   H8        1.0  0.23570  0.57520  0.58570  1.0000 0.139801156
H   H9        1.0  0.63070  0.36590  0.50960  1.0000 0.1504351771
H   H10       1.0  0.36930  0.63410  0.00960  1.0000 0.1504351771
H   H11       1.0  0.63410  0.36930  0.99040  1.0000 0.1504351771
H   H12       1.0  0.36590  0.63070  0.49040  1.0000 0.1504351771
H   H13       1.0  0.69240  0.39800  0.44520  1.0000 0.1090603531
H   H14       1.0  0.30760  0.60200  0.94520  1.0000 0.1090603531
H   H15       1.0  0.60200  0.30760  0.05480  1.0000 0.1090603531
H   H16       1.0  0.39800  0.69240  0.55480  1.0000 0.1090603531
H   H17       1.0  0.43540  0.35750  0.47790  1.0000 0.139801156
H   H18       1.0  0.56460  0.64250  0.97790  1.0000 0.139801156
H   H19       1.0  0.64250  0.56460  0.02210  1.0000 0.139801156
H   H20       1.0  0.35750  0.43540  0.52210  1.0000 0.139801156
H   H21       1.0  0.47720  0.32410  0.43790  1.0000 0.1210903668
H   H22       1.0  0.52280  0.67590  0.93790  1.0000 0.1210903668
H   H23       1.0  0.67590  0.52280  0.06210  1.0000 0.1210903668
H   H24       1.0  0.32410  0.47720  0.56210  1.0000 0.1210903668
H   H25       1.0  0.50200  0.37800  0.47090  1.0000 0.1504351771
H   H26       1.0  0.49800  0.62200  0.97090  1.0000 0.1504351771
H   H27       1.0  0.62200  0.49800  0.02910  1.0000 0.1504351771
H   H28       1.0  0.37800  0.50200  0.52910  1.0000 0.1504351771
H   H29       1.0  0.39150  0.34150  0.53070  1.0000 0.1307636469
H   H30       1.0  0.60850  0.65850  0.03070  1.0000 0.1307636469
H   H31       1.0  0.65850  0.60850  0.96930  1.0000 0.1307636469
H   H32       1.0  0.34150  0.39150  0.46930  1.0000 0.1307636469
H   H33       1.0  0.39120  0.33500  0.59220  1.0000 0.1307636469
H   H34       1.0  0.60880  0.66500  0.09220  1.0000 0.1307636469
H   H35       1.0  0.66500  0.60880  0.90780  1.0000 0.1307636469
H   H36       1.0  0.33500  0.39120  0.40780  1.0000 0.1307636469
H   H37       1.0  0.36590  0.28340  0.55680  1.0000 0.1307636469
H   H38       1.0  0.63410  0.71660  0.05680  1.0000 0.1307636469
H   H39       1.0  0.71660  0.63410  0.94320  1.0000 0.1307636469
H   H40       1.0  0.28340  0.36590  0.44320  1.0000 0.1307636469
H   H41       1.0  0.59500  0.15830  0.61970  1.0000 0.1210903668
H   H42       1.0  0.40500  0.84170  0.11970  1.0000 0.1210903668
H   H43       1.0  0.84170  0.40500  0.88030  1.0000 0.1210903668
H   H44       1.0  0.15830  0.59500  0.38030  1.0000 0.1210903668
H   H45       1.0  0.52910  0.13750  0.63030  1.0000 0.1307636469
H   H46       1.0  0.47090  0.86250  0.13030  1.0000 0.1307636469
H   H47       1.0  0.86250  0.47090  0.86970  1.0000 0.1307636469
H   H48       1.0  0.13750  0.52910  0.36970  1.0000 0.1307636469
H   H49       1.0  0.55720  0.18920  0.66400  1.0000 0.1307636469
H   H50       1.0  0.44280  0.81080  0.16400  1.0000 0.1307636469
H   H51       1.0  0.81080  0.44280  0.83600  1.0000 0.1307636469
H   H52       1.0  0.18920  0.55720  0.33600  1.0000 0.1307636469
H   H53       1.0  0.65410  0.22630  0.51540  1.0000 0.1210903668
H   H54       1.0  0.34590  0.77370  0.01540  1.0000 0.1210903668
H   H55       1.0  0.77370  0.34590  0.98460  1.0000 0.1210903668
H   H56       1.0  0.22630  0.65410  0.48460  1.0000 0.1210903668
H   H57       1.0  0.63240  0.16690  0.54200  1.0000 0.1307636469
H   H58       1.0  0.36760  0.83310  0.04200  1.0000 0.1307636469
H   H59       1.0  0.83310  0.36760  0.95800  1.0000 0.1307636469
H   H60       1.0  0.16690  0.63240  0.45800  1.0000 0.1307636469
H   H61       1.0  0.65610  0.21970  0.57690  1.0000 0.139801156
H   H62       1.0  0.34390  0.78030  0.07690  1.0000 0.139801156
H   H63       1.0  0.78030  0.34390  0.92310  1.0000 0.139801156
H   H64       1.0  0.21970  0.65610  0.42310  1.0000 0.139801156
H   H65       1.0  0.32580  0.58200  0.72500  1.0000 0.1090603531
H   H66       1.0  0.67420  0.41800  0.22500  1.0000 0.1090603531
H   H67       1.0  0.41800  0.67420  0.77500  1.0000 0.1090603531
H   H68       1.0  0.58200  0.32580  0.27500  1.0000 0.1090603531
H   H69       1.0  0.35870  0.49480  0.68680  1.0000 0.1504351771
H   H70       1.0  0.64130  0.50520  0.18680  1.0000 0.1504351771
H   H71       1.0  0.50520  0.64130  0.81320  1.0000 0.1504351771
H   H72       1.0  0.49480  0.35870  0.31320  1.0000 0.1504351771
H   H73       1.0  0.30970  0.40710  0.81620  1.0000 0.1504351771
H   H74       1.0  0.69030  0.59290  0.31620  1.0000 0.1504351771
H   H75       1.0  0.59290  0.69030  0.68380  1.0000 0.1504351771
H   H76       1.0  0.40710  0.30970  0.18380  1.0000 0.1504351771
H   H77       1.0  0.27420  0.49610  0.85070  1.0000 0.0969695916
H   H78       1.0  0.72580  0.50390  0.35070  1.0000 0.0969695916
H   H79       1.0  0.50390  0.72580  0.64930  1.0000 0.0969695916
H   H80       1.0  0.49610  0.27420  0.14930  1.0000 0.0969695916
H   H81       1.0  0.50910  0.40850  0.74030  1.0000 0.1307636469
H   H82       1.0  0.49090  0.59150  0.24030  1.0000 0.1307636469
H   H83       1.0  0.59150  0.49090  0.75970  1.0000 0.1307636469
H   H84       1.0  0.40850  0.50910  0.25970  1.0000 0.1307636469
H   H85       1.0  0.46090  0.42540  0.78260  1.0000 0.139801156
H   H86       1.0  0.53910  0.57460  0.28260  1.0000 0.139801156
H   H87       1.0  0.57460  0.53910  0.71740  1.0000 0.139801156
H   H88       1.0  0.42540  0.46090  0.21740  1.0000 0.139801156
H   H89       1.0  0.46220  0.45890  0.72840  1.0000 0.1307636469
H   H90       1.0  0.53780  0.54110  0.22840  1.0000 0.1307636469
H   H91       1.0  0.54110  0.53780  0.77160  1.0000 0.1307636469
H   H92       1.0  0.45890  0.46220  0.27160  1.0000 0.1307636469
H   H93       1.0  0.53560  0.34410  0.71190  1.0000 0.1307636469
H   H94       1.0  0.46440  0.65590  0.21190  1.0000 0.1307636469
H   H95       1.0  0.65590  0.46440  0.78810  1.0000 0.1307636469
H   H96       1.0  0.34410  0.53560  0.28810  1.0000 0.1307636469
H   H97       1.0  0.52710  0.30510  0.66100  1.0000 0.1307636469
H   H98       1.0  0.47290  0.69490  0.16100  1.0000 0.1307636469
H   H99       1.0  0.69490  0.47290  0.83900  1.0000 0.1307636469
H   H100      1.0  0.30510  0.52710  0.33900  1.0000 0.1307636469
H   H101      1.0  0.52360  0.27520  0.71680  1.0000 0.1307636469
H   H102      1.0  0.47640  0.72480  0.21680  1.0000 0.1307636469
H   H103      1.0  0.72480  0.47640  0.78320  1.0000 0.1307636469
H   H104      1.0  0.27520  0.52360  0.28320  1.0000 0.1307636469
H   H105      1.0  0.26130  0.25500  0.67560  1.0000 0.1210903668
H   H106      1.0  0.73870  0.74500  0.17560  1.0000 0.1210903668
H   H107      1.0  0.74500  0.73870  0.82440  1.0000 0.1210903668
H   H108      1.0  0.25500  0.26130  0.32440  1.0000 0.1210903668
H   H109      1.0  0.30870  0.20420  0.68430  1.0000 0.1307636469
H   H110      1.0  0.69130  0.79580  0.18430  1.0000 0.1307636469
H   H111      1.0  0.79580  0.69130  0.81570  1.0000 0.1307636469
H   H112      1.0  0.20420  0.30870  0.31570  1.0000 0.1307636469
H   H113      1.0  0.30480  0.23690  0.62970  1.0000 0.139801156
H   H114      1.0  0.69520  0.76310  0.12970  1.0000 0.139801156
H   H115      1.0  0.76310  0.69520  0.87030  1.0000 0.139801156
H   H116      1.0  0.23690  0.30480  0.37030  1.0000 0.139801156
H   H117      1.0  0.24920  0.38960  0.72650  1.0000 0.1210903668
H   H118      1.0  0.75080  0.61040  0.22650  1.0000 0.1210903668
H   H119      1.0  0.61040  0.75080  0.77350  1.0000 0.1210903668
H   H120      1.0  0.38960  0.24920  0.27350  1.0000 0.1210903668
H   H121      1.0  0.23910  0.32050  0.73220  1.0000 0.1307636469
H   H122      1.0  0.76090  0.67950  0.23220  1.0000 0.1307636469
H   H123      1.0  0.67950  0.76090  0.76780  1.0000 0.1307636469
H   H124      1.0  0.32050  0.23910  0.26780  1.0000 0.1307636469
H   H125      1.0  0.24010  0.35000  0.67620  1.0000 0.1307636469
H   H126      1.0  0.75990  0.65000  0.17620  1.0000 0.1307636469
H   H127      1.0  0.65000  0.75990  0.82380  1.0000 0.1307636469
H   H128      1.0  0.35000  0.24010  0.32380  1.0000 0.1307636469
H   H129      1.0  0.29110  0.86340  0.68010  1.0000 0.1307636469
H   H130      1.0  0.70890  0.13660  0.18010  1.0000 0.1307636469
H   H131      1.0  0.13660  0.70890  0.81990  1.0000 0.1307636469
H   H132      1.0  0.86340  0.29110  0.31990  1.0000 0.1307636469
H   H133      1.0  0.30040  0.96400  0.68080  1.0000 0.1504351771
H   H134      1.0  0.69960  0.03600  0.18080  1.0000 0.1504351771
H   H135      1.0  0.03600  0.69960  0.81920  1.0000 0.1504351771
H   H136      1.0  0.96400  0.30040  0.31920  1.0000 0.1504351771
H   H137      1.0  0.47080  0.94400  0.63720  1.0000 0.1504351771
H   H138      1.0  0.52920  0.05600  0.13720  1.0000 0.1504351771
H   H139      1.0  0.05600  0.52920  0.86280  1.0000 0.1504351771
H   H140      1.0  0.94400  0.47080  0.36280  1.0000 0.1504351771
H   H141      1.0  0.45710  0.84380  0.64060  1.0000 0.1090603531
H   H142      1.0  0.54290  0.15620  0.14060  1.0000 0.1090603531
H   H143      1.0  0.15620  0.54290  0.85940  1.0000 0.1090603531
H   H144      1.0  0.84380  0.45710  0.35940  1.0000 0.1090603531
H   H145      1.0  0.42030  0.98960  0.74700  1.0000 0.1307636469
H   H146      1.0  0.57970  0.01040  0.24700  1.0000 0.1307636469
H   H147      1.0  0.01040  0.57970  0.75300  1.0000 0.1307636469
H   H148      1.0  0.98960  0.42030  0.25300  1.0000 0.1307636469
H   H149      1.0  0.40560  0.04770  0.77910  1.0000 0.139801156
H   H150      1.0  0.59440  0.95230  0.27910  1.0000 0.139801156
H   H151      1.0  0.95230  0.59440  0.72090  1.0000 0.139801156
H   H152      1.0  0.04770  0.40560  0.22090  1.0000 0.139801156
H   H153      1.0  0.47120  0.03560  0.76000  1.0000 0.139801156
H   H154      1.0  0.52880  0.96440  0.26000  1.0000 0.139801156
H   H155      1.0  0.96440  0.52880  0.74000  1.0000 0.139801156
H   H156      1.0  0.03560  0.47120  0.24000  1.0000 0.139801156
H   H157      1.0  0.45760  0.19990  0.73500  1.0000 0.1307636469
H   H158      1.0  0.54240  0.80010  0.23500  1.0000 0.1307636469
H   H159      1.0  0.80010  0.54240  0.76500  1.0000 0.1307636469
H   H160      1.0  0.19990  0.45760  0.26500  1.0000 0.1307636469
H   H161      1.0  0.49160  0.14130  0.75090  1.0000 0.1307636469
H   H162      1.0  0.50840  0.85870  0.25090  1.0000 0.1307636469
H   H163      1.0  0.85870  0.50840  0.74910  1.0000 0.1307636469
H   H164      1.0  0.14130  0.49160  0.24910  1.0000 0.1307636469
H   H165      1.0  0.42720  0.15350  0.77280  1.0000 0.1307636469
H   H166      1.0  0.57280  0.84650  0.27280  1.0000 0.1307636469
H   H167      1.0  0.84650  0.57280  0.72720  1.0000 0.1307636469
H   H168      1.0  0.15350  0.42720  0.22720  1.0000 0.1307636469
H   H169      1.0  0.38150  0.19960  0.56010  1.0000 0.1210903668
H   H170      1.0  0.61850  0.80040  0.06010  1.0000 0.1210903668
H   H171      1.0  0.80040  0.61850  0.93990  1.0000 0.1210903668
H   H172      1.0  0.19960  0.38150  0.43990  1.0000 0.1210903668
H   H173      1.0  0.33030  0.15280  0.55100  1.0000 0.1307636469
H   H174      1.0  0.66970  0.84720  0.05100  1.0000 0.1307636469
H   H175      1.0  0.84720  0.66970  0.94900  1.0000 0.1307636469
H   H176      1.0  0.15280  0.33030  0.44900  1.0000 0.1307636469
H   H177      1.0  0.39410  0.14150  0.52740  1.0000 0.1307636469
H   H178      1.0  0.60590  0.85850  0.02740  1.0000 0.1307636469
H   H179      1.0  0.85850  0.60590  0.97260  1.0000 0.1307636469
H   H180      1.0  0.14150  0.39410  0.47260  1.0000 0.1307636469
H   H181      1.0  0.35130  0.98800  0.57110  1.0000 0.1307636469
H   H182      1.0  0.64870  0.01200  0.07110  1.0000 0.1307636469
H   H183      1.0  0.01200  0.64870  0.92890  1.0000 0.1307636469
H   H184      1.0  0.98800  0.35130  0.42890  1.0000 0.1307636469
H   H185      1.0  0.38120  0.03420  0.53280  1.0000 0.139801156
H   H186      1.0  0.61880  0.96580  0.03280  1.0000 0.139801156
H   H187      1.0  0.96580  0.61880  0.96720  1.0000 0.139801156
H   H188      1.0  0.03420  0.38120  0.46720  1.0000 0.139801156
H   H189      1.0  0.31630  0.04560  0.55390  1.0000 0.1307636469
H   H190      1.0  0.68370  0.95440  0.05390  1.0000 0.1307636469
H   H191      1.0  0.95440  0.68370  0.94610  1.0000 0.1307636469
H   H192      1.0  0.04560  0.31630  0.44610  1.0000 0.1307636469
H   H193      1.0  0.77100  0.86010  0.10190  1.0000 0.1090603531
H   H194      1.0  0.22900  0.13990  0.60190  1.0000 0.1090603531
H   H195      1.0  0.86010  0.77100  0.89810  1.0000 0.1090603531
H   H196      1.0  0.13990  0.22900  0.39810  1.0000 0.1090603531
H   H197      1.0  0.73570  0.92480  0.16430  1.0000 0.139801156
H   H198      1.0  0.26430  0.07520  0.66430  1.0000 0.139801156
H   H199      1.0  0.92480  0.73570  0.83570  1.0000 0.139801156
H   H200      1.0  0.07520  0.26430  0.33570  1.0000 0.139801156
H   H201      1.0  0.86590  0.86930  0.25960  1.0000 0.1504351771
H   H202      1.0  0.13410  0.13070  0.75960  1.0000 0.1504351771
H   H203      1.0  0.86930  0.86590  0.74040  1.0000 0.1504351771
H   H204      1.0  0.13070  0.13410  0.24040  1.0000 0.1504351771
H   H205      1.0  0.89800  0.80760  0.19520  1.0000 0.1090603531
H   H206      1.0  0.10200  0.19240  0.69520  1.0000 0.1090603531
H   H207      1.0  0.80760  0.89800  0.80480  1.0000 0.1090603531
H   H208      1.0  0.19240  0.10200  0.30480  1.0000 0.1090603531
H   H209      1.0  0.85750  0.06460  0.22790  1.0000 0.139801156
H   H210      1.0  0.14250  0.93540  0.72790  1.0000 0.139801156
H   H211      1.0  0.06460  0.85750  0.77210  1.0000 0.139801156
H   H212      1.0  0.93540  0.14250  0.27210  1.0000 0.139801156
H   H213      1.0  0.82410  0.02280  0.18790  1.0000 0.1210903668
H   H214      1.0  0.17590  0.97720  0.68790  1.0000 0.1210903668
H   H215      1.0  0.02280  0.82410  0.81210  1.0000 0.1210903668
H   H216      1.0  0.97720  0.17590  0.31210  1.0000 0.1210903668
H   H217      1.0  0.87800  0.99800  0.22090  1.0000 0.1504351771
H   H218      1.0  0.12200  0.00200  0.72090  1.0000 0.1504351771
H   H219      1.0  0.99800  0.87800  0.77910  1.0000 0.1504351771
H   H220      1.0  0.00200  0.12200  0.27910  1.0000 0.1504351771
H   H221      1.0  0.84150  0.10850  0.28070  1.0000 0.1307636469
H   H222      1.0  0.15850  0.89150  0.78070  1.0000 0.1307636469
H   H223      1.0  0.10850  0.84150  0.71930  1.0000 0.1307636469
H   H224      1.0  0.89150  0.15850  0.21930  1.0000 0.1307636469
H   H225      1.0  0.83500  0.10880  0.34220  1.0000 0.1307636469
H   H226      1.0  0.16500  0.89120  0.84220  1.0000 0.1307636469
H   H227      1.0  0.10880  0.83500  0.65780  1.0000 0.1307636469
H   H228      1.0  0.89120  0.16500  0.15780  1.0000 0.1307636469
H   H229      1.0  0.78340  0.13410  0.30680  1.0000 0.1307636469
H   H230      1.0  0.21660  0.86590  0.80680  1.0000 0.1307636469
H   H231      1.0  0.13410  0.78340  0.69320  1.0000 0.1307636469
H   H232      1.0  0.86590  0.21660  0.19320  1.0000 0.1307636469
H   H233      1.0  0.65830  0.90500  0.36970  1.0000 0.1210903668
H   H234      1.0  0.34170  0.09500  0.86970  1.0000 0.1210903668
H   H235      1.0  0.90500  0.65830  0.63030  1.0000 0.1210903668
H   H236      1.0  0.09500  0.34170  0.13030  1.0000 0.1210903668
H   H237      1.0  0.63750  0.97090  0.38030  1.0000 0.1307636469
H   H238      1.0  0.36250  0.02910  0.88030  1.0000 0.1307636469
H   H239      1.0  0.97090  0.63750  0.61970  1.0000 0.1307636469
H   H240      1.0  0.02910  0.36250  0.11970  1.0000 0.1307636469
H   H241      1.0  0.68920  0.94280  0.41400  1.0000 0.1307636469
H   H242      1.0  0.31080  0.05720  0.91400  1.0000 0.1307636469
H   H243      1.0  0.94280  0.68920  0.58600  1.0000 0.1307636469
H   H244      1.0  0.05720  0.31080  0.08600  1.0000 0.1307636469
H   H245      1.0  0.72630  0.84590  0.26540  1.0000 0.1210903668
H   H246      1.0  0.27370  0.15410  0.76540  1.0000 0.1210903668
H   H247      1.0  0.84590  0.72630  0.73460  1.0000 0.1210903668
H   H248      1.0  0.15410  0.27370  0.23460  1.0000 0.1210903668
H   H249      1.0  0.66690  0.86760  0.29200  1.0000 0.1307636469
H   H250      1.0  0.33310  0.13240  0.79200  1.0000 0.1307636469
H   H251      1.0  0.86760  0.66690  0.70800  1.0000 0.1307636469
H   H252      1.0  0.13240  0.33310  0.20800  1.0000 0.1307636469
H   H253      1.0  0.71970  0.84390  0.32690  1.0000 0.139801156
H   H254      1.0  0.28030  0.15610  0.82690  1.0000 0.139801156
H   H255      1.0  0.84390  0.71970  0.67310  1.0000 0.139801156
H   H256      1.0  0.15610  0.28030  0.17310  1.0000 0.139801156
H   H257      1.0  0.08200  0.17420  0.47500  1.0000 0.1090603531
H   H258      1.0  0.91800  0.82580  0.97500  1.0000 0.1090603531
H   H259      1.0  0.17420  0.08200  0.52500  1.0000 0.1090603531
H   H260      1.0  0.82580  0.91800  0.02500  1.0000 0.1090603531
H   H261      1.0  0.99480  0.14130  0.43680  1.0000 0.1504351771
H   H262      1.0  0.00520  0.85870  0.93680  1.0000 0.1504351771
H   H263      1.0  0.14130  0.99480  0.56320  1.0000 0.1504351771
H   H264      1.0  0.85870  0.00520  0.06320  1.0000 0.1504351771
H   H265      1.0  0.90710  0.19030  0.56620  1.0000 0.1504351771
H   H266      1.0  0.09290  0.80970  0.06620  1.0000 0.1504351771
H   H267      1.0  0.19030  0.90710  0.43380  1.0000 0.1504351771
H   H268      1.0  0.80970  0.09290  0.93380  1.0000 0.1504351771
H   H269      1.0  0.99610  0.22580  0.60070  1.0000 0.0969695916
H   H270      1.0  0.00390  0.77420  0.10070  1.0000 0.0969695916
H   H271      1.0  0.22580  0.99610  0.39930  1.0000 0.0969695916
H   H272      1.0  0.77420  0.00390  0.89930  1.0000 0.0969695916
H   H273      1.0  0.90850  0.99090  0.49030  1.0000 0.1307636469
H   H274      1.0  0.09150  0.00910  0.99030  1.0000 0.1307636469
H   H275      1.0  0.99090  0.90850  0.50970  1.0000 0.1307636469
H   H276      1.0  0.00910  0.09150  0.00970  1.0000 0.1307636469
H   H277      1.0  0.92540  0.03910  0.53260  1.0000 0.139801156
H   H278      1.0  0.07460  0.96090  0.03260  1.0000 0.139801156
H   H279      1.0  0.03910  0.92540  0.46740  1.0000 0.139801156
H   H280      1.0  0.96090  0.07460  0.96740  1.0000 0.139801156
H   H281      1.0  0.95890  0.03780  0.47840  1.0000 0.1307636469
H   H282      1.0  0.04110  0.96220  0.97840  1.0000 0.1307636469
H   H283      1.0  0.03780  0.95890  0.52160  1.0000 0.1307636469
H   H284      1.0  0.96220  0.04110  0.02160  1.0000 0.1307636469
H   H285      1.0  0.84410  0.96440  0.46190  1.0000 0.1307636469
H   H286      1.0  0.15590  0.03560  0.96190  1.0000 0.1307636469
H   H287      1.0  0.96440  0.84410  0.53810  1.0000 0.1307636469
H   H288      1.0  0.03560  0.15590  0.03810  1.0000 0.1307636469
H   H289      1.0  0.80510  0.97290  0.41100  1.0000 0.1307636469
H   H290      1.0  0.19490  0.02710  0.91100  1.0000 0.1307636469
H   H291      1.0  0.97290  0.80510  0.58900  1.0000 0.1307636469
H   H292      1.0  0.02710  0.19490  0.08900  1.0000 0.1307636469
H   H293      1.0  0.77520  0.97640  0.46680  1.0000 0.1307636469
H   H294      1.0  0.22480  0.02360  0.96680  1.0000 0.1307636469
H   H295      1.0  0.97640  0.77520  0.53320  1.0000 0.1307636469
H   H296      1.0  0.02360  0.22480  0.03320  1.0000 0.1307636469
H   H297      1.0  0.75500  0.23870  0.42560  1.0000 0.1210903668
H   H298      1.0  0.24500  0.76130  0.92560  1.0000 0.1210903668
H   H299      1.0  0.23870  0.75500  0.57440  1.0000 0.1210903668
H   H300      1.0  0.76130  0.24500  0.07440  1.0000 0.1210903668
H   H301      1.0  0.70420  0.19130  0.43430  1.0000 0.1307636469
H   H302      1.0  0.29580  0.80870  0.93430  1.0000 0.1307636469
H   H303      1.0  0.19130  0.70420  0.56570  1.0000 0.1307636469
H   H304      1.0  0.80870  0.29580  0.06570  1.0000 0.1307636469
H   H305      1.0  0.73690  0.19520  0.37970  1.0000 0.139801156
H   H306      1.0  0.26310  0.80480  0.87970  1.0000 0.139801156
H   H307      1.0  0.19520  0.73690  0.62030  1.0000 0.139801156
H   H308      1.0  0.80480  0.26310  0.12030  1.0000 0.139801156
H   H309      1.0  0.88960  0.25080  0.47650  1.0000 0.1210903668
H   H310      1.0  0.11040  0.74920  0.97650  1.0000 0.1210903668
H   H311      1.0  0.25080  0.88960  0.52350  1.0000 0.1210903668
H   H312      1.0  0.74920  0.11040  0.02350  1.0000 0.1210903668
H   H313      1.0  0.82050  0.26090  0.48220  1.0000 0.1307636469
H   H314      1.0  0.17950  0.73910  0.98220  1.0000 0.1307636469
H   H315      1.0  0.26090  0.82050  0.51780  1.0000 0.1307636469
H   H316      1.0  0.73910  0.17950  0.01780  1.0000 0.1307636469
H   H317      1.0  0.85000  0.25990  0.42620  1.0000 0.1307636469
H   H318      1.0  0.15000  0.74010  0.92620  1.0000 0.1307636469
H   H319      1.0  0.25990  0.85000  0.57380  1.0000 0.1307636469
H   H320      1.0  0.74010  0.15000  0.07380  1.0000 0.1307636469
H   H321      1.0  0.36340  0.20890  0.43010  1.0000 0.1307636469
H   H322      1.0  0.63660  0.79110  0.93010  1.0000 0.1307636469
H   H323      1.0  0.20890  0.36340  0.56990  1.0000 0.1307636469
H   H324      1.0  0.79110  0.63660  0.06990  1.0000 0.1307636469
H   H325      1.0  0.46400  0.19960  0.43080  1.0000 0.1504351771
H   H326      1.0  0.53600  0.80040  0.93080  1.0000 0.1504351771
H   H327      1.0  0.19960  0.46400  0.56920  1.0000 0.1504351771
H   H328      1.0  0.80040  0.53600  0.06920  1.0000 0.1504351771
H   H329      1.0  0.44400  0.02920  0.38720  1.0000 0.1504351771
H   H330      1.0  0.55600  0.97080  0.88720  1.0000 0.1504351771
H   H331      1.0  0.02920  0.44400  0.61280  1.0000 0.1504351771
H   H332      1.0  0.97080  0.55600  0.11280  1.0000 0.1504351771
H   H333      1.0  0.34380  0.04290  0.39060  1.0000 0.1090603531
H   H334      1.0  0.65620  0.95710  0.89060  1.0000 0.1090603531
H   H335      1.0  0.04290  0.34380  0.60940  1.0000 0.1090603531
H   H336      1.0  0.95710  0.65620  0.10940  1.0000 0.1090603531
H   H337      1.0  0.48960  0.07970  0.49700  1.0000 0.1307636469
H   H338      1.0  0.51040  0.92030  0.99700  1.0000 0.1307636469
H   H339      1.0  0.07970  0.48960  0.50300  1.0000 0.1307636469
H   H340      1.0  0.92030  0.51040  0.00300  1.0000 0.1307636469
H   H341      1.0  0.54770  0.09440  0.52910  1.0000 0.139801156
H   H342      1.0  0.45230  0.90560  0.02910  1.0000 0.139801156
H   H343      1.0  0.09440  0.54770  0.47090  1.0000 0.139801156
H   H344      1.0  0.90560  0.45230  0.97090  1.0000 0.139801156
H   H345      1.0  0.53560  0.02880  0.51000  1.0000 0.139801156
H   H346      1.0  0.46440  0.97120  0.01000  1.0000 0.139801156
H   H347      1.0  0.02880  0.53560  0.49000  1.0000 0.139801156
H   H348      1.0  0.97120  0.46440  0.99000  1.0000 0.139801156
H   H349      1.0  0.69990  0.04240  0.48500  1.0000 0.1307636469
H   H350      1.0  0.30010  0.95760  0.98500  1.0000 0.1307636469
H   H351      1.0  0.04240  0.69990  0.51500  1.0000 0.1307636469
H   H352      1.0  0.95760  0.30010  0.01500  1.0000 0.1307636469
H   H353      1.0  0.64130  0.00840  0.50090  1.0000 0.1307636469
H   H354      1.0  0.35870  0.99160  0.00090  1.0000 0.1307636469
H   H355      1.0  0.00840  0.64130  0.49910  1.0000 0.1307636469
H   H356      1.0  0.99160  0.35870  0.99910  1.0000 0.1307636469
H   H357      1.0  0.65350  0.07280  0.52280  1.0000 0.1307636469
H   H358      1.0  0.34650  0.92720  0.02280  1.0000 0.1307636469
H   H359      1.0  0.07280  0.65350  0.47720  1.0000 0.1307636469
H   H360      1.0  0.92720  0.34650  0.97720  1.0000 0.1307636469
H   H361      1.0  0.69960  0.11850  0.31010  1.0000 0.1210903668
H   H362      1.0  0.30040  0.88150  0.81010  1.0000 0.1210903668
H   H363      1.0  0.11850  0.69960  0.68990  1.0000 0.1210903668
H   H364      1.0  0.88150  0.30040  0.18990  1.0000 0.1210903668
H   H365      1.0  0.65280  0.16970  0.30100  1.0000 0.1307636469
H   H366      1.0  0.34720  0.83030  0.80100  1.0000 0.1307636469
H   H367      1.0  0.16970  0.65280  0.69900  1.0000 0.1307636469
H   H368      1.0  0.83030  0.34720  0.19900  1.0000 0.1307636469
H   H369      1.0  0.64150  0.10590  0.27740  1.0000 0.1307636469
H   H370      1.0  0.35850  0.89410  0.77740  1.0000 0.1307636469
H   H371      1.0  0.10590  0.64150  0.72260  1.0000 0.1307636469
H   H372      1.0  0.89410  0.35850  0.22260  1.0000 0.1307636469
H   H373      1.0  0.48800  0.14870  0.32110  1.0000 0.1307636469
H   H374      1.0  0.51200  0.85130  0.82110  1.0000 0.1307636469
H   H375      1.0  0.14870  0.48800  0.67890  1.0000 0.1307636469
H   H376      1.0  0.85130  0.51200  0.17890  1.0000 0.1307636469
H   H377      1.0  0.53420  0.11880  0.28280  1.0000 0.139801156
H   H378      1.0  0.46580  0.88120  0.78280  1.0000 0.139801156
H   H379      1.0  0.11880  0.53420  0.71720  1.0000 0.139801156
H   H380      1.0  0.88120  0.46580  0.21720  1.0000 0.139801156
H   H381      1.0  0.54560  0.18370  0.30390  1.0000 0.1307636469
H   H382      1.0  0.45440  0.81630  0.80390  1.0000 0.1307636469
H   H383      1.0  0.18370  0.54560  0.69610  1.0000 0.1307636469
H   H384      1.0  0.81630  0.45440  0.19610  1.0000 0.1307636469
C   C1        1.0  0.63769  0.29070  0.38417  1.0000 0.0688460875
C   C2        1.0  0.36231  0.70930  0.88417  1.0000 0.0688460875
C   C3        1.0  0.70930  0.36231  0.11583  1.0000 0.0688460875
C   C4        1.0  0.29070  0.63769  0.61583  1.0000 0.0688460875
C   C5        1.0  0.59859  0.26910  0.42141  1.0000 -0.1914925326
C   C6        1.0  0.40141  0.73090  0.92141  1.0000 -0.1914925326
C   C7        1.0  0.73090  0.40141  0.07859  1.0000 -0.1914925326
C   C8        1.0  0.26910  0.59859  0.57859  1.0000 -0.1914925326
C   C9        1.0  0.59446  0.29785  0.47005  1.0000 0.1307636469
C   C10       1.0  0.40554  0.70215  0.97005  1.0000 0.1307636469
C   C11       1.0  0.70215  0.40554  0.02995  1.0000 0.1307636469
C   C12       1.0  0.29785  0.59446  0.52995  1.0000 0.1307636469
C   C13       1.0  0.63120  0.34590  0.47750  1.0000 -0.158267894
C   C14       1.0  0.36880  0.65410  0.97750  1.0000 -0.158267894
C   C15       1.0  0.65410  0.36880  0.02250  1.0000 -0.158267894
C   C16       1.0  0.34590  0.63120  0.52250  1.0000 -0.158267894
C   C17       1.0  0.66840  0.36480  0.43880  1.0000 0.0533327672
C   C18       1.0  0.33160  0.63520  0.93880  1.0000 0.0533327672
C   C19       1.0  0.63520  0.33160  0.06120  1.0000 0.0533327672
C   C20       1.0  0.36480  0.66840  0.56120  1.0000 0.0533327672
C   C21       1.0  0.55233  0.27635  0.51168  1.0000 -0.0679912355
C   C22       1.0  0.44767  0.72365  0.01168  1.0000 -0.0679912355
C   C23       1.0  0.72365  0.44767  0.98832  1.0000 -0.0679912355
C   C24       1.0  0.27635  0.55233  0.48832  1.0000 -0.0679912355
C   C25       1.0  0.57206  0.23443  0.54922  1.0000 0.0591275391
C   C26       1.0  0.42794  0.76557  0.04922  1.0000 0.0591275391
C   C27       1.0  0.76557  0.42794  0.95078  1.0000 0.0591275391
C   C28       1.0  0.23443  0.57206  0.45078  1.0000 0.0591275391
C   C29       1.0  0.53309  0.21693  0.59005  1.0000 0.0969695916
C   C30       1.0  0.46691  0.78307  0.09005  1.0000 0.0969695916
C   C31       1.0  0.78307  0.46691  0.90995  1.0000 0.0969695916
C   C32       1.0  0.21693  0.53309  0.40995  1.0000 0.0969695916
C   C33       1.0  0.47621  0.24317  0.59481  1.0000 -0.2293220639
C   C34       1.0  0.52379  0.75683  0.09481  1.0000 -0.2293220639
C   C35       1.0  0.75683  0.52379  0.90519  1.0000 -0.2293220639
C   C36       1.0  0.24317  0.47621  0.40519  1.0000 -0.2293220639
C   C37       1.0  0.45748  0.28563  0.55733  1.0000 0.1210903668
C   C38       1.0  0.54252  0.71437  0.05733  1.0000 0.1210903668
C   C39       1.0  0.71437  0.54252  0.94267  1.0000 0.1210903668
C   C40       1.0  0.28563  0.45748  0.44267  1.0000 0.1210903668
C   C41       1.0  0.49484  0.30075  0.51507  1.0000 0.0688460875
C   C42       1.0  0.50516  0.69925  0.01507  1.0000 0.0688460875
C   C43       1.0  0.69925  0.50516  0.98493  1.0000 0.0688460875
C   C44       1.0  0.30075  0.49484  0.48493  1.0000 0.0688460875
C   C45       1.0  0.47560  0.34410  0.47140  1.0000 -0.4375532653
C   C46       1.0  0.52440  0.65590  0.97140  1.0000 -0.4375532653
C   C47       1.0  0.65590  0.52440  0.02860  1.0000 -0.4375532653
C   C48       1.0  0.34410  0.47560  0.52860  1.0000 -0.4375532653
C   C49       1.0  0.39590  0.31400  0.55950  1.0000 -0.4686765582
C   C50       1.0  0.60410  0.68600  0.05950  1.0000 -0.4686765582
C   C51       1.0  0.68600  0.60410  0.94050  1.0000 -0.4686765582
C   C52       1.0  0.31400  0.39590  0.44050  1.0000 -0.4686765582
C   C53       1.0  0.55570  0.17130  0.62960  1.0000 -0.4511500484
C   C54       1.0  0.44430  0.82870  0.12960  1.0000 -0.4511500484
C   C55       1.0  0.82870  0.44430  0.87040  1.0000 -0.4511500484
C   C56       1.0  0.17130  0.55570  0.37040  1.0000 -0.4511500484
C   C57       1.0  0.63430  0.20960  0.54550  1.0000 -0.4375532653
C   C58       1.0  0.36570  0.79040  0.04550  1.0000 -0.4375532653
C   C59       1.0  0.79040  0.36570  0.95450  1.0000 -0.4375532653
C   C60       1.0  0.20960  0.63430  0.45450  1.0000 -0.4375532653
C   C61       1.0  0.32190  0.54630  0.74350  1.0000 0.0591275391
C   C62       1.0  0.67810  0.45370  0.24350  1.0000 0.0591275391
C   C63       1.0  0.45370  0.67810  0.75650  1.0000 0.0591275391
C   C64       1.0  0.54630  0.32190  0.25650  1.0000 0.0591275391
C   C65       1.0  0.34300  0.49410  0.72070  1.0000 -0.1781114587
C   C66       1.0  0.65700  0.50590  0.22070  1.0000 -0.1781114587
C   C67       1.0  0.50590  0.65700  0.77930  1.0000 -0.1781114587
C   C68       1.0  0.49410  0.34300  0.27930  1.0000 -0.1781114587
C   C69       1.0  0.34070  0.44152  0.74829  1.0000 0.1307636469
C   C70       1.0  0.65930  0.55848  0.24829  1.0000 0.1307636469
C   C71       1.0  0.55848  0.65930  0.75171  1.0000 0.1307636469
C   C72       1.0  0.44152  0.34070  0.25171  1.0000 0.1307636469
C   C73       1.0  0.31360  0.44240  0.79700  1.0000 -0.1716893178
C   C74       1.0  0.68640  0.55760  0.29700  1.0000 -0.1716893178
C   C75       1.0  0.55760  0.68640  0.70300  1.0000 -0.1716893178
C   C76       1.0  0.44240  0.31360  0.20300  1.0000 -0.1716893178
C   C77       1.0  0.29190  0.49620  0.81760  1.0000 0.0688460875
C   C78       1.0  0.70810  0.50380  0.31760  1.0000 0.0688460875
C   C79       1.0  0.50380  0.70810  0.68240  1.0000 0.0688460875
C   C80       1.0  0.49620  0.29190  0.18240  1.0000 0.0688460875
C   C81       1.0  0.36400  0.38369  0.72548  1.0000 -0.0546491865
C   C82       1.0  0.63600  0.61631  0.22548  1.0000 -0.0546491865
C   C83       1.0  0.61631  0.63600  0.77452  1.0000 -0.0546491865
C   C84       1.0  0.38369  0.36400  0.27452  1.0000 -0.0546491865
C   C85       1.0  0.32418  0.34103  0.70777  1.0000 0.0591275391
C   C86       1.0  0.67582  0.65897  0.20777  1.0000 0.0591275391
C   C87       1.0  0.65897  0.67582  0.79223  1.0000 0.0591275391
C   C88       1.0  0.34103  0.32418  0.29223  1.0000 0.0591275391
C   C89       1.0  0.34544  0.28722  0.68587  1.0000 0.1210903668
C   C90       1.0  0.65456  0.71278  0.18587  1.0000 0.1210903668
C   C91       1.0  0.71278  0.65456  0.81413  1.0000 0.1210903668
C   C92       1.0  0.28722  0.34544  0.31413  1.0000 0.1210903668
C   C93       1.0  0.40754  0.27844  0.67832  1.0000 -0.2293220639
C   C94       1.0  0.59246  0.72156  0.17832  1.0000 -0.2293220639
C   C95       1.0  0.72156  0.59246  0.82168  1.0000 -0.2293220639
C   C96       1.0  0.27844  0.40754  0.32168  1.0000 -0.2293220639
C   C97       1.0  0.44783  0.32233  0.69853  1.0000 0.1090603531
C   C98       1.0  0.55217  0.67767  0.19853  1.0000 0.1090603531
C   C99       1.0  0.67767  0.55217  0.80147  1.0000 0.1090603531
C   C100      1.0  0.32233  0.44783  0.30147  1.0000 0.1090603531
C   C101      1.0  0.42600  0.37449  0.72240  1.0000 0.0688460875
C   C102      1.0  0.57400  0.62551  0.22240  1.0000 0.0688460875
C   C103      1.0  0.62551  0.57400  0.77760  1.0000 0.0688460875
C   C104      1.0  0.37449  0.42600  0.27760  1.0000 0.0688460875
C   C105      1.0  0.46850  0.42120  0.74560  1.0000 -0.4179661658
C   C106      1.0  0.53150  0.57880  0.24560  1.0000 -0.4179661658
C   C107      1.0  0.57880  0.53150  0.75440  1.0000 -0.4179661658
C   C108      1.0  0.42120  0.46850  0.25440  1.0000 -0.4179661658
C   C109      1.0  0.51470  0.31060  0.69690  1.0000 -0.4375532653
C   C110      1.0  0.48530  0.68940  0.19690  1.0000 -0.4375532653
C   C111      1.0  0.68940  0.48530  0.80310  1.0000 -0.4375532653
C   C112      1.0  0.31060  0.51470  0.30310  1.0000 -0.4375532653
C   C113      1.0  0.30109  0.24173  0.66720  1.0000 -0.4686765582
C   C114      1.0  0.69891  0.75827  0.16720  1.0000 -0.4686765582
C   C115      1.0  0.75827  0.69891  0.83280  1.0000 -0.4686765582
C   C116      1.0  0.24173  0.30109  0.33280  1.0000 -0.4686765582
C   C117      1.0  0.25690  0.35120  0.71100  1.0000 -0.4314823758
C   C118      1.0  0.74310  0.64880  0.21100  1.0000 -0.4314823758
C   C119      1.0  0.64880  0.74310  0.78900  1.0000 -0.4314823758
C   C120      1.0  0.35120  0.25690  0.28900  1.0000 -0.4314823758
C   C121      1.0  0.32810  0.87989  0.67170  1.0000 0.0591275391
C   C122      1.0  0.67190  0.12011  0.17170  1.0000 0.0591275391
C   C123      1.0  0.12011  0.67190  0.82830  1.0000 0.0591275391
C   C124      1.0  0.87989  0.32810  0.32830  1.0000 0.0591275391
C   C125      1.0  0.33316  0.94050  0.67176  1.0000 -0.1781114587
C   C126      1.0  0.66684  0.05950  0.17176  1.0000 -0.1781114587
C   C127      1.0  0.05950  0.66684  0.82824  1.0000 -0.1781114587
C   C128      1.0  0.94050  0.33316  0.32824  1.0000 -0.1781114587
C   C129      1.0  0.38700  0.96748  0.65841  1.0000 0.1307636469
C   C130      1.0  0.61300  0.03252  0.15841  1.0000 0.1307636469
C   C131      1.0  0.03252  0.61300  0.84159  1.0000 0.1307636469
C   C132      1.0  0.96748  0.38700  0.34159  1.0000 0.1307636469
C   C133      1.0  0.43360  0.92880  0.64650  1.0000 -0.1781114587
C   C134      1.0  0.56640  0.07120  0.14650  1.0000 -0.1781114587
C   C135      1.0  0.07120  0.56640  0.85350  1.0000 -0.1781114587
C   C136      1.0  0.92880  0.43360  0.35350  1.0000 -0.1781114587
C   C137      1.0  0.42480  0.86850  0.64820  1.0000 0.0268652186
C   C138      1.0  0.57520  0.13150  0.14820  1.0000 0.0268652186
C   C139      1.0  0.13150  0.57520  0.85180  1.0000 0.0268652186
C   C140      1.0  0.86850  0.42480  0.35180  1.0000 0.0268652186
C   C141      1.0  0.39480  0.03355  0.65600  1.0000 -0.0679912355
C   C142      1.0  0.60520  0.96645  0.15600  1.0000 -0.0679912355
C   C143      1.0  0.96645  0.60520  0.84400  1.0000 -0.0679912355
C   C144      1.0  0.03355  0.39480  0.34400  1.0000 -0.0679912355
C   C145      1.0  0.38060  0.06345  0.60956  1.0000 0.0591275391
C   C146      1.0  0.61940  0.93655  0.10956  1.0000 0.0591275391
C   C147      1.0  0.93655  0.61940  0.89044  1.0000 0.0591275391
C   C148      1.0  0.06345  0.38060  0.39044  1.0000 0.0591275391
C   C149      1.0  0.39041  0.12572  0.60629  1.0000 0.1090603531
C   C150      1.0  0.60959  0.87428  0.10629  1.0000 0.1090603531
C   C151      1.0  0.87428  0.60959  0.89371  1.0000 0.1090603531
C   C152      1.0  0.12572  0.39041  0.39371  1.0000 0.1090603531
C   C153      1.0  0.41482  0.15719  0.64916  1.0000 -0.2233584311
C   C154      1.0  0.58518  0.84281  0.14916  1.0000 -0.2233584311
C   C155      1.0  0.84281  0.58518  0.85084  1.0000 -0.2233584311
C   C156      1.0  0.15719  0.41482  0.35084  1.0000 -0.2233584311
C   C157      1.0  0.42667  0.12654  0.69628  1.0000 0.0969695916
C   C158      1.0  0.57333  0.87346  0.19628  1.0000 0.0969695916
C   C159      1.0  0.87346  0.57333  0.80372  1.0000 0.0969695916
C   C160      1.0  0.12654  0.42667  0.30372  1.0000 0.0969695916
C   C161      1.0  0.41670  0.06433  0.70032  1.0000 0.0688460875
C   C162      1.0  0.58330  0.93567  0.20032  1.0000 0.0688460875
C   C163      1.0  0.93567  0.58330  0.79968  1.0000 0.0688460875
C   C164      1.0  0.06433  0.41670  0.29968  1.0000 0.0688460875
C   C165      1.0  0.42960  0.03130  0.75130  1.0000 -0.4511500484
C   C166      1.0  0.57040  0.96870  0.25130  1.0000 -0.4511500484
C   C167      1.0  0.96870  0.57040  0.74870  1.0000 -0.4511500484
C   C168      1.0  0.03130  0.42960  0.24870  1.0000 -0.4511500484
C   C169      1.0  0.45310  0.15820  0.74295  1.0000 -0.4511500484
C   C170      1.0  0.54690  0.84180  0.24295  1.0000 -0.4511500484
C   C171      1.0  0.84180  0.54690  0.75705  1.0000 -0.4511500484
C   C172      1.0  0.15820  0.45310  0.25705  1.0000 -0.4511500484
C   C173      1.0  0.37250  0.15780  0.55670  1.0000 -0.4686765582
C   C174      1.0  0.62750  0.84220  0.05670  1.0000 -0.4686765582
C   C175      1.0  0.84220  0.62750  0.94330  1.0000 -0.4686765582
C   C176      1.0  0.15780  0.37250  0.44330  1.0000 -0.4686765582
C   C177      1.0  0.35500  0.02970  0.56250  1.0000 -0.4588857566
C   C178      1.0  0.64500  0.97030  0.06250  1.0000 -0.4588857566
C   C179      1.0  0.97030  0.64500  0.93750  1.0000 -0.4588857566
C   C180      1.0  0.02970  0.35500  0.43750  1.0000 -0.4588857566
C   C181      1.0  0.79070  0.86231  0.13417  1.0000 0.0688460875
C   C182      1.0  0.20930  0.13769  0.63417  1.0000 0.0688460875
C   C183      1.0  0.86231  0.79070  0.86583  1.0000 0.0688460875
C   C184      1.0  0.13769  0.20930  0.36583  1.0000 0.0688460875
C   C185      1.0  0.76910  0.90141  0.17141  1.0000 -0.1914925326
C   C186      1.0  0.23090  0.09859  0.67141  1.0000 -0.1914925326
C   C187      1.0  0.90141  0.76910  0.82859  1.0000 -0.1914925326
C   C188      1.0  0.09859  0.23090  0.32859  1.0000 -0.1914925326
C   C189      1.0  0.79785  0.90554  0.22005  1.0000 0.1307636469
C   C190      1.0  0.20215  0.09446  0.72005  1.0000 0.1307636469
C   C191      1.0  0.90554  0.79785  0.77995  1.0000 0.1307636469
C   C192      1.0  0.09446  0.20215  0.27995  1.0000 0.1307636469
C   C193      1.0  0.84590  0.86880  0.22750  1.0000 -0.158267894
C   C194      1.0  0.15410  0.13120  0.72750  1.0000 -0.158267894
C   C195      1.0  0.86880  0.84590  0.77250  1.0000 -0.158267894
C   C196      1.0  0.13120  0.15410  0.27250  1.0000 -0.158267894
C   C197      1.0  0.86480  0.83160  0.18880  1.0000 0.0533327672
C   C198      1.0  0.13520  0.16840  0.68880  1.0000 0.0533327672
C   C199      1.0  0.83160  0.86480  0.81120  1.0000 0.0533327672
C   C200      1.0  0.16840  0.13520  0.31120  1.0000 0.0533327672
C   C201      1.0  0.77635  0.94767  0.26168  1.0000 -0.0679912355
C   C202      1.0  0.22365  0.05233  0.76168  1.0000 -0.0679912355
C   C203      1.0  0.94767  0.77635  0.73832  1.0000 -0.0679912355
C   C204      1.0  0.05233  0.22365  0.23832  1.0000 -0.0679912355
C   C205      1.0  0.73443  0.92794  0.29922  1.0000 0.0591275391
C   C206      1.0  0.26557  0.07206  0.79922  1.0000 0.0591275391
C   C207      1.0  0.92794  0.73443  0.70078  1.0000 0.0591275391
C   C208      1.0  0.07206  0.26557  0.20078  1.0000 0.0591275391
C   C209      1.0  0.71693  0.96691  0.34005  1.0000 0.0969695916
C   C210      1.0  0.28307  0.03309  0.84005  1.0000 0.0969695916
C   C211      1.0  0.96691  0.71693  0.65995  1.0000 0.0969695916
C   C212      1.0  0.03309  0.28307  0.15995  1.0000 0.0969695916
C   C213      1.0  0.74317  0.02379  0.34481  1.0000 -0.2293220639
C   C214      1.0  0.25683  0.97621  0.84481  1.0000 -0.2293220639
C   C215      1.0  0.02379  0.74317  0.65519  1.0000 -0.2293220639
C   C216      1.0  0.97621  0.25683  0.15519  1.0000 -0.2293220639
C   C217      1.0  0.78563  0.04252  0.30733  1.0000 0.1210903668
C   C218      1.0  0.21437  0.95748  0.80733  1.0000 0.1210903668
C   C219      1.0  0.04252  0.78563  0.69267  1.0000 0.1210903668
C   C220      1.0  0.95748  0.21437  0.19267  1.0000 0.1210903668
C   C221      1.0  0.80075  0.00516  0.26507  1.0000 0.0688460875
C   C222      1.0  0.19925  0.99484  0.76507  1.0000 0.0688460875
C   C223      1.0  0.00516  0.80075  0.73493  1.0000 0.0688460875
C   C224      1.0  0.99484  0.19925  0.23493  1.0000 0.0688460875
C   C225      1.0  0.84410  0.02440  0.22140  1.0000 -0.4375532653
C   C226      1.0  0.15590  0.97560  0.72140  1.0000 -0.4375532653
C   C227      1.0  0.02440  0.84410  0.77860  1.0000 -0.4375532653
C   C228      1.0  0.97560  0.15590  0.27860  1.0000 -0.4375532653
C   C229      1.0  0.81400  0.10410  0.30950  1.0000 -0.4686765582
C   C230      1.0  0.18600  0.89590  0.80950  1.0000 -0.4686765582
C   C231      1.0  0.10410  0.81400  0.69050  1.0000 -0.4686765582
C   C232      1.0  0.89590  0.18600  0.19050  1.0000 -0.4686765582
C   C233      1.0  0.67130  0.94430  0.37960  1.0000 -0.4511500484
C   C234      1.0  0.32870  0.05570  0.87960  1.0000 -0.4511500484
C   C235      1.0  0.94430  0.67130  0.62040  1.0000 -0.4511500484
C   C236      1.0  0.05570  0.32870  0.12040  1.0000 -0.4511500484
C   C237      1.0  0.70960  0.86570  0.29550  1.0000 -0.4375532653
C   C238      1.0  0.29040  0.13430  0.79550  1.0000 -0.4375532653
C   C239      1.0  0.86570  0.70960  0.70450  1.0000 -0.4375532653
C   C240      1.0  0.13430  0.29040  0.20450  1.0000 -0.4375532653
C   C241      1.0  0.04630  0.17810  0.49350  1.0000 0.0591275391
C   C242      1.0  0.95370  0.82190  0.99350  1.0000 0.0591275391
C   C243      1.0  0.17810  0.04630  0.50650  1.0000 0.0591275391
C   C244      1.0  0.82190  0.95370  0.00650  1.0000 0.0591275391
C   C245      1.0  0.99410  0.15700  0.47070  1.0000 -0.1781114587
C   C246      1.0  0.00590  0.84300  0.97070  1.0000 -0.1781114587
C   C247      1.0  0.15700  0.99410  0.52930  1.0000 -0.1781114587
C   C248      1.0  0.84300  0.00590  0.02930  1.0000 -0.1781114587
C   C249      1.0  0.94152  0.15930  0.49829  1.0000 0.1307636469
C   C250      1.0  0.05848  0.84070  0.99829  1.0000 0.1307636469
C   C251      1.0  0.15930  0.94152  0.50171  1.0000 0.1307636469
C   C252      1.0  0.84070  0.05848  0.00171  1.0000 0.1307636469
C   C253      1.0  0.94240  0.18640  0.54700  1.0000 -0.1716893178
C   C254      1.0  0.05760  0.81360  0.04700  1.0000 -0.1716893178
C   C255      1.0  0.18640  0.94240  0.45300  1.0000 -0.1716893178
C   C256      1.0  0.81360  0.05760  0.95300  1.0000 -0.1716893178
C   C257      1.0  0.99620  0.20810  0.56760  1.0000 0.0688460875
C   C258      1.0  0.00380  0.79190  0.06760  1.0000 0.0688460875
C   C259      1.0  0.20810  0.99620  0.43240  1.0000 0.0688460875
C   C260      1.0  0.79190  0.00380  0.93240  1.0000 0.0688460875
C   C261      1.0  0.88369  0.13600  0.47548  1.0000 -0.0546491865
C   C262      1.0  0.11631  0.86400  0.97548  1.0000 -0.0546491865
C   C263      1.0  0.13600  0.88369  0.52452  1.0000 -0.0546491865
C   C264      1.0  0.86400  0.11631  0.02452  1.0000 -0.0546491865
C   C265      1.0  0.84103  0.17582  0.45777  1.0000 0.0591275391
C   C266      1.0  0.15897  0.82418  0.95777  1.0000 0.0591275391
C   C267      1.0  0.17582  0.84103  0.54223  1.0000 0.0591275391
C   C268      1.0  0.82418  0.15897  0.04223  1.0000 0.0591275391
C   C269      1.0  0.78722  0.15456  0.43587  1.0000 0.1210903668
C   C270      1.0  0.21278  0.84544  0.93587  1.0000 0.1210903668
C   C271      1.0  0.15456  0.78722  0.56413  1.0000 0.1210903668
C   C272      1.0  0.84544  0.21278  0.06413  1.0000 0.1210903668
C   C273      1.0  0.77844  0.09246  0.42832  1.0000 -0.2293220639
C   C274      1.0  0.22156  0.90754  0.92832  1.0000 -0.2293220639
C   C275      1.0  0.09246  0.77844  0.57168  1.0000 -0.2293220639
C   C276      1.0  0.90754  0.22156  0.07168  1.0000 -0.2293220639
C   C277      1.0  0.82233  0.05217  0.44853  1.0000 0.1090603531
C   C278      1.0  0.17767  0.94783  0.94853  1.0000 0.1090603531
C   C279      1.0  0.05217  0.82233  0.55147  1.0000 0.1090603531
C   C280      1.0  0.94783  0.17767  0.05147  1.0000 0.1090603531
C   C281      1.0  0.87449  0.07400  0.47240  1.0000 0.0688460875
C   C282      1.0  0.12551  0.92600  0.97240  1.0000 0.0688460875
C   C283      1.0  0.07400  0.87449  0.52760  1.0000 0.0688460875
C   C284      1.0  0.92600  0.12551  0.02760  1.0000 0.0688460875
C   C285      1.0  0.92120  0.03150  0.49560  1.0000 -0.4179661658
C   C286      1.0  0.07880  0.96850  0.99560  1.0000 -0.4179661658
C   C287      1.0  0.03150  0.92120  0.50440  1.0000 -0.4179661658
C   C288      1.0  0.96850  0.07880  0.00440  1.0000 -0.4179661658
C   C289      1.0  0.81060  0.98530  0.44690  1.0000 -0.4375532653
C   C290      1.0  0.18940  0.01470  0.94690  1.0000 -0.4375532653
C   C291      1.0  0.98530  0.81060  0.55310  1.0000 -0.4375532653
C   C292      1.0  0.01470  0.18940  0.05310  1.0000 -0.4375532653
C   C293      1.0  0.74173  0.19891  0.41720  1.0000 -0.4686765582
C   C294      1.0  0.25827  0.80109  0.91720  1.0000 -0.4686765582
C   C295      1.0  0.19891  0.74173  0.58280  1.0000 -0.4686765582
C   C296      1.0  0.80109  0.25827  0.08280  1.0000 -0.4686765582
C   C297      1.0  0.85120  0.24310  0.46100  1.0000 -0.4314823758
C   C298      1.0  0.14880  0.75690  0.96100  1.0000 -0.4314823758
C   C299      1.0  0.24310  0.85120  0.53900  1.0000 -0.4314823758
C   C300      1.0  0.75690  0.14880  0.03900  1.0000 -0.4314823758
C   C301      1.0  0.37989  0.17190  0.42170  1.0000 0.0591275391
C   C302      1.0  0.62011  0.82810  0.92170  1.0000 0.0591275391
C   C303      1.0  0.17190  0.37989  0.57830  1.0000 0.0591275391
C   C304      1.0  0.82810  0.62011  0.07830  1.0000 0.0591275391
C   C305      1.0  0.44050  0.16684  0.42176  1.0000 -0.1781114587
C   C306      1.0  0.55950  0.83316  0.92176  1.0000 -0.1781114587
C   C307      1.0  0.16684  0.44050  0.57824  1.0000 -0.1781114587
C   C308      1.0  0.83316  0.55950  0.07824  1.0000 -0.1781114587
C   C309      1.0  0.46748  0.11300  0.40841  1.0000 0.1307636469
C   C310      1.0  0.53252  0.88700  0.90841  1.0000 0.1307636469
C   C311      1.0  0.11300  0.46748  0.59159  1.0000 0.1307636469
C   C312      1.0  0.88700  0.53252  0.09159  1.0000 0.1307636469
C   C313      1.0  0.42880  0.06640  0.39650  1.0000 -0.1781114587
C   C314      1.0  0.57120  0.93360  0.89650  1.0000 -0.1781114587
C   C315      1.0  0.06640  0.42880  0.60350  1.0000 -0.1781114587
C   C316      1.0  0.93360  0.57120  0.10350  1.0000 -0.1781114587
C   C317      1.0  0.36850  0.07520  0.39820  1.0000 0.0268652186
C   C318      1.0  0.63150  0.92480  0.89820  1.0000 0.0268652186
C   C319      1.0  0.07520  0.36850  0.60180  1.0000 0.0268652186
C   C320      1.0  0.92480  0.63150  0.10180  1.0000 0.0268652186
C   C321      1.0  0.53355  0.10520  0.40600  1.0000 -0.0679912355
C   C322      1.0  0.46645  0.89480  0.90600  1.0000 -0.0679912355
C   C323      1.0  0.10520  0.53355  0.59400  1.0000 -0.0679912355
C   C324      1.0  0.89480  0.46645  0.09400  1.0000 -0.0679912355
C   C325      1.0  0.56345  0.11940  0.35956  1.0000 0.0591275391
C   C326      1.0  0.43655  0.88060  0.85956  1.0000 0.0591275391
C   C327      1.0  0.11940  0.56345  0.64044  1.0000 0.0591275391
C   C328      1.0  0.88060  0.43655  0.14044  1.0000 0.0591275391
C   C329      1.0  0.62572  0.10959  0.35629  1.0000 0.1090603531
C   C330      1.0  0.37428  0.89041  0.85629  1.0000 0.1090603531
C   C331      1.0  0.10959  0.62572  0.64371  1.0000 0.1090603531
C   C332      1.0  0.89041  0.37428  0.14371  1.0000 0.1090603531
C   C333      1.0  0.65719  0.08518  0.39916  1.0000 -0.2233584311
C   C334      1.0  0.34281  0.91482  0.89916  1.0000 -0.2233584311
C   C335      1.0  0.08518  0.65719  0.60084  1.0000 -0.2233584311
C   C336      1.0  0.91482  0.34281  0.10084  1.0000 -0.2233584311
C   C337      1.0  0.62654  0.07333  0.44628  1.0000 0.0969695916
C   C338      1.0  0.37346  0.92667  0.94628  1.0000 0.0969695916
C   C339      1.0  0.07333  0.62654  0.55372  1.0000 0.0969695916
C   C340      1.0  0.92667  0.37346  0.05372  1.0000 0.0969695916
C   C341      1.0  0.56433  0.08330  0.45032  1.0000 0.0688460875
C   C342      1.0  0.43567  0.91670  0.95032  1.0000 0.0688460875
C   C343      1.0  0.08330  0.56433  0.54968  1.0000 0.0688460875
C   C344      1.0  0.91670  0.43567  0.04968  1.0000 0.0688460875
C   C345      1.0  0.53130  0.07040  0.50130  1.0000 -0.4511500484
C   C346      1.0  0.46870  0.92960  0.00130  1.0000 -0.4511500484
C   C347      1.0  0.07040  0.53130  0.49870  1.0000 -0.4511500484
C   C348      1.0  0.92960  0.46870  0.99870  1.0000 -0.4511500484
C   C349      1.0  0.65820  0.04690  0.49295  1.0000 -0.4511500484
C   C350      1.0  0.34180  0.95310  0.99295  1.0000 -0.4511500484
C   C351      1.0  0.04690  0.65820  0.50705  1.0000 -0.4511500484
C   C352      1.0  0.95310  0.34180  0.00705  1.0000 -0.4511500484
C   C353      1.0  0.65780  0.12750  0.30670  1.0000 -0.4686765582
C   C354      1.0  0.34220  0.87250  0.80670  1.0000 -0.4686765582
C   C355      1.0  0.12750  0.65780  0.69330  1.0000 -0.4686765582
C   C356      1.0  0.87250  0.34220  0.19330  1.0000 -0.4686765582
C   C357      1.0  0.52970  0.14500  0.31250  1.0000 -0.4588857566
C   C358      1.0  0.47030  0.85500  0.81250  1.0000 -0.4588857566
C   C359      1.0  0.14500  0.52970  0.68750  1.0000 -0.4588857566
C   C360      1.0  0.85500  0.47030  0.18750  1.0000 -0.4588857566
N   N1        1.0  0.67246  0.33800  0.39172  1.0000 -0.1914925326
N   N2        1.0  0.32754  0.66200  0.89172  1.0000 -0.1914925326
N   N3        1.0  0.66200  0.32754  0.10828  1.0000 -0.1914925326
N   N4        1.0  0.33800  0.67246  0.60828  1.0000 -0.1914925326
N   N5        1.0  0.29590  0.54738  0.79133  1.0000 -0.2101098981
N   N6        1.0  0.70410  0.45262  0.29133  1.0000 -0.2101098981
N   N7        1.0  0.45262  0.70410  0.70867  1.0000 -0.2101098981
N   N8        1.0  0.54738  0.29590  0.20867  1.0000 -0.2101098981
N   N9        1.0  0.37261  0.84272  0.66030  1.0000 -0.1914925326
N   N10       1.0  0.62739  0.15728  0.16030  1.0000 -0.1914925326
N   N11       1.0  0.15728  0.62739  0.83970  1.0000 -0.1914925326
N   N12       1.0  0.84272  0.37261  0.33970  1.0000 -0.1914925326
N   N13       1.0  0.83800  0.82754  0.14172  1.0000 -0.1914925326
N   N14       1.0  0.16200  0.17246  0.64172  1.0000 -0.1914925326
N   N15       1.0  0.82754  0.83800  0.85828  1.0000 -0.1914925326
N   N16       1.0  0.17246  0.16200  0.35828  1.0000 -0.1914925326
N   N17       1.0  0.04738  0.20410  0.54133  1.0000 -0.2101098981
N   N18       1.0  0.95262  0.79590  0.04133  1.0000 -0.2101098981
N   N19       1.0  0.20410  0.04738  0.45867  1.0000 -0.2101098981
N   N20       1.0  0.79590  0.95262  0.95867  1.0000 -0.2101098981
N   N21       1.0  0.34272  0.12739  0.41030  1.0000 -0.1914925326
N   N22       1.0  0.65728  0.87261  0.91030  1.0000 -0.1914925326
N   N23       1.0  0.12739  0.34272  0.58970  1.0000 -0.1914925326
N   N24       1.0  0.87261  0.65728  0.08970  1.0000 -0.1914925326
N   N25       1.0  0.02640  0.98620  0.35120  1.0000 0.6328378234
N   N26       1.0  0.97360  0.01380  0.85120  1.0000 0.6328378234
N   N27       1.0  0.51380  0.52640  0.60120  1.0000 0.6328378234
N   N28       1.0  0.48620  0.47360  0.10120  1.0000 0.6328378234
N   N29       1.0  0.47360  0.48620  0.89880  1.0000 0.6328378234
N   N30       1.0  0.52640  0.51380  0.39880  1.0000 0.6328378234
N   N31       1.0  0.98620  0.02640  0.64880  1.0000 0.6328378234
N   N32       1.0  0.01380  0.97360  0.14880  1.0000 0.6328378234
N   N33       1.0  0.26366  0.73634  0.75000  1.0000 0.6040200208
N   N34       1.0  0.73634  0.26366  0.25000  1.0000 0.6040200208
N   N35       1.0  0.23634  0.23634  0.50000  1.0000 0.6040200208
N   N36       1.0  0.76366  0.76366  0.00000  1.0000 0.6040200208
O   O1        1.0  0.05010  0.02710  0.37540  1.0000 -0.4094879415
O   O2        1.0  0.98310  0.99750  0.32270  1.0000 -0.4001200558
O   O3        1.0  0.04400  0.93490  0.35720  1.0000 -0.3768826213
O   O4        1.0  0.94990  0.97290  0.87540  1.0000 -0.4094879415
O   O5        1.0  0.01690  0.00250  0.82270  1.0000 -0.4001200558
O   O6        1.0  0.95600  0.06510  0.85720  1.0000 -0.3768826213
O   O7        1.0  0.47290  0.55010  0.62540  1.0000 -0.4094879415
O   O8        1.0  0.50250  0.48310  0.57270  1.0000 -0.4001200558
O   O9        1.0  0.56510  0.54400  0.60720  1.0000 -0.3768826213
O   O10       1.0  0.52710  0.44990  0.12540  1.0000 -0.4094879415
O   O11       1.0  0.49750  0.51690  0.07270  1.0000 -0.4001200558
O   O12       1.0  0.43490  0.45600  0.10720  1.0000 -0.3768826213
O   O13       1.0  0.44990  0.52710  0.87460  1.0000 -0.4094879415
O   O14       1.0  0.51690  0.49750  0.92730  1.0000 -0.4001200558
O   O15       1.0  0.45600  0.43490  0.89280  1.0000 -0.3768826213
O   O16       1.0  0.55010  0.47290  0.37460  1.0000 -0.4094879415
O   O17       1.0  0.48310  0.50250  0.42730  1.0000 -0.4001200558
O   O18       1.0  0.54400  0.56510  0.39280  1.0000 -0.3768826213
O   O19       1.0  0.02710  0.05010  0.62460  1.0000 -0.4094879415
O   O20       1.0  0.99750  0.98310  0.67730  1.0000 -0.4001200558
O   O21       1.0  0.93490  0.04400  0.64280  1.0000 -0.3768826213
O   O22       1.0  0.97290  0.94990  0.12460  1.0000 -0.4094879415
O   O23       1.0  0.00250  0.01690  0.17730  1.0000 -0.4001200558
O   O24       1.0  0.06510  0.95600  0.14280  1.0000 -0.3768826213
O   O25       1.0  0.23160  0.74140  0.78850  1.0000 -0.3650845673
O   O26       1.0  0.25860  0.76840  0.71150  1.0000 -0.3650845673
O   O27       1.0  0.30300  0.69700  0.75000  1.0000 -0.4001200558
O   O28       1.0  0.76840  0.25860  0.28850  1.0000 -0.3650845673
O   O29       1.0  0.74140  0.23160  0.21150  1.0000 -0.3650845673
O   O30       1.0  0.69700  0.30300  0.25000  1.0000 -0.4001200558
O   O31       1.0  0.24140  0.26840  0.53850  1.0000 -0.3650845673
O   O32       1.0  0.26840  0.24140  0.46150  1.0000 -0.3650845673
O   O33       1.0  0.19700  0.19700  0.50000  1.0000 -0.4001200558
O   O34       1.0  0.75860  0.73160  0.03850  1.0000 -0.3650845673
O   O35       1.0  0.73160  0.75860  0.96150  1.0000 -0.3647133794
O   O36       1.0  0.80300  0.80300  0.00000  1.0000 -0.4001200558
