# DDEC6 charges by PACMAN v1.1 (https://github.com/mtap-research/PACMAN-charge/)
data_2010[Zn][hex]3[ION]1
_chemical_formula_sum              "Zn12 H192 C240 N8 O64"
_cell_length_a       14.5575
_cell_length_b       22.4021
_cell_length_c       24.6744
_cell_angle_alpha    90
_cell_angle_beta     90
_cell_angle_gamma    90

_symmetry_space_group_name_H-M    "P 1"
_symmetry_Int_Tables_number       1

loop_
  _symmetry_equiv_pos_as_xyz
  'x, y, z'

loop_
  _atom_site_type_symbol
  _atom_site_label
  _atom_site_symmetry_multiplicity
  _atom_site_fract_x
  _atom_site_fract_y
  _atom_site_fract_z
  _atom_site_occupancy
  _atom_site_charge
Zn  Zn1       1.0  0.95917  0.11322  0.34383  1.0000 0.9076819115
Zn  Zn2       1.0  0.54083  0.11322  0.84383  1.0000 0.9076819115
Zn  Zn3       1.0  0.99643  0.27098  0.34403  1.0000 1.0438999974
Zn  Zn4       1.0  0.50357  0.27098  0.84403  1.0000 1.0452842557
Zn  Zn5       1.0  0.03922  0.43518  0.33972  1.0000 0.9076819115
Zn  Zn6       1.0  0.46078  0.43518  0.83972  1.0000 0.9076819115
Zn  Zn7       1.0  0.04083  0.61322  0.65617  1.0000 0.9076819115
Zn  Zn8       1.0  0.45917  0.61322  0.15617  1.0000 0.9076819115
Zn  Zn9       1.0  0.00357  0.77098  0.65597  1.0000 1.0452842557
Zn  Zn10      1.0  0.49643  0.77098  0.15597  1.0000 1.0438999974
Zn  Zn11      1.0  0.96078  0.93518  0.66028  1.0000 0.9076819115
Zn  Zn12      1.0  0.53922  0.93518  0.16028  1.0000 0.9076819115
H   H1        1.0  0.03710  0.93700  0.38460  1.0000 0.1191479923
H   H2        1.0  0.46290  0.93700  0.88460  1.0000 0.1191479923
H   H3        1.0  0.07330  0.83700  0.39400  1.0000 0.1112153663
H   H4        1.0  0.42670  0.83700  0.89400  1.0000 0.1112153663
H   H5        1.0  0.92770  0.79880  0.25880  1.0000 0.1112153663
H   H6        1.0  0.57230  0.79880  0.75880  1.0000 0.1112153663
H   H7        1.0  0.88980  0.90010  0.24970  1.0000 0.1112153663
H   H8        1.0  0.61020  0.90010  0.74970  1.0000 0.1112153663
H   H9        1.0  0.04560  0.74550  0.41650  1.0000 0.1112153663
H   H10       1.0  0.45440  0.74550  0.91650  1.0000 0.1112153663
H   H11       1.0  0.07480  0.64480  0.42900  1.0000 0.1191479923
H   H12       1.0  0.42520  0.64480  0.92900  1.0000 0.1112153663
H   H13       1.0  0.03770  0.61640  0.26910  1.0000 0.1191479923
H   H14       1.0  0.46230  0.61640  0.76910  1.0000 0.1191479923
H   H15       1.0  0.01660  0.71890  0.25590  1.0000 0.1112153663
H   H16       1.0  0.48340  0.71890  0.75590  1.0000 0.1112153663
H   H17       1.0  0.09650  0.08980  0.49370  1.0000 0.1191479923
H   H18       1.0  0.40350  0.08980  0.99370  1.0000 0.1191479923
H   H19       1.0  0.18150  0.08950  0.57320  1.0000 0.1191479923
H   H20       1.0  0.31850  0.08950  0.07320  1.0000 0.1191479923
H   H21       1.0  0.19990  0.27010  0.56620  1.0000 0.1112153663
H   H22       1.0  0.30010  0.27010  0.06620  1.0000 0.1112153663
H   H23       1.0  0.10810  0.26960  0.48900  1.0000 0.1191479923
H   H24       1.0  0.39190  0.26960  0.98900  1.0000 0.1191479923
H   H25       1.0  0.32160  0.09930  0.61180  1.0000 0.1112153663
H   H26       1.0  0.17840  0.09930  0.11180  1.0000 0.1112153663
H   H27       1.0  0.41310  0.09760  0.68900  1.0000 0.1191479923
H   H28       1.0  0.08690  0.09760  0.18900  1.0000 0.1191479923
H   H29       1.0  0.30350  0.25430  0.73840  1.0000 0.1191479923
H   H30       1.0  0.19650  0.25430  0.23840  1.0000 0.1191479923
H   H31       1.0  0.21110  0.25710  0.66060  1.0000 0.1112153663
H   H32       1.0  0.28890  0.25710  0.16060  1.0000 0.1112153663
H   H33       1.0  0.66710  0.14070  0.38380  1.0000 0.1289794691
H   H34       1.0  0.83290  0.14070  0.88380  1.0000 0.1289794691
H   H35       1.0  0.51910  0.17850  0.39170  1.0000 0.1191479923
H   H36       1.0  0.98090  0.17850  0.89170  1.0000 0.1191479923
H   H37       1.0  0.60240  0.33490  0.32470  1.0000 0.1191479923
H   H38       1.0  0.89760  0.33490  0.82470  1.0000 0.1191479923
H   H39       1.0  0.75030  0.29590  0.31690  1.0000 0.1289794691
H   H40       1.0  0.74970  0.29590  0.81690  1.0000 0.1289794691
H   H41       1.0  0.38460  0.20560  0.35840  1.0000 0.1191479923
H   H42       1.0  0.11540  0.20560  0.85840  1.0000 0.1191479923
H   H43       1.0  0.23460  0.24200  0.36040  1.0000 0.1289794691
H   H44       1.0  0.26540  0.24200  0.86040  1.0000 0.1289794691
H   H45       1.0  0.33600  0.41010  0.36680  1.0000 0.1191479923
H   H46       1.0  0.16400  0.41010  0.86680  1.0000 0.1191479923
H   H47       1.0  0.48480  0.37260  0.37050  1.0000 0.1191479923
H   H48       1.0  0.01520  0.37260  0.87050  1.0000 0.1191479923
H   H49       1.0  0.85590  0.27750  0.20750  1.0000 0.1191479923
H   H50       1.0  0.64410  0.27750  0.70750  1.0000 0.1191479923
H   H51       1.0  0.76460  0.28220  0.12950  1.0000 0.1112153663
H   H52       1.0  0.73540  0.28220  0.62950  1.0000 0.1112153663
H   H53       1.0  0.85980  0.44800  0.09870  1.0000 0.1191479923
H   H54       1.0  0.64020  0.44800  0.59870  1.0000 0.1191479923
H   H55       1.0  0.94550  0.44580  0.17740  1.0000 0.1289794691
H   H56       1.0  0.55450  0.44580  0.67740  1.0000 0.1289794691
H   H57       1.0  0.75600  0.28000  0.03610  1.0000 0.1112153663
H   H58       1.0  0.74400  0.28000  0.53610  1.0000 0.1112153663
H   H59       1.0  0.67350  0.28510  0.95540  1.0000 0.1289794691
H   H60       1.0  0.82650  0.28510  0.45540  1.0000 0.1289794691
H   H61       1.0  0.62810  0.46140  0.98180  1.0000 0.1191479923
H   H62       1.0  0.87190  0.46140  0.48180  1.0000 0.1191479923
H   H63       1.0  0.71600  0.45720  0.06010  1.0000 0.1191479923
H   H64       1.0  0.78400  0.45720  0.56010  1.0000 0.1191479923
H   H65       1.0  0.96290  0.43700  0.61540  1.0000 0.1112153663
H   H66       1.0  0.53710  0.43700  0.11540  1.0000 0.1112153663
H   H67       1.0  0.92670  0.33700  0.60600  1.0000 0.1112153663
H   H68       1.0  0.57330  0.33700  0.10600  1.0000 0.1112153663
H   H69       1.0  0.07230  0.29880  0.74120  1.0000 0.1112153663
H   H70       1.0  0.42770  0.29880  0.24120  1.0000 0.1112153663
H   H71       1.0  0.11020  0.40010  0.75030  1.0000 0.1112153663
H   H72       1.0  0.38980  0.40010  0.25030  1.0000 0.1112153663
H   H73       1.0  0.95440  0.24550  0.58350  1.0000 0.1112153663
H   H74       1.0  0.54560  0.24550  0.08350  1.0000 0.1112153663
H   H75       1.0  0.92520  0.14480  0.57100  1.0000 0.1112153663
H   H76       1.0  0.57480  0.14480  0.07100  1.0000 0.1112153663
H   H77       1.0  0.96230  0.11640  0.73090  1.0000 0.1191479923
H   H78       1.0  0.53770  0.11640  0.23090  1.0000 0.1191479923
H   H79       1.0  0.98340  0.21890  0.74410  1.0000 0.1112153663
H   H80       1.0  0.51660  0.21890  0.24410  1.0000 0.1112153663
H   H81       1.0  0.90350  0.58980  0.50630  1.0000 0.1191479923
H   H82       1.0  0.59650  0.58980  0.00630  1.0000 0.1191479923
H   H83       1.0  0.81850  0.58950  0.42680  1.0000 0.1191479923
H   H84       1.0  0.68150  0.58950  0.92680  1.0000 0.1191479923
H   H85       1.0  0.80010  0.77010  0.43380  1.0000 0.1112153663
H   H86       1.0  0.69990  0.77010  0.93380  1.0000 0.1112153663
H   H87       1.0  0.89190  0.76960  0.51100  1.0000 0.1191479923
H   H88       1.0  0.60810  0.76960  0.01100  1.0000 0.1191479923
H   H89       1.0  0.67840  0.59930  0.38820  1.0000 0.1112153663
H   H90       1.0  0.82160  0.59930  0.88820  1.0000 0.1112153663
H   H91       1.0  0.58690  0.59760  0.31100  1.0000 0.1191479923
H   H92       1.0  0.91310  0.59760  0.81100  1.0000 0.1191479923
H   H93       1.0  0.69650  0.75430  0.26160  1.0000 0.1191479923
H   H94       1.0  0.80350  0.75430  0.76160  1.0000 0.1191479923
H   H95       1.0  0.78890  0.75710  0.33940  1.0000 0.1112153663
H   H96       1.0  0.71110  0.75710  0.83940  1.0000 0.1112153663
H   H97       1.0  0.33290  0.64070  0.61620  1.0000 0.1289794691
H   H98       1.0  0.16710  0.64070  0.11620  1.0000 0.1289794691
H   H99       1.0  0.48090  0.67850  0.60830  1.0000 0.1191479923
H   H100      1.0  0.01910  0.67850  0.10830  1.0000 0.1191479923
H   H101      1.0  0.39760  0.83490  0.67530  1.0000 0.1191479923
H   H102      1.0  0.10240  0.83490  0.17530  1.0000 0.1191479923
H   H103      1.0  0.24970  0.79590  0.68310  1.0000 0.1289794691
H   H104      1.0  0.25030  0.79590  0.18310  1.0000 0.1289794691
H   H105      1.0  0.61540  0.70560  0.64160  1.0000 0.1191479923
H   H106      1.0  0.88460  0.70560  0.14160  1.0000 0.1191479923
H   H107      1.0  0.76540  0.74200  0.63960  1.0000 0.1289794691
H   H108      1.0  0.73460  0.74200  0.13960  1.0000 0.1289794691
H   H109      1.0  0.66400  0.91010  0.63320  1.0000 0.1191479923
H   H110      1.0  0.83600  0.91010  0.13320  1.0000 0.1191479923
H   H111      1.0  0.51520  0.87260  0.62950  1.0000 0.1191479923
H   H112      1.0  0.98480  0.87260  0.12950  1.0000 0.1191479923
H   H113      1.0  0.14410  0.77750  0.79250  1.0000 0.1191479923
H   H114      1.0  0.35590  0.77750  0.29250  1.0000 0.1191479923
H   H115      1.0  0.23540  0.78220  0.87050  1.0000 0.1112153663
H   H116      1.0  0.26460  0.78220  0.37050  1.0000 0.1112153663
H   H117      1.0  0.14020  0.94800  0.90130  1.0000 0.1112153663
H   H118      1.0  0.35980  0.94800  0.40130  1.0000 0.1191479923
H   H119      1.0  0.05450  0.94580  0.82260  1.0000 0.1289794691
H   H120      1.0  0.44550  0.94580  0.32260  1.0000 0.1289794691
H   H121      1.0  0.24400  0.78000  0.96390  1.0000 0.1112153663
H   H122      1.0  0.25600  0.78000  0.46390  1.0000 0.1112153663
H   H123      1.0  0.32650  0.78510  0.04460  1.0000 0.1289794691
H   H124      1.0  0.17350  0.78510  0.54460  1.0000 0.1289794691
H   H125      1.0  0.37190  0.96140  0.01820  1.0000 0.1191479923
H   H126      1.0  0.12810  0.96140  0.51820  1.0000 0.1191479923
H   H127      1.0  0.28400  0.95720  0.93990  1.0000 0.1191479923
H   H128      1.0  0.21600  0.95720  0.43990  1.0000 0.1191479923
H   H129      1.0  0.61580  0.97580  0.04510  1.0000 0.2747907483
H   H130      1.0  0.70410  0.96910  0.01540  1.0000 0.2562863075
H   H131      1.0  0.64420  0.87690  0.03070  1.0000 0.1388005666
H   H132      1.0  0.55280  0.89680  0.99950  1.0000 0.1388005666
H   H133      1.0  0.64730  0.88980  0.96700  1.0000 0.1289794691
H   H134      1.0  0.62460  0.04670  0.97890  1.0000 0.1388005666
H   H135      1.0  0.63510  0.99450  0.93500  1.0000 0.1388005666
H   H136      1.0  0.54060  0.00240  0.96730  1.0000 0.1388005666
H   H137      1.0  0.38420  0.47580  0.95490  1.0000 0.2747907483
H   H138      1.0  0.29590  0.46910  0.98460  1.0000 0.2562863075
H   H139      1.0  0.35580  0.37690  0.96930  1.0000 0.1388005666
H   H140      1.0  0.44720  0.39680  0.00050  1.0000 0.1388005666
H   H141      1.0  0.35270  0.38980  0.03300  1.0000 0.1289794691
H   H142      1.0  0.37540  0.54670  0.02110  1.0000 0.1388005666
H   H143      1.0  0.36490  0.49450  0.06500  1.0000 0.1388005666
H   H144      1.0  0.45940  0.50240  0.03270  1.0000 0.1388005666
H   H145      1.0  0.11580  0.47580  0.45490  1.0000 0.2782037937
H   H146      1.0  0.20410  0.46910  0.48460  1.0000 0.2562863075
H   H147      1.0  0.14420  0.37690  0.46930  1.0000 0.1388005666
H   H148      1.0  0.05280  0.39680  0.50050  1.0000 0.1388005666
H   H149      1.0  0.14730  0.38980  0.53300  1.0000 0.1289794691
H   H150      1.0  0.12460  0.54670  0.52110  1.0000 0.1388005666
H   H151      1.0  0.13510  0.49450  0.56500  1.0000 0.1388005666
H   H152      1.0  0.04060  0.50240  0.53270  1.0000 0.1388005666
H   H153      1.0  0.88420  0.97580  0.54510  1.0000 0.2747907483
H   H154      1.0  0.79590  0.96910  0.51540  1.0000 0.2562863075
H   H155      1.0  0.85580  0.87690  0.53070  1.0000 0.1388005666
H   H156      1.0  0.94720  0.89680  0.49950  1.0000 0.1388005666
H   H157      1.0  0.85270  0.88980  0.46700  1.0000 0.1289794691
H   H158      1.0  0.87540  0.04670  0.47890  1.0000 0.1388005666
H   H159      1.0  0.86490  0.99450  0.43500  1.0000 0.1388005666
H   H160      1.0  0.95940  0.00240  0.46730  1.0000 0.1388005666
H   H161      1.0  0.39460  0.57360  0.28460  1.0000 0.2782037937
H   H162      1.0  0.40730  0.61420  0.33160  1.0000 0.2562863075
H   H163      1.0  0.32530  0.66140  0.26760  1.0000 0.1388005666
H   H164      1.0  0.25100  0.60880  0.26980  1.0000 0.1388005666
H   H165      1.0  0.26390  0.65230  0.32070  1.0000 0.1289794691
H   H166      1.0  0.38160  0.52100  0.36220  1.0000 0.1289794691
H   H167      1.0  0.29950  0.56410  0.38040  1.0000 0.1289794691
H   H168      1.0  0.28630  0.52020  0.32980  1.0000 0.148404687
H   H169      1.0  0.60540  0.07360  0.71540  1.0000 0.2782037937
H   H170      1.0  0.59270  0.11420  0.66840  1.0000 0.2562863075
H   H171      1.0  0.67470  0.16140  0.73240  1.0000 0.1388005666
H   H172      1.0  0.74900  0.10880  0.73020  1.0000 0.1388005666
H   H173      1.0  0.73610  0.15230  0.67930  1.0000 0.1289794691
H   H174      1.0  0.61840  0.02100  0.63780  1.0000 0.1289794691
H   H175      1.0  0.70050  0.06410  0.61960  1.0000 0.1289794691
H   H176      1.0  0.71370  0.02020  0.67020  1.0000 0.148404687
H   H177      1.0  0.89460  0.07360  0.21540  1.0000 0.2782037937
H   H178      1.0  0.90730  0.11420  0.16840  1.0000 0.2562863075
H   H179      1.0  0.82530  0.16140  0.23240  1.0000 0.1388005666
H   H180      1.0  0.75100  0.10880  0.23020  1.0000 0.1388005666
H   H181      1.0  0.76390  0.15230  0.17930  1.0000 0.1289794691
H   H182      1.0  0.88160  0.02100  0.13780  1.0000 0.1289794691
H   H183      1.0  0.79950  0.06410  0.11960  1.0000 0.1289794691
H   H184      1.0  0.78630  0.02020  0.17020  1.0000 0.148404687
H   H185      1.0  0.10540  0.57360  0.78460  1.0000 0.2782037937
H   H186      1.0  0.09270  0.61420  0.83160  1.0000 0.2562863075
H   H187      1.0  0.17470  0.66140  0.76760  1.0000 0.1388005666
H   H188      1.0  0.24900  0.60880  0.76980  1.0000 0.1388005666
H   H189      1.0  0.23610  0.65230  0.82070  1.0000 0.1289794691
H   H190      1.0  0.11840  0.52100  0.86220  1.0000 0.1289794691
H   H191      1.0  0.20050  0.56410  0.88040  1.0000 0.1289794691
H   H192      1.0  0.21370  0.52020  0.82980  1.0000 0.148404687
C   C1        1.0  0.93830  0.99399  0.30991  1.0000 0.5605166995
C   C2        1.0  0.56170  0.99399  0.80991  1.0000 0.5605166995
C   C3        1.0  0.95930  0.92810  0.31715  1.0000 -0.0223939667
C   C4        1.0  0.54070  0.92810  0.81715  1.0000 -0.0223939667
C   C5        1.0  0.01400  0.90892  0.35918  1.0000 -0.1001493468
C   C6        1.0  0.48600  0.90892  0.85918  1.0000 -0.1001493468
C   C7        1.0  0.03560  0.84942  0.36466  1.0000 -0.149971301
C   C8        1.0  0.46440  0.84942  0.86466  1.0000 -0.149971301
C   C9        1.0  0.00330  0.80694  0.32808  1.0000 0.0699706036
C   C10       1.0  0.49670  0.80694  0.82808  1.0000 0.0699706036
C   C11       1.0  0.94940  0.82674  0.28476  1.0000 -0.1562584422
C   C12       1.0  0.55060  0.82674  0.78476  1.0000 -0.1562584422
C   C13       1.0  0.92680  0.88709  0.27912  1.0000 -0.1072214234
C   C14       1.0  0.57320  0.88709  0.77912  1.0000 -0.1072214234
C   C15       1.0  0.02470  0.74238  0.33477  1.0000 0.0699706036
C   C16       1.0  0.47530  0.74238  0.83477  1.0000 0.0699706036
C   C17       1.0  0.04370  0.71928  0.38629  1.0000 -0.149971301
C   C18       1.0  0.45630  0.71928  0.88629  1.0000 -0.149971301
C   C19       1.0  0.05980  0.65933  0.39393  1.0000 -0.1001493468
C   C20       1.0  0.44020  0.65933  0.89393  1.0000 -0.1001493468
C   C21       1.0  0.05430  0.62011  0.35082  1.0000 -0.029607031
C   C22       1.0  0.44570  0.62011  0.85082  1.0000 -0.029607031
C   C23       1.0  0.03900  0.64272  0.29933  1.0000 -0.1001493468
C   C24       1.0  0.46100  0.64272  0.79933  1.0000 -0.1001493468
C   C25       1.0  0.02540  0.70383  0.29150  1.0000 -0.149971301
C   C26       1.0  0.47460  0.70383  0.79150  1.0000 -0.149971301
C   C27       1.0  0.06330  0.55411  0.36093  1.0000 0.553562864
C   C28       1.0  0.43670  0.55411  0.86093  1.0000 0.553562864
C   C29       1.0  0.03740  0.17993  0.43235  1.0000 0.5885146925
C   C30       1.0  0.46260  0.17993  0.93235  1.0000 0.5885146925
C   C31       1.0  0.09400  0.17999  0.48381  1.0000 -0.029607031
C   C32       1.0  0.40600  0.17999  0.98381  1.0000 -0.029607031
C   C33       1.0  0.11650  0.12651  0.50895  1.0000 -0.1001493468
C   C34       1.0  0.38350  0.12651  0.00895  1.0000 -0.1001493468
C   C35       1.0  0.16770  0.12630  0.55584  1.0000 -0.149971301
C   C36       1.0  0.33230  0.12630  0.05584  1.0000 -0.1448170847
C   C37       1.0  0.19970  0.17999  0.57819  1.0000 0.0750790083
C   C38       1.0  0.30030  0.17999  0.07819  1.0000 0.0750790083
C   C39       1.0  0.17790  0.23331  0.55213  1.0000 -0.149971301
C   C40       1.0  0.32210  0.23331  0.05213  1.0000 -0.149971301
C   C41       1.0  0.12420  0.23288  0.50581  1.0000 -0.1001493468
C   C42       1.0  0.37580  0.23288  0.00581  1.0000 -0.1001493468
C   C43       1.0  0.25750  0.17905  0.62802  1.0000 0.0699706036
C   C44       1.0  0.24250  0.17905  0.12802  1.0000 0.0699706036
C   C45       1.0  0.31790  0.13102  0.63725  1.0000 -0.1562584422
C   C46       1.0  0.18210  0.13102  0.13725  1.0000 -0.1562584422
C   C47       1.0  0.37210  0.12996  0.68333  1.0000 -0.1072214234
C   C48       1.0  0.12790  0.12996  0.18333  1.0000 -0.1072214234
C   C49       1.0  0.36720  0.17538  0.72130  1.0000 -0.029607031
C   C50       1.0  0.13280  0.17538  0.22130  1.0000 -0.029607031
C   C51       1.0  0.30710  0.22297  0.71263  1.0000 -0.0896805053
C   C52       1.0  0.19290  0.22297  0.21263  1.0000 -0.0896805053
C   C53       1.0  0.25210  0.22473  0.66616  1.0000 -0.149971301
C   C54       1.0  0.24790  0.22473  0.16616  1.0000 -0.149971301
C   C55       1.0  0.42470  0.17267  0.77161  1.0000 0.5885146925
C   C56       1.0  0.07530  0.17267  0.27161  1.0000 0.5885146925
C   C57       1.0  0.81820  0.19070  0.34144  1.0000 0.5730308735
C   C58       1.0  0.68180  0.19070  0.84144  1.0000 0.5730308735
C   C59       1.0  0.72280  0.21488  0.34848  1.0000 -0.029607031
C   C60       1.0  0.77720  0.21488  0.84848  1.0000 -0.029607031
C   C61       1.0  0.65380  0.17993  0.37154  1.0000 -0.1001493468
C   C62       1.0  0.84620  0.17993  0.87154  1.0000 -0.1001493468
C   C63       1.0  0.56610  0.20266  0.37650  1.0000 -0.149971301
C   C64       1.0  0.93390  0.20266  0.87650  1.0000 -0.149971301
C   C65       1.0  0.54524  0.26042  0.35957  1.0000 0.0699706036
C   C66       1.0  0.95476  0.26042  0.85957  1.0000 0.0699706036
C   C67       1.0  0.61510  0.29543  0.33676  1.0000 -0.149971301
C   C68       1.0  0.88490  0.29543  0.83676  1.0000 -0.149971301
C   C69       1.0  0.70290  0.27197  0.33194  1.0000 -0.0843369744
C   C70       1.0  0.79710  0.27197  0.83194  1.0000 -0.0843369744
C   C71       1.0  0.44980  0.28454  0.36356  1.0000 0.0699706036
C   C72       1.0  0.05020  0.28454  0.86356  1.0000 0.0699706036
C   C73       1.0  0.37480  0.24741  0.36072  1.0000 -0.149971301
C   C74       1.0  0.12520  0.24741  0.86072  1.0000 -0.149971301
C   C75       1.0  0.28520  0.26872  0.36117  1.0000 -0.0843369744
C   C76       1.0  0.21480  0.26872  0.86117  1.0000 -0.0843369744
C   C77       1.0  0.27120  0.33038  0.36278  1.0000 -0.029607031
C   C78       1.0  0.22880  0.33038  0.86278  1.0000 -0.029607031
C   C79       1.0  0.34560  0.36821  0.36572  1.0000 -0.1001493468
C   C80       1.0  0.15440  0.36821  0.86572  1.0000 -0.1001493468
C   C81       1.0  0.43430  0.34598  0.36710  1.0000 -0.149971301
C   C82       1.0  0.06570  0.34598  0.86710  1.0000 -0.149971301
C   C83       1.0  0.17580  0.35455  0.36036  1.0000 0.5730308735
C   C84       1.0  0.32420  0.35455  0.86036  1.0000 0.5730308735
C   C85       1.0  0.96510  0.35947  0.25135  1.0000 0.5977463716
C   C86       1.0  0.53490  0.35947  0.75135  1.0000 0.5977463716
C   C87       1.0  0.90980  0.36135  0.20022  1.0000 -0.029607031
C   C88       1.0  0.59020  0.36135  0.70022  1.0000 -0.029607031
C   C89       1.0  0.85590  0.31244  0.18573  1.0000 -0.1001493468
C   C90       1.0  0.64410  0.31244  0.68573  1.0000 -0.1001493468
C   C91       1.0  0.80220  0.31524  0.13912  1.0000 -0.149971301
C   C92       1.0  0.69780  0.31524  0.63912  1.0000 -0.149971301
C   C93       1.0  0.80280  0.36585  0.10639  1.0000 0.0699706036
C   C94       1.0  0.69720  0.36585  0.60639  1.0000 0.0699706036
C   C95       1.0  0.85790  0.41361  0.12113  1.0000 -0.149971301
C   C96       1.0  0.64210  0.41361  0.62113  1.0000 -0.149971301
C   C97       1.0  0.90960  0.41213  0.16751  1.0000 -0.1001493468
C   C98       1.0  0.59040  0.41213  0.66751  1.0000 -0.1001493468
C   C99       1.0  0.74750  0.36813  0.05621  1.0000 0.0699706036
C   C100      1.0  0.75250  0.36813  0.55621  1.0000 0.0699706036
C   C101      1.0  0.73160  0.31721  0.02461  1.0000 -0.1562584422
C   C102      1.0  0.76840  0.31721  0.52461  1.0000 -0.1562584422
C   C103      1.0  0.68110  0.31977  0.97701  1.0000 -0.0896805053
C   C104      1.0  0.81890  0.31977  0.47701  1.0000 -0.0896805053
C   C105      1.0  0.64110  0.37439  0.96100  1.0000 -0.029607031
C   C106      1.0  0.85890  0.37439  0.46100  1.0000 -0.029607031
C   C107      1.0  0.65490  0.42453  0.99241  1.0000 -0.1072214234
C   C108      1.0  0.84510  0.42453  0.49241  1.0000 -0.1072214234
C   C109      1.0  0.70720  0.42208  0.03917  1.0000 -0.1562584422
C   C110      1.0  0.79280  0.42208  0.53917  1.0000 -0.1562584422
C   C111      1.0  0.58512  0.37653  0.90993  1.0000 0.5846224272
C   C112      1.0  0.91488  0.37653  0.40993  1.0000 0.5846224272
C   C113      1.0  0.06170  0.49399  0.69009  1.0000 0.5605166995
C   C114      1.0  0.43830  0.49399  0.19009  1.0000 0.5605166995
C   C115      1.0  0.04070  0.42810  0.68285  1.0000 -0.0223939667
C   C116      1.0  0.45930  0.42810  0.18285  1.0000 -0.0223939667
C   C117      1.0  0.98600  0.40892  0.64082  1.0000 -0.1001493468
C   C118      1.0  0.51400  0.40892  0.14082  1.0000 -0.1001493468
C   C119      1.0  0.96440  0.34942  0.63534  1.0000 -0.149971301
C   C120      1.0  0.53560  0.34942  0.13534  1.0000 -0.149971301
C   C121      1.0  0.99670  0.30694  0.67192  1.0000 0.0699706036
C   C122      1.0  0.50330  0.30694  0.17192  1.0000 0.0699706036
C   C123      1.0  0.05060  0.32674  0.71524  1.0000 -0.1562584422
C   C124      1.0  0.44940  0.32674  0.21524  1.0000 -0.1562584422
C   C125      1.0  0.07320  0.38709  0.72088  1.0000 -0.1072214234
C   C126      1.0  0.42680  0.38709  0.22088  1.0000 -0.1072214234
C   C127      1.0  0.97530  0.24238  0.66523  1.0000 0.0699706036
C   C128      1.0  0.52470  0.24238  0.16523  1.0000 0.0699706036
C   C129      1.0  0.95630  0.21928  0.61371  1.0000 -0.149971301
C   C130      1.0  0.54370  0.21928  0.11371  1.0000 -0.149971301
C   C131      1.0  0.94020  0.15933  0.60607  1.0000 -0.1001493468
C   C132      1.0  0.55980  0.15933  0.10607  1.0000 -0.1001493468
C   C133      1.0  0.94570  0.12011  0.64918  1.0000 -0.029607031
C   C134      1.0  0.55430  0.12011  0.14918  1.0000 -0.029607031
C   C135      1.0  0.96100  0.14272  0.70067  1.0000 -0.1001493468
C   C136      1.0  0.53900  0.14272  0.20067  1.0000 -0.1001493468
C   C137      1.0  0.97460  0.20383  0.70850  1.0000 -0.149971301
C   C138      1.0  0.52540  0.20383  0.20850  1.0000 -0.149971301
C   C139      1.0  0.93670  0.05411  0.63907  1.0000 0.553562864
C   C140      1.0  0.56330  0.05411  0.13907  1.0000 0.553562864
C   C141      1.0  0.96260  0.67993  0.56765  1.0000 0.5885146925
C   C142      1.0  0.53740  0.67993  0.06765  1.0000 0.5885146925
C   C143      1.0  0.90600  0.67999  0.51619  1.0000 -0.029607031
C   C144      1.0  0.59400  0.67999  0.01619  1.0000 -0.029607031
C   C145      1.0  0.88350  0.62651  0.49105  1.0000 -0.1001493468
C   C146      1.0  0.61650  0.62651  0.99105  1.0000 -0.1001493468
C   C147      1.0  0.83230  0.62630  0.44416  1.0000 -0.1448170847
C   C148      1.0  0.66770  0.62630  0.94416  1.0000 -0.1448170847
C   C149      1.0  0.80030  0.67999  0.42181  1.0000 0.0699706036
C   C150      1.0  0.69970  0.67999  0.92181  1.0000 0.0699706036
C   C151      1.0  0.82210  0.73331  0.44787  1.0000 -0.149971301
C   C152      1.0  0.67790  0.73331  0.94787  1.0000 -0.149971301
C   C153      1.0  0.87580  0.73288  0.49419  1.0000 -0.1001493468
C   C154      1.0  0.62420  0.73288  0.99419  1.0000 -0.1001493468
C   C155      1.0  0.74250  0.67905  0.37198  1.0000 0.0699706036
C   C156      1.0  0.75750  0.67905  0.87198  1.0000 0.0699706036
C   C157      1.0  0.68210  0.63102  0.36275  1.0000 -0.1562584422
C   C158      1.0  0.81790  0.63102  0.86275  1.0000 -0.1562584422
C   C159      1.0  0.62790  0.62996  0.31667  1.0000 -0.1072214234
C   C160      1.0  0.87210  0.62996  0.81667  1.0000 -0.1072214234
C   C161      1.0  0.63280  0.67538  0.27870  1.0000 -0.029607031
C   C162      1.0  0.86720  0.67538  0.77870  1.0000 -0.029607031
C   C163      1.0  0.69290  0.72297  0.28737  1.0000 -0.0896805053
C   C164      1.0  0.80710  0.72297  0.78737  1.0000 -0.0896805053
C   C165      1.0  0.74790  0.72473  0.33384  1.0000 -0.149971301
C   C166      1.0  0.75210  0.72473  0.83384  1.0000 -0.149971301
C   C167      1.0  0.57530  0.67267  0.22839  1.0000 0.5885146925
C   C168      1.0  0.92470  0.67267  0.72839  1.0000 0.5885146925
C   C169      1.0  0.18180  0.69070  0.65856  1.0000 0.5730308735
C   C170      1.0  0.31820  0.69070  0.15856  1.0000 0.5730308735
C   C171      1.0  0.27720  0.71488  0.65152  1.0000 -0.029607031
C   C172      1.0  0.22280  0.71488  0.15152  1.0000 -0.029607031
C   C173      1.0  0.34620  0.67993  0.62846  1.0000 -0.1001493468
C   C174      1.0  0.15380  0.67993  0.12846  1.0000 -0.1001493468
C   C175      1.0  0.43390  0.70266  0.62350  1.0000 -0.1562584422
C   C176      1.0  0.06610  0.70266  0.12350  1.0000 -0.149971301
C   C177      1.0  0.45476  0.76042  0.64043  1.0000 0.0699706036
C   C178      1.0  0.04524  0.76042  0.14043  1.0000 0.0699706036
C   C179      1.0  0.38490  0.79543  0.66324  1.0000 -0.149971301
C   C180      1.0  0.11510  0.79543  0.16324  1.0000 -0.149971301
C   C181      1.0  0.29710  0.77197  0.66806  1.0000 -0.0843369744
C   C182      1.0  0.20290  0.77197  0.16806  1.0000 -0.0843369744
C   C183      1.0  0.55020  0.78454  0.63644  1.0000 0.0699706036
C   C184      1.0  0.94980  0.78454  0.13644  1.0000 0.0699706036
C   C185      1.0  0.62520  0.74741  0.63928  1.0000 -0.149971301
C   C186      1.0  0.87480  0.74741  0.13928  1.0000 -0.149971301
C   C187      1.0  0.71480  0.76872  0.63883  1.0000 -0.0843369744
C   C188      1.0  0.78520  0.76872  0.13883  1.0000 -0.0843369744
C   C189      1.0  0.72880  0.83038  0.63722  1.0000 -0.029607031
C   C190      1.0  0.77120  0.83038  0.13722  1.0000 -0.029607031
C   C191      1.0  0.65440  0.86821  0.63428  1.0000 -0.1001493468
C   C192      1.0  0.84560  0.86821  0.13428  1.0000 -0.1001493468
C   C193      1.0  0.56570  0.84598  0.63290  1.0000 -0.149971301
C   C194      1.0  0.93430  0.84598  0.13290  1.0000 -0.149971301
C   C195      1.0  0.82420  0.85455  0.63964  1.0000 0.5730308735
C   C196      1.0  0.67580  0.85455  0.13964  1.0000 0.5730308735
C   C197      1.0  0.03490  0.85947  0.74865  1.0000 0.5977463716
C   C198      1.0  0.46510  0.85947  0.24865  1.0000 0.5977463716
C   C199      1.0  0.09020  0.86135  0.79978  1.0000 -0.029607031
C   C200      1.0  0.40980  0.86135  0.29978  1.0000 -0.029607031
C   C201      1.0  0.14410  0.81244  0.81427  1.0000 -0.1001493468
C   C202      1.0  0.35590  0.81244  0.31427  1.0000 -0.1001493468
C   C203      1.0  0.19780  0.81524  0.86088  1.0000 -0.149971301
C   C204      1.0  0.30220  0.81524  0.36088  1.0000 -0.149971301
C   C205      1.0  0.19720  0.86585  0.89361  1.0000 0.0699706036
C   C206      1.0  0.30280  0.86585  0.39361  1.0000 0.0699706036
C   C207      1.0  0.14210  0.91361  0.87887  1.0000 -0.149971301
C   C208      1.0  0.35790  0.91361  0.37887  1.0000 -0.149971301
C   C209      1.0  0.09040  0.91213  0.83249  1.0000 -0.1001493468
C   C210      1.0  0.40960  0.91213  0.33249  1.0000 -0.1001493468
C   C211      1.0  0.25250  0.86813  0.94379  1.0000 0.0699706036
C   C212      1.0  0.24750  0.86813  0.44379  1.0000 0.0699706036
C   C213      1.0  0.26840  0.81721  0.97539  1.0000 -0.1562584422
C   C214      1.0  0.23160  0.81721  0.47539  1.0000 -0.149971301
C   C215      1.0  0.31890  0.81977  0.02299  1.0000 -0.0896805053
C   C216      1.0  0.18110  0.81977  0.52299  1.0000 -0.0896805053
C   C217      1.0  0.35890  0.87439  0.03900  1.0000 -0.029607031
C   C218      1.0  0.14110  0.87439  0.53900  1.0000 -0.029607031
C   C219      1.0  0.34510  0.92453  0.00759  1.0000 -0.1072214234
C   C220      1.0  0.15490  0.92453  0.50759  1.0000 -0.1072214234
C   C221      1.0  0.29280  0.92208  0.96083  1.0000 -0.1562584422
C   C222      1.0  0.20720  0.92208  0.46083  1.0000 -0.1562584422
C   C223      1.0  0.41488  0.87653  0.09007  1.0000 0.5846224272
C   C224      1.0  0.08512  0.87653  0.59007  1.0000 0.5846224272
C   C225      1.0  0.61960  0.90180  0.00151  1.0000 -0.307841473
C   C226      1.0  0.60760  0.00550  0.96980  1.0000 -0.2939696132
C   C227      1.0  0.38040  0.40180  0.99849  1.0000 -0.307841473
C   C228      1.0  0.39240  0.50550  0.03020  1.0000 -0.2939696132
C   C229      1.0  0.11960  0.40180  0.49849  1.0000 -0.307841473
C   C230      1.0  0.10760  0.50550  0.53020  1.0000 -0.2939696132
C   C231      1.0  0.88040  0.90180  0.50151  1.0000 -0.307841473
C   C232      1.0  0.89240  0.00550  0.46980  1.0000 -0.2939696132
C   C233      1.0  0.29560  0.63180  0.29097  1.0000 -0.307841473
C   C234      1.0  0.33020  0.54550  0.34934  1.0000 -0.2939696132
C   C235      1.0  0.70440  0.13180  0.70903  1.0000 -0.307841473
C   C236      1.0  0.66980  0.04550  0.65066  1.0000 -0.2939696132
C   C237      1.0  0.79560  0.13180  0.20903  1.0000 -0.307841473
C   C238      1.0  0.83020  0.04550  0.15066  1.0000 -0.2939696132
C   C239      1.0  0.20440  0.63180  0.79097  1.0000 -0.307841473
C   C240      1.0  0.16980  0.54550  0.84934  1.0000 -0.2939696132
N   N1        1.0  0.64140  0.96493  0.01243  1.0000 -0.1001493468
N   N2        1.0  0.35860  0.46493  0.98757  1.0000 -0.1001493468
N   N3        1.0  0.14140  0.46493  0.48757  1.0000 -0.1001493468
N   N4        1.0  0.85860  0.96493  0.51243  1.0000 -0.1001493468
N   N5        1.0  0.36470  0.59180  0.31304  1.0000 -0.0896805053
N   N6        1.0  0.63530  0.09180  0.68696  1.0000 -0.0896805053
N   N7        1.0  0.86470  0.09180  0.18696  1.0000 -0.0896805053
N   N8        1.0  0.13530  0.59180  0.81304  1.0000 -0.0896805053
O   O1        1.0  0.96585  0.02673  0.34868  1.0000 -0.5588312156
O   O2        1.0  0.53415  0.02673  0.84868  1.0000 -0.5588312156
O   O3        1.0  0.89868  0.01110  0.26853  1.0000 -0.5680800981
O   O4        1.0  0.60132  0.01110  0.76853  1.0000 -0.5680800981
O   O5        1.0  0.09110  0.53601  0.40511  1.0000 -0.5680800981
O   O6        1.0  0.40890  0.53601  0.90511  1.0000 -0.5680800981
O   O7        1.0  0.04154  0.52030  0.32165  1.0000 -0.540515503
O   O8        1.0  0.45846  0.52030  0.82165  1.0000 -0.540515503
O   O9        1.0  0.03112  0.12985  0.40850  1.0000 -0.5506488054
O   O10       1.0  0.46888  0.12985  0.90850  1.0000 -0.5506488054
O   O11       1.0  0.00190  0.22784  0.41798  1.0000 -0.5506488054
O   O12       1.0  0.49810  0.22784  0.91798  1.0000 -0.5506488054
O   O13       1.0  0.48304  0.13025  0.77405  1.0000 -0.5680800981
O   O14       1.0  0.01696  0.13025  0.27405  1.0000 -0.5680800981
O   O15       1.0  0.41125  0.21039  0.80779  1.0000 -0.5588312156
O   O16       1.0  0.08875  0.21039  0.30779  1.0000 -0.5588312156
O   O17       1.0  0.83180  0.13659  0.35620  1.0000 -0.5506488054
O   O18       1.0  0.66820  0.13659  0.85620  1.0000 -0.5506488054
O   O19       1.0  0.87748  0.22257  0.31941  1.0000 -0.5680800981
O   O20       1.0  0.62252  0.22257  0.81941  1.0000 -0.5680800981
O   O21       1.0  0.11050  0.32003  0.37083  1.0000 -0.5680800981
O   O22       1.0  0.38950  0.32003  0.87083  1.0000 -0.5680800981
O   O23       1.0  0.16651  0.40893  0.34851  1.0000 -0.5506488054
O   O24       1.0  0.33349  0.40893  0.84851  1.0000 -0.5506488054
O   O25       1.0  0.99007  0.30991  0.26881  1.0000 -0.540515503
O   O26       1.0  0.50993  0.30991  0.76881  1.0000 -0.540515503
O   O27       1.0  0.98094  0.40990  0.27230  1.0000 -0.540515503
O   O28       1.0  0.51906  0.40990  0.77230  1.0000 -0.540515503
O   O29       1.0  0.59235  0.33425  0.87745  1.0000 -0.5588312156
O   O30       1.0  0.90765  0.33425  0.37745  1.0000 -0.5588312156
O   O31       1.0  0.53688  0.42298  0.90372  1.0000 -0.5588312156
O   O32       1.0  0.96312  0.42298  0.40372  1.0000 -0.5588312156
O   O33       1.0  0.03415  0.52673  0.65132  1.0000 -0.5588312156
O   O34       1.0  0.46585  0.52673  0.15132  1.0000 -0.5588312156
O   O35       1.0  0.10132  0.51110  0.73147  1.0000 -0.5680800981
O   O36       1.0  0.39868  0.51110  0.23147  1.0000 -0.5680800981
O   O37       1.0  0.90890  0.03601  0.59489  1.0000 -0.5680800981
O   O38       1.0  0.59110  0.03601  0.09489  1.0000 -0.5680800981
O   O39       1.0  0.95846  0.02030  0.67835  1.0000 -0.540515503
O   O40       1.0  0.54154  0.02030  0.17835  1.0000 -0.540515503
O   O41       1.0  0.96888  0.62985  0.59150  1.0000 -0.5506488054
O   O42       1.0  0.53112  0.62985  0.09150  1.0000 -0.5506488054
O   O43       1.0  0.99810  0.72784  0.58202  1.0000 -0.5506488054
O   O44       1.0  0.50190  0.72784  0.08202  1.0000 -0.5506488054
O   O45       1.0  0.51696  0.63025  0.22595  1.0000 -0.5680800981
O   O46       1.0  0.98304  0.63025  0.72595  1.0000 -0.5680800981
O   O47       1.0  0.58875  0.71039  0.19221  1.0000 -0.5588312156
O   O48       1.0  0.91125  0.71039  0.69221  1.0000 -0.5588312156
O   O49       1.0  0.16820  0.63659  0.64380  1.0000 -0.5506488054
O   O50       1.0  0.33180  0.63659  0.14380  1.0000 -0.5506488054
O   O51       1.0  0.12252  0.72257  0.68059  1.0000 -0.5680800981
O   O52       1.0  0.37748  0.72257  0.18059  1.0000 -0.5680800981
O   O53       1.0  0.88950  0.82003  0.62917  1.0000 -0.5680800981
O   O54       1.0  0.61050  0.82003  0.12917  1.0000 -0.5680800981
O   O55       1.0  0.83349  0.90893  0.65149  1.0000 -0.5506488054
O   O56       1.0  0.66651  0.90893  0.15149  1.0000 -0.5506488054
O   O57       1.0  0.00993  0.80991  0.73119  1.0000 -0.540515503
O   O58       1.0  0.49007  0.80991  0.23119  1.0000 -0.540515503
O   O59       1.0  0.01906  0.90990  0.72770  1.0000 -0.540515503
O   O60       1.0  0.48094  0.90990  0.22770  1.0000 -0.540515503
O   O61       1.0  0.40765  0.83425  0.12255  1.0000 -0.5588312156
O   O62       1.0  0.09235  0.83425  0.62255  1.0000 -0.5588312156
O   O63       1.0  0.46312  0.92298  0.09628  1.0000 -0.5588312156
O   O64       1.0  0.03688  0.92298  0.59628  1.0000 -0.5588312156
