# DDEC6 charges by PACMAN v1.1 (https://github.com/mtap-research/PACMAN-charge/)
data_2010[Cd][nuc]3[ION]1
_chemical_formula_sum              "Cd4 H144 C192 N48 Cl4 O16"
_cell_length_a       15.826
_cell_length_b       15.826
_cell_length_c       21.639
_cell_angle_alpha    90
_cell_angle_beta     90
_cell_angle_gamma    90

_symmetry_space_group_name_H-M    "P 1"
_symmetry_Int_Tables_number       1

loop_
  _symmetry_equiv_pos_as_xyz
  'x, y, z'

loop_
  _atom_site_type_symbol
  _atom_site_label
  _atom_site_symmetry_multiplicity
  _atom_site_fract_x
  _atom_site_fract_y
  _atom_site_fract_z
  _atom_site_occupancy
  _atom_site_charge
Cd  Cd1       1.0  0.94197  0.05803  0.75000  1.0000 0.6415914918
Cd  Cd2       1.0  0.05803  0.94197  0.25000  1.0000 0.6415914918
Cd  Cd3       1.0  0.44197  0.44197  0.50000  1.0000 0.6415914918
Cd  Cd4       1.0  0.55803  0.55803  0.00000  1.0000 0.6415914918
H   H1        1.0  0.46360  0.38890  0.65080  1.0000 0.0995837453
H   H2        1.0  0.53640  0.61110  0.15080  1.0000 0.0995837453
H   H3        1.0  0.11110  0.96360  0.40080  1.0000 0.0995837453
H   H4        1.0  0.88890  0.03640  0.90080  1.0000 0.0995837453
H   H5        1.0  0.03640  0.88890  0.09920  1.0000 0.0995837453
H   H6        1.0  0.96360  0.11110  0.59920  1.0000 0.0995837453
H   H7        1.0  0.38890  0.46360  0.34920  1.0000 0.0995837453
H   H8        1.0  0.61110  0.53640  0.84920  1.0000 0.0995837453
H   H9        1.0  0.41630  0.28270  0.71440  1.0000 0.1281647791
H   H10       1.0  0.58370  0.71730  0.21440  1.0000 0.1281647791
H   H11       1.0  0.21730  0.91630  0.46440  1.0000 0.1281647791
H   H12       1.0  0.78270  0.08370  0.96440  1.0000 0.1281647791
H   H13       1.0  0.08370  0.78270  0.03560  1.0000 0.1281647791
H   H14       1.0  0.91630  0.21730  0.53560  1.0000 0.1281647791
H   H15       1.0  0.28270  0.41630  0.28560  1.0000 0.1281647791
H   H16       1.0  0.71730  0.58370  0.78560  1.0000 0.1281647791
H   H17       1.0  0.21340  0.25720  0.60360  1.0000 0.1281647791
H   H18       1.0  0.78660  0.74280  0.10360  1.0000 0.1281647791
H   H19       1.0  0.24280  0.71340  0.35360  1.0000 0.1281647791
H   H20       1.0  0.75720  0.28660  0.85360  1.0000 0.1281647791
H   H21       1.0  0.28660  0.75720  0.14640  1.0000 0.1281647791
H   H22       1.0  0.71340  0.24280  0.64640  1.0000 0.1281647791
H   H23       1.0  0.25720  0.21340  0.39640  1.0000 0.1281647791
H   H24       1.0  0.74280  0.78660  0.89640  1.0000 0.1281647791
H   H25       1.0  0.27540  0.35780  0.53840  1.0000 0.0894099685
H   H26       1.0  0.72460  0.64220  0.03840  1.0000 0.0894099685
H   H27       1.0  0.14220  0.77540  0.28840  1.0000 0.0894099685
H   H28       1.0  0.85780  0.22460  0.78840  1.0000 0.0894099685
H   H29       1.0  0.22460  0.85780  0.21160  1.0000 0.0894099685
H   H30       1.0  0.77540  0.14220  0.71160  1.0000 0.0894099685
H   H31       1.0  0.35780  0.27540  0.46160  1.0000 0.0894099685
H   H32       1.0  0.64220  0.72460  0.96160  1.0000 0.0894099685
H   H33       1.0  0.34810  0.20400  0.78100  1.0000 0.0995837453
H   H34       1.0  0.65190  0.79600  0.28100  1.0000 0.0995837453
H   H35       1.0  0.29600  0.84810  0.53100  1.0000 0.0995837453
H   H36       1.0  0.70400  0.15190  0.03100  1.0000 0.0995837453
H   H37       1.0  0.15190  0.70400  0.96900  1.0000 0.0995837453
H   H38       1.0  0.84810  0.29600  0.46900  1.0000 0.0995837453
H   H39       1.0  0.20400  0.34810  0.21900  1.0000 0.0995837453
H   H40       1.0  0.79600  0.65190  0.71900  1.0000 0.0995837453
H   H41       1.0  0.29560  0.09270  0.83580  1.0000 0.1097661327
H   H42       1.0  0.70440  0.90730  0.33580  1.0000 0.1097661327
H   H43       1.0  0.40730  0.79560  0.58580  1.0000 0.1097661327
H   H44       1.0  0.59270  0.20440  0.08580  1.0000 0.1097661327
H   H45       1.0  0.20440  0.59270  0.91420  1.0000 0.1097661327
H   H46       1.0  0.79560  0.40730  0.41420  1.0000 0.1097661327
H   H47       1.0  0.09270  0.29560  0.16420  1.0000 0.1097661327
H   H48       1.0  0.90730  0.70440  0.66420  1.0000 0.1097661327
H   H49       1.0  0.19680  0.99920  0.79420  1.0000 0.1097661327
H   H50       1.0  0.80320  0.00080  0.29420  1.0000 0.1097661327
H   H51       1.0  0.50080  0.69680  0.54420  1.0000 0.1097661327
H   H52       1.0  0.49920  0.30320  0.04420  1.0000 0.1097661327
H   H53       1.0  0.30320  0.49920  0.95580  1.0000 0.1097661327
H   H54       1.0  0.69680  0.50080  0.45580  1.0000 0.1097661327
H   H55       1.0  0.99920  0.19680  0.20580  1.0000 0.1097661327
H   H56       1.0  0.00080  0.80320  0.70580  1.0000 0.1097661327
H   H57       1.0  0.20220  0.13610  0.63510  1.0000 0.1097661327
H   H58       1.0  0.79780  0.86390  0.13510  1.0000 0.1097661327
H   H59       1.0  0.36390  0.70220  0.38510  1.0000 0.1097661327
H   H60       1.0  0.63610  0.29780  0.88510  1.0000 0.1097661327
H   H61       1.0  0.29780  0.63610  0.11490  1.0000 0.1097661327
H   H62       1.0  0.70220  0.36390  0.61490  1.0000 0.1097661327
H   H63       1.0  0.13610  0.20220  0.36490  1.0000 0.1097661327
H   H64       1.0  0.86390  0.79780  0.86490  1.0000 0.1097661327
H   H65       1.0  0.95360  0.88110  0.53930  1.0000 0.1097661327
H   H66       1.0  0.04640  0.11890  0.03930  1.0000 0.1097661327
H   H67       1.0  0.61890  0.45360  0.28930  1.0000 0.1097661327
H   H68       1.0  0.38110  0.54640  0.78930  1.0000 0.1097661327
H   H69       1.0  0.54640  0.38110  0.21070  1.0000 0.1097661327
H   H70       1.0  0.45360  0.61890  0.71070  1.0000 0.1097661327
H   H71       1.0  0.88110  0.95360  0.46070  1.0000 0.1097661327
H   H72       1.0  0.11890  0.04640  0.96070  1.0000 0.1097661327
H   H73       1.0  0.93490  0.76870  0.46970  1.0000 0.1097661327
H   H74       1.0  0.06510  0.23130  0.96970  1.0000 0.1097661327
H   H75       1.0  0.73130  0.43490  0.21970  1.0000 0.1097661327
H   H76       1.0  0.26870  0.56510  0.71970  1.0000 0.1097661327
H   H77       1.0  0.56510  0.26870  0.28030  1.0000 0.1097661327
H   H78       1.0  0.43490  0.73130  0.78030  1.0000 0.1097661327
H   H79       1.0  0.76870  0.93490  0.53030  1.0000 0.1097661327
H   H80       1.0  0.23130  0.06510  0.03030  1.0000 0.1097661327
H   H81       1.0  0.03760  0.66690  0.46100  1.0000 0.1097661327
H   H82       1.0  0.96240  0.33310  0.96100  1.0000 0.1097661327
H   H83       1.0  0.83310  0.53760  0.21100  1.0000 0.1097661327
H   H84       1.0  0.16690  0.46240  0.71100  1.0000 0.1097661327
H   H85       1.0  0.46240  0.16690  0.28900  1.0000 0.1097661327
H   H86       1.0  0.53760  0.83310  0.78900  1.0000 0.1097661327
H   H87       1.0  0.66690  0.03760  0.53900  1.0000 0.1097661327
H   H88       1.0  0.33310  0.96240  0.03900  1.0000 0.1097661327
H   H89       1.0  0.17490  0.77740  0.59450  1.0000 0.1097661327
H   H90       1.0  0.82510  0.22260  0.09450  1.0000 0.1097661327
H   H91       1.0  0.72260  0.67490  0.34450  1.0000 0.1097661327
H   H92       1.0  0.27740  0.32510  0.84450  1.0000 0.1097661327
H   H93       1.0  0.32510  0.27740  0.15550  1.0000 0.1097661327
H   H94       1.0  0.67490  0.72260  0.65550  1.0000 0.1097661327
H   H95       1.0  0.77740  0.17490  0.40550  1.0000 0.1097661327
H   H96       1.0  0.22260  0.82510  0.90550  1.0000 0.1097661327
H   H97       1.0  0.23370  0.65250  0.60800  1.0000 0.1362521524
H   H98       1.0  0.76630  0.34750  0.10800  1.0000 0.1362521524
H   H99       1.0  0.84750  0.73370  0.35800  1.0000 0.1362521524
H   H100      1.0  0.15250  0.26630  0.85800  1.0000 0.1362521524
H   H101      1.0  0.26630  0.15250  0.14200  1.0000 0.1362521524
H   H102      1.0  0.73370  0.84750  0.64200  1.0000 0.1362521524
H   H103      1.0  0.65250  0.23370  0.39200  1.0000 0.1362521524
H   H104      1.0  0.34750  0.76630  0.89200  1.0000 0.1362521524
H   H105      1.0  0.33780  0.55550  0.59370  1.0000 0.0995837453
H   H106      1.0  0.66220  0.44450  0.09370  1.0000 0.0995837453
H   H107      1.0  0.94450  0.83780  0.34370  1.0000 0.0995837453
H   H108      1.0  0.05550  0.16220  0.84370  1.0000 0.0995837453
H   H109      1.0  0.16220  0.05550  0.15630  1.0000 0.0995837453
H   H110      1.0  0.83780  0.94450  0.65630  1.0000 0.0995837453
H   H111      1.0  0.55550  0.33780  0.40630  1.0000 0.0995837453
H   H112      1.0  0.44450  0.66220  0.90630  1.0000 0.0995837453
H   H113      1.0  0.26240  0.50980  0.42530  1.0000 0.0894099685
H   H114      1.0  0.73760  0.49020  0.92530  1.0000 0.0894099685
H   H115      1.0  0.99020  0.76240  0.17530  1.0000 0.0894099685
H   H116      1.0  0.00980  0.23760  0.67530  1.0000 0.0894099685
H   H117      1.0  0.23760  0.00980  0.32470  1.0000 0.0894099685
H   H118      1.0  0.76240  0.99020  0.82470  1.0000 0.0894099685
H   H119      1.0  0.50980  0.26240  0.57470  1.0000 0.0894099685
H   H120      1.0  0.49020  0.73760  0.07470  1.0000 0.0894099685
H   H121      1.0  0.15340  0.60560  0.43510  1.0000 0.1225470329
H   H122      1.0  0.84660  0.39440  0.93510  1.0000 0.1225470329
H   H123      1.0  0.89440  0.65340  0.18510  1.0000 0.1225470329
H   H124      1.0  0.10560  0.34660  0.68510  1.0000 0.1225470329
H   H125      1.0  0.34660  0.10560  0.31490  1.0000 0.1225470329
H   H126      1.0  0.65340  0.89440  0.81490  1.0000 0.1225470329
H   H127      1.0  0.60560  0.15340  0.56490  1.0000 0.1225470329
H   H128      1.0  0.39440  0.84660  0.06490  1.0000 0.1225470329
H   H129      1.0  0.25020  0.96930  0.59440  1.0000 0.2498573592
H   H130      1.0  0.74980  0.03070  0.09440  1.0000 0.2498573592
H   H131      1.0  0.53070  0.75020  0.34440  1.0000 0.2498573592
H   H132      1.0  0.46930  0.24980  0.84440  1.0000 0.2498573592
H   H133      1.0  0.24980  0.46930  0.15560  1.0000 0.2498573592
H   H134      1.0  0.75020  0.53070  0.65560  1.0000 0.2498573592
H   H135      1.0  0.96930  0.25020  0.40560  1.0000 0.2498573592
H   H136      1.0  0.03070  0.74980  0.90560  1.0000 0.2498573592
H   H137      1.0  0.26440  0.91620  0.65000  1.0000 0.2498573592
H   H138      1.0  0.73560  0.08380  0.15000  1.0000 0.2498573592
H   H139      1.0  0.58380  0.76440  0.40000  1.0000 0.2498573592
H   H140      1.0  0.41620  0.23560  0.90000  1.0000 0.2498573592
H   H141      1.0  0.23560  0.41620  0.10000  1.0000 0.2498573592
H   H142      1.0  0.76440  0.58380  0.60000  1.0000 0.2498573592
H   H143      1.0  0.91620  0.26440  0.35000  1.0000 0.2498573592
H   H144      1.0  0.08380  0.73560  0.85000  1.0000 0.2498573592
C   C1        1.0  0.41370  0.35940  0.63950  1.0000 0.0496146525
C   C2        1.0  0.58630  0.64060  0.13950  1.0000 0.0496146525
C   C3        1.0  0.14060  0.91370  0.38950  1.0000 0.0496146525
C   C4        1.0  0.85940  0.08630  0.88950  1.0000 0.0496146525
C   C5        1.0  0.08630  0.85940  0.11050  1.0000 0.0496146525
C   C6        1.0  0.91370  0.14060  0.61050  1.0000 0.0496146525
C   C7        1.0  0.35940  0.41370  0.36050  1.0000 0.0496146525
C   C8        1.0  0.64060  0.58630  0.86050  1.0000 0.0496146525
C   C9        1.0  0.38500  0.29650  0.67830  1.0000 -0.2115695545
C   C10       1.0  0.61500  0.70350  0.17830  1.0000 -0.2115695545
C   C11       1.0  0.20350  0.88500  0.42830  1.0000 -0.2115695545
C   C12       1.0  0.79650  0.11500  0.92830  1.0000 -0.2115695545
C   C13       1.0  0.11500  0.79650  0.07170  1.0000 -0.2115695545
C   C14       1.0  0.88500  0.20350  0.57170  1.0000 -0.2115695545
C   C15       1.0  0.29650  0.38500  0.32170  1.0000 -0.2115695545
C   C16       1.0  0.70350  0.61500  0.82170  1.0000 -0.2115695545
C   C17       1.0  0.31190  0.25370  0.66540  1.0000 0.1097661327
C   C18       1.0  0.68810  0.74630  0.16540  1.0000 0.1097661327
C   C19       1.0  0.24630  0.81190  0.41540  1.0000 0.1097661327
C   C20       1.0  0.75370  0.18810  0.91540  1.0000 0.1097661327
C   C21       1.0  0.18810  0.75370  0.08460  1.0000 0.1097661327
C   C22       1.0  0.81190  0.24630  0.58460  1.0000 0.1097661327
C   C23       1.0  0.25370  0.31190  0.33460  1.0000 0.1097661327
C   C24       1.0  0.74630  0.68810  0.83460  1.0000 0.1097661327
C   C25       1.0  0.26710  0.28030  0.61320  1.0000 -0.2214553779
C   C26       1.0  0.73290  0.71970  0.11320  1.0000 -0.2214553779
C   C27       1.0  0.21970  0.76710  0.36320  1.0000 -0.2214553779
C   C28       1.0  0.78030  0.23290  0.86320  1.0000 -0.2214553779
C   C29       1.0  0.23290  0.78030  0.13680  1.0000 -0.2214553779
C   C30       1.0  0.76710  0.21970  0.63680  1.0000 -0.2214553779
C   C31       1.0  0.28030  0.26710  0.38680  1.0000 -0.2214553779
C   C32       1.0  0.71970  0.73290  0.88680  1.0000 -0.2214553779
C   C33       1.0  0.30420  0.34250  0.57530  1.0000 0.0496146525
C   C34       1.0  0.69580  0.65750  0.07530  1.0000 0.0496146525
C   C35       1.0  0.15750  0.80420  0.32530  1.0000 0.0496146525
C   C36       1.0  0.84250  0.19580  0.82530  1.0000 0.0496146525
C   C37       1.0  0.19580  0.84250  0.17470  1.0000 0.0496146525
C   C38       1.0  0.80420  0.15750  0.67470  1.0000 0.0496146525
C   C39       1.0  0.34250  0.30420  0.42470  1.0000 0.0496146525
C   C40       1.0  0.65750  0.69580  0.92470  1.0000 0.0496146525
C   C41       1.0  0.28070  0.18050  0.70120  1.0000 0.0682316838
C   C42       1.0  0.71930  0.81950  0.20120  1.0000 0.0682316838
C   C43       1.0  0.31950  0.78070  0.45120  1.0000 0.0682316838
C   C44       1.0  0.68050  0.21930  0.95120  1.0000 0.0682316838
C   C45       1.0  0.21930  0.68050  0.04880  1.0000 0.0682316838
C   C46       1.0  0.78070  0.31950  0.54880  1.0000 0.0682316838
C   C47       1.0  0.18050  0.28070  0.29880  1.0000 0.0682316838
C   C48       1.0  0.81950  0.71930  0.79880  1.0000 0.0682316838
C   C49       1.0  0.30800  0.16710  0.76260  1.0000 -0.1516950138
C   C50       1.0  0.69200  0.83290  0.26260  1.0000 -0.1516950138
C   C51       1.0  0.33290  0.80800  0.51260  1.0000 -0.1516950138
C   C52       1.0  0.66710  0.19200  0.01260  1.0000 -0.1516950138
C   C53       1.0  0.19200  0.66710  0.98740  1.0000 -0.1516950138
C   C54       1.0  0.80800  0.33290  0.48740  1.0000 -0.1516950138
C   C55       1.0  0.16710  0.30800  0.23740  1.0000 -0.1516950138
C   C56       1.0  0.83290  0.69200  0.73740  1.0000 -0.1516950138
C   C57       1.0  0.27650  0.10120  0.79470  1.0000 -0.0796326374
C   C58       1.0  0.72350  0.89880  0.29470  1.0000 -0.0796326374
C   C59       1.0  0.39880  0.77650  0.54470  1.0000 -0.0796326374
C   C60       1.0  0.60120  0.22350  0.04470  1.0000 -0.0796326374
C   C61       1.0  0.22350  0.60120  0.95530  1.0000 -0.0796326374
C   C62       1.0  0.77650  0.39880  0.45530  1.0000 -0.0796326374
C   C63       1.0  0.10120  0.27650  0.20530  1.0000 -0.0796326374
C   C64       1.0  0.89880  0.72350  0.70530  1.0000 -0.0796326374
C   C65       1.0  0.21760  0.04540  0.77080  1.0000 -0.1566473011
C   C66       1.0  0.78240  0.95460  0.27080  1.0000 -0.1566473011
C   C67       1.0  0.45460  0.71760  0.52080  1.0000 -0.1566473011
C   C68       1.0  0.54540  0.28240  0.02080  1.0000 -0.1566473011
C   C69       1.0  0.28240  0.54540  0.97920  1.0000 -0.1566473011
C   C70       1.0  0.71760  0.45460  0.47920  1.0000 -0.1566473011
C   C71       1.0  0.04540  0.21760  0.22920  1.0000 -0.1566473011
C   C72       1.0  0.95460  0.78240  0.72920  1.0000 -0.1566473011
C   C73       1.0  0.19000  0.06070  0.70920  1.0000 0.0219558998
C   C74       1.0  0.81000  0.93930  0.20920  1.0000 0.0219558998
C   C75       1.0  0.43930  0.69000  0.45920  1.0000 0.0219558998
C   C76       1.0  0.56070  0.31000  0.95920  1.0000 0.0219558998
C   C77       1.0  0.31000  0.56070  0.04080  1.0000 0.0219558998
C   C78       1.0  0.69000  0.43930  0.54080  1.0000 0.0219558998
C   C79       1.0  0.06070  0.19000  0.29080  1.0000 0.0219558998
C   C80       1.0  0.93930  0.81000  0.79080  1.0000 0.0219558998
C   C81       1.0  0.22150  0.12690  0.67610  1.0000 -0.1996081018
C   C82       1.0  0.77850  0.87310  0.17610  1.0000 -0.1996081018
C   C83       1.0  0.37310  0.72150  0.42610  1.0000 -0.1996081018
C   C84       1.0  0.62690  0.27850  0.92610  1.0000 -0.1996081018
C   C85       1.0  0.27850  0.62690  0.07390  1.0000 -0.1996081018
C   C86       1.0  0.72150  0.37310  0.57390  1.0000 -0.1996081018
C   C87       1.0  0.12690  0.22150  0.32390  1.0000 -0.1996081018
C   C88       1.0  0.87310  0.77850  0.82390  1.0000 -0.1996081018
C   C89       1.0  0.12780  0.00370  0.67950  1.0000 0.1701555799
C   C90       1.0  0.87220  0.99630  0.17950  1.0000 0.1701555799
C   C91       1.0  0.49630  0.62780  0.42950  1.0000 0.1701555799
C   C92       1.0  0.50370  0.37220  0.92950  1.0000 0.1701555799
C   C93       1.0  0.37220  0.50370  0.07050  1.0000 0.1701555799
C   C94       1.0  0.62780  0.49630  0.57050  1.0000 0.1701555799
C   C95       1.0  0.00370  0.12780  0.32050  1.0000 0.1701555799
C   C96       1.0  0.99630  0.87220  0.82050  1.0000 0.1701555799
C   C97       1.0  0.07570  0.90910  0.61820  1.0000 0.1852910543
C   C98       1.0  0.92430  0.09090  0.11820  1.0000 0.1849715734
C   C99       1.0  0.59090  0.57570  0.36820  1.0000 0.1849715734
C   C100      1.0  0.40910  0.42430  0.86820  1.0000 0.1852910543
C   C101      1.0  0.42430  0.40910  0.13180  1.0000 0.1852910543
C   C102      1.0  0.57570  0.59090  0.63180  1.0000 0.1849715734
C   C103      1.0  0.90910  0.07570  0.38180  1.0000 0.1849715734
C   C104      1.0  0.09090  0.92430  0.88180  1.0000 0.1852910543
C   C105      1.0  0.06790  0.83850  0.57310  1.0000 0.0380618345
C   C106      1.0  0.93210  0.16150  0.07310  1.0000 0.0380618345
C   C107      1.0  0.66150  0.56790  0.32310  1.0000 0.0380618345
C   C108      1.0  0.33850  0.43210  0.82310  1.0000 0.0380618345
C   C109      1.0  0.43210  0.33850  0.17690  1.0000 0.0380618345
C   C110      1.0  0.56790  0.66150  0.67690  1.0000 0.0380618345
C   C111      1.0  0.83850  0.06790  0.42690  1.0000 0.0380618345
C   C112      1.0  0.16150  0.93210  0.92690  1.0000 0.0380618345
C   C113      1.0  0.99470  0.83750  0.53600  1.0000 -0.1566473011
C   C114      1.0  0.00530  0.16250  0.03600  1.0000 -0.1566473011
C   C115      1.0  0.66250  0.49470  0.28600  1.0000 -0.1566473011
C   C116      1.0  0.33750  0.50530  0.78600  1.0000 -0.1566473011
C   C117      1.0  0.50530  0.33750  0.21400  1.0000 -0.1566473011
C   C118      1.0  0.49470  0.66250  0.71400  1.0000 -0.1566473011
C   C119      1.0  0.83750  0.99470  0.46400  1.0000 -0.1566473011
C   C120      1.0  0.16250  0.00530  0.96400  1.0000 -0.1566473011
C   C121      1.0  0.98400  0.77150  0.49490  1.0000 -0.0934712192
C   C122      1.0  0.01600  0.22850  0.99490  1.0000 -0.0934712192
C   C123      1.0  0.72850  0.48400  0.24490  1.0000 -0.0934712192
C   C124      1.0  0.27150  0.51600  0.74490  1.0000 -0.0934712192
C   C125      1.0  0.51600  0.27150  0.25510  1.0000 -0.0934712192
C   C126      1.0  0.48400  0.72850  0.75510  1.0000 -0.0934712192
C   C127      1.0  0.77150  0.98400  0.50510  1.0000 -0.0934712192
C   C128      1.0  0.22850  0.01600  0.00510  1.0000 -0.0934712192
C   C129      1.0  0.04470  0.71040  0.49080  1.0000 -0.1516950138
C   C130      1.0  0.95530  0.28960  0.99080  1.0000 -0.1516950138
C   C131      1.0  0.78960  0.54470  0.24080  1.0000 -0.1516950138
C   C132      1.0  0.21040  0.45530  0.74080  1.0000 -0.1516950138
C   C133      1.0  0.45530  0.21040  0.25920  1.0000 -0.1516950138
C   C134      1.0  0.54470  0.78960  0.75920  1.0000 -0.1516950138
C   C135      1.0  0.71040  0.04470  0.50920  1.0000 -0.1516950138
C   C136      1.0  0.28960  0.95530  0.00920  1.0000 -0.1516950138
C   C137      1.0  0.11540  0.70830  0.52730  1.0000 0.0682316838
C   C138      1.0  0.88460  0.29170  0.02730  1.0000 0.0682316838
C   C139      1.0  0.79170  0.61540  0.27730  1.0000 0.0682316838
C   C140      1.0  0.20830  0.38460  0.77730  1.0000 0.0682316838
C   C141      1.0  0.38460  0.20830  0.22270  1.0000 0.0682316838
C   C142      1.0  0.61540  0.79170  0.72270  1.0000 0.0682316838
C   C143      1.0  0.70830  0.11540  0.47270  1.0000 0.0682316838
C   C144      1.0  0.29170  0.88460  0.97270  1.0000 0.0682316838
C   C145      1.0  0.12610  0.77570  0.56890  1.0000 -0.1868245782
C   C146      1.0  0.87390  0.22430  0.06890  1.0000 -0.1868245782
C   C147      1.0  0.72430  0.62610  0.31890  1.0000 -0.1868245782
C   C148      1.0  0.27570  0.37390  0.81890  1.0000 -0.1868245782
C   C149      1.0  0.37390  0.27570  0.18110  1.0000 -0.1868245782
C   C150      1.0  0.62610  0.72430  0.68110  1.0000 -0.1868245782
C   C151      1.0  0.77570  0.12610  0.43110  1.0000 -0.1868245782
C   C152      1.0  0.22430  0.87390  0.93110  1.0000 -0.1868245782
C   C153      1.0  0.18070  0.64200  0.52170  1.0000 0.1097661327
C   C154      1.0  0.81930  0.35800  0.02170  1.0000 0.1097661327
C   C155      1.0  0.85800  0.68070  0.27170  1.0000 0.1097661327
C   C156      1.0  0.14200  0.31930  0.77170  1.0000 0.1097661327
C   C157      1.0  0.31930  0.14200  0.22830  1.0000 0.1097661327
C   C158      1.0  0.68070  0.85800  0.72830  1.0000 0.1097661327
C   C159      1.0  0.64200  0.18070  0.47830  1.0000 0.1097661327
C   C160      1.0  0.35800  0.81930  0.97830  1.0000 0.1097661327
C   C161      1.0  0.23830  0.62420  0.56940  1.0000 -0.1868245782
C   C162      1.0  0.76170  0.37580  0.06940  1.0000 -0.1868245782
C   C163      1.0  0.87580  0.73830  0.31940  1.0000 -0.1868245782
C   C164      1.0  0.12420  0.26170  0.81940  1.0000 -0.1868245782
C   C165      1.0  0.26170  0.12420  0.18060  1.0000 -0.1868245782
C   C166      1.0  0.73830  0.87580  0.68060  1.0000 -0.1868245782
C   C167      1.0  0.62420  0.23830  0.43060  1.0000 -0.1868245782
C   C168      1.0  0.37580  0.76170  0.93060  1.0000 -0.1868245782
C   C169      1.0  0.30050  0.56650  0.56020  1.0000 0.0496146525
C   C170      1.0  0.69950  0.43350  0.06020  1.0000 0.0496146525
C   C171      1.0  0.93350  0.80050  0.31020  1.0000 0.0496146525
C   C172      1.0  0.06650  0.19950  0.81020  1.0000 0.0496146525
C   C173      1.0  0.19950  0.06650  0.18980  1.0000 0.0496146525
C   C174      1.0  0.80050  0.93350  0.68980  1.0000 0.0496146525
C   C175      1.0  0.56650  0.30050  0.43980  1.0000 0.0496146525
C   C176      1.0  0.43350  0.69950  0.93980  1.0000 0.0496146525
C   C177      1.0  0.25710  0.53980  0.46310  1.0000 0.0496146525
C   C178      1.0  0.74290  0.46020  0.96310  1.0000 0.0496146525
C   C179      1.0  0.96020  0.75710  0.21310  1.0000 0.0496146525
C   C180      1.0  0.03980  0.24290  0.71310  1.0000 0.0496146525
C   C181      1.0  0.24290  0.03980  0.28690  1.0000 0.0496146525
C   C182      1.0  0.75710  0.96020  0.78690  1.0000 0.0496146525
C   C183      1.0  0.53980  0.25710  0.53690  1.0000 0.0496146525
C   C184      1.0  0.46020  0.74290  0.03690  1.0000 0.0496146525
C   C185      1.0  0.19130  0.59740  0.46860  1.0000 -0.1996081018
C   C186      1.0  0.80870  0.40260  0.96860  1.0000 -0.1996081018
C   C187      1.0  0.90260  0.69130  0.21860  1.0000 -0.1996081018
C   C188      1.0  0.09740  0.30870  0.71860  1.0000 -0.1996081018
C   C189      1.0  0.30870  0.09740  0.28140  1.0000 -0.1996081018
C   C190      1.0  0.69130  0.90260  0.78140  1.0000 -0.1996081018
C   C191      1.0  0.59740  0.19130  0.53140  1.0000 -0.1996081018
C   C192      1.0  0.40260  0.80870  0.03140  1.0000 -0.1996081018
N   N1        1.0  0.37580  0.38080  0.58770  1.0000 -0.2214553779
N   N2        1.0  0.62420  0.61920  0.08770  1.0000 -0.2214553779
N   N3        1.0  0.11920  0.87580  0.33770  1.0000 -0.2214553779
N   N4        1.0  0.88080  0.12420  0.83770  1.0000 -0.2214553779
N   N5        1.0  0.12420  0.88080  0.16230  1.0000 -0.2214553779
N   N6        1.0  0.87580  0.11920  0.66230  1.0000 -0.2214553779
N   N7        1.0  0.38080  0.37580  0.41230  1.0000 -0.2214553779
N   N8        1.0  0.61920  0.62420  0.91230  1.0000 -0.2214553779
N   N9        1.0  0.04540  0.00620  0.68480  1.0000 -0.2357224499
N   N10       1.0  0.95460  0.99380  0.18480  1.0000 -0.2357224499
N   N11       1.0  0.49380  0.54540  0.43480  1.0000 -0.2357224499
N   N12       1.0  0.50620  0.45460  0.93480  1.0000 -0.2357224499
N   N13       1.0  0.45460  0.50620  0.06520  1.0000 -0.2357224499
N   N14       1.0  0.54540  0.49380  0.56520  1.0000 -0.2357224499
N   N15       1.0  0.00620  0.04540  0.31520  1.0000 -0.2357224499
N   N16       1.0  0.99380  0.95460  0.81520  1.0000 -0.2357224499
N   N17       1.0  0.01190  0.94520  0.64540  1.0000 -0.2734132981
N   N18       1.0  0.98810  0.05480  0.14540  1.0000 -0.2734132981
N   N19       1.0  0.55480  0.51190  0.39540  1.0000 -0.2734132981
N   N20       1.0  0.44520  0.48810  0.89540  1.0000 -0.2734132981
N   N21       1.0  0.48810  0.44520  0.10460  1.0000 -0.2734132981
N   N22       1.0  0.51190  0.55480  0.60460  1.0000 -0.2734132981
N   N23       1.0  0.94520  0.01190  0.35460  1.0000 -0.2734132981
N   N24       1.0  0.05480  0.98810  0.85460  1.0000 -0.2734132981
N   N25       1.0  0.14940  0.94400  0.63790  1.0000 0.0496146525
N   N26       1.0  0.85060  0.05600  0.13790  1.0000 0.0496146525
N   N27       1.0  0.55600  0.64940  0.38790  1.0000 0.0496146525
N   N28       1.0  0.44400  0.35060  0.88790  1.0000 0.0496146525
N   N29       1.0  0.35060  0.44400  0.11210  1.0000 0.0496146525
N   N30       1.0  0.64940  0.55600  0.61210  1.0000 0.0496146525
N   N31       1.0  0.94400  0.14940  0.36210  1.0000 0.0496146525
N   N32       1.0  0.05600  0.85060  0.86210  1.0000 0.0496146525
N   N33       1.0  0.23010  0.92510  0.61690  1.0000 -0.4945733858
N   N34       1.0  0.76990  0.07490  0.11690  1.0000 -0.4945733858
N   N35       1.0  0.57490  0.73010  0.36690  1.0000 -0.4945733858
N   N36       1.0  0.42510  0.26990  0.86690  1.0000 -0.4945733858
N   N37       1.0  0.26990  0.42510  0.13310  1.0000 -0.4945733858
N   N38       1.0  0.73010  0.57490  0.63310  1.0000 -0.4945733858
N   N39       1.0  0.92510  0.23010  0.38310  1.0000 -0.4945733858
N   N40       1.0  0.07490  0.76990  0.88310  1.0000 -0.4945733858
N   N41       1.0  0.31330  0.52390  0.50750  1.0000 -0.2451060837
N   N42       1.0  0.68670  0.47610  0.00750  1.0000 -0.2451060837
N   N43       1.0  0.97610  0.81330  0.25750  1.0000 -0.2451060837
N   N44       1.0  0.02390  0.18670  0.75750  1.0000 -0.2451060837
N   N45       1.0  0.18670  0.02390  0.24250  1.0000 -0.2451060837
N   N46       1.0  0.81330  0.97610  0.74250  1.0000 -0.2451060837
N   N47       1.0  0.52390  0.31330  0.49250  1.0000 -0.2451060837
N   N48       1.0  0.47610  0.68670  0.99250  1.0000 -0.2451060837
Cl  Cl1       1.0  0.76955  0.23045  0.25000  1.0000 0.937699678
Cl  Cl2       1.0  0.23045  0.76955  0.75000  1.0000 0.937699678
Cl  Cl3       1.0  0.73045  0.73045  0.50000  1.0000 0.937699678
Cl  Cl4       1.0  0.26955  0.26955  0.00000  1.0000 0.9340319062
O   O1        1.0  0.73680  0.26580  0.19770  1.0000 -0.4510747766
O   O2        1.0  0.73420  0.26320  0.30230  1.0000 -0.4510747766
O   O3        1.0  0.83940  0.22400  0.24740  1.0000 -0.1516950138
O   O4        1.0  0.77600  0.16060  0.25260  1.0000 -0.1516950138
O   O5        1.0  0.26320  0.73420  0.69770  1.0000 -0.4510747766
O   O6        1.0  0.26580  0.73680  0.80230  1.0000 -0.4510747766
O   O7        1.0  0.16060  0.77600  0.74740  1.0000 -0.1516950138
O   O8        1.0  0.22400  0.83940  0.75260  1.0000 -0.1516950138
O   O9        1.0  0.76580  0.76320  0.44770  1.0000 -0.4510747766
O   O10       1.0  0.76320  0.76580  0.55230  1.0000 -0.4510747766
O   O11       1.0  0.72400  0.66060  0.49740  1.0000 -0.1516950138
O   O12       1.0  0.66060  0.72400  0.50260  1.0000 -0.1516950138
O   O13       1.0  0.23420  0.23680  0.94770  1.0000 -0.4510747766
O   O14       1.0  0.23680  0.23420  0.05230  1.0000 -0.4510747766
O   O15       1.0  0.27600  0.33940  0.99740  1.0000 -0.1516950138
O   O16       1.0  0.33940  0.27600  0.00260  1.0000 -0.1566473011
