# DDEC6 charges by PACMAN v1.1 (https://github.com/mtap-research/PACMAN-charge/)
data_2010[Cd][nuc]3[ION]2
_chemical_formula_sum              "Cd4 H144 C192 N48 Cl4 O16"
_cell_length_a       15.937
_cell_length_b       15.937
_cell_length_c       21.884
_cell_angle_alpha    90
_cell_angle_beta     90
_cell_angle_gamma    90

_symmetry_space_group_name_H-M    "P 1"
_symmetry_Int_Tables_number       1

loop_
  _symmetry_equiv_pos_as_xyz
  'x, y, z'

loop_
  _atom_site_type_symbol
  _atom_site_label
  _atom_site_symmetry_multiplicity
  _atom_site_fract_x
  _atom_site_fract_y
  _atom_site_fract_z
  _atom_site_occupancy
  _atom_site_charge
Cd  Cd1       1.0  0.05735  0.94265  0.75000  1.0000 0.6431940683
Cd  Cd2       1.0  0.94265  0.05735  0.25000  1.0000 0.6431940683
Cd  Cd3       1.0  0.55735  0.55735  0.50000  1.0000 0.6431940683
Cd  Cd4       1.0  0.44265  0.44265  0.00000  1.0000 0.6431940683
H   H1        1.0  0.53640  0.61000  0.64930  1.0000 0.0998842866
H   H2        1.0  0.46360  0.39000  0.14930  1.0000 0.0998842866
H   H3        1.0  0.89000  0.03640  0.39930  1.0000 0.0998842866
H   H4        1.0  0.11000  0.96360  0.89930  1.0000 0.0998842866
H   H5        1.0  0.96360  0.11000  0.10070  1.0000 0.0998842866
H   H6        1.0  0.03640  0.89000  0.60070  1.0000 0.0998842866
H   H7        1.0  0.61000  0.53640  0.35070  1.0000 0.0998842866
H   H8        1.0  0.39000  0.46360  0.85070  1.0000 0.0998842866
H   H9        1.0  0.58370  0.71510  0.71470  1.0000 0.1297019646
H   H10       1.0  0.41630  0.28490  0.21470  1.0000 0.1297019646
H   H11       1.0  0.78490  0.08370  0.46470  1.0000 0.1297019646
H   H12       1.0  0.21510  0.91630  0.96470  1.0000 0.1297019646
H   H13       1.0  0.91630  0.21510  0.03530  1.0000 0.1297019646
H   H14       1.0  0.08370  0.78490  0.53530  1.0000 0.1297019646
H   H15       1.0  0.71510  0.58370  0.28530  1.0000 0.1297019646
H   H16       1.0  0.28490  0.41630  0.78530  1.0000 0.1297019646
H   H17       1.0  0.78470  0.74080  0.60380  1.0000 0.1297019646
H   H18       1.0  0.21530  0.25920  0.10380  1.0000 0.1297019646
H   H19       1.0  0.75920  0.28470  0.35380  1.0000 0.1297019646
H   H20       1.0  0.24080  0.71530  0.85380  1.0000 0.1297019646
H   H21       1.0  0.71530  0.24080  0.14620  1.0000 0.1297019646
H   H22       1.0  0.28470  0.75920  0.64620  1.0000 0.1297019646
H   H23       1.0  0.74080  0.78470  0.39620  1.0000 0.1297019646
H   H24       1.0  0.25920  0.21530  0.89620  1.0000 0.1297019646
H   H25       1.0  0.72640  0.64210  0.53960  1.0000 0.0998842866
H   H26       1.0  0.27360  0.35790  0.03960  1.0000 0.0998842866
H   H27       1.0  0.85790  0.22640  0.28960  1.0000 0.0998842866
H   H28       1.0  0.14210  0.77360  0.78960  1.0000 0.0998842866
H   H29       1.0  0.77360  0.14210  0.21040  1.0000 0.0998842866
H   H30       1.0  0.22640  0.85790  0.71040  1.0000 0.0998842866
H   H31       1.0  0.64210  0.72640  0.46040  1.0000 0.0998842866
H   H32       1.0  0.35790  0.27360  0.96040  1.0000 0.0998842866
H   H33       1.0  0.65070  0.79820  0.77920  1.0000 0.0998842866
H   H34       1.0  0.34930  0.20180  0.27920  1.0000 0.0998842866
H   H35       1.0  0.70180  0.15070  0.52920  1.0000 0.0998842866
H   H36       1.0  0.29820  0.84930  0.02920  1.0000 0.0998842866
H   H37       1.0  0.84930  0.29820  0.97080  1.0000 0.0998842866
H   H38       1.0  0.15070  0.70180  0.47080  1.0000 0.0998842866
H   H39       1.0  0.79820  0.65070  0.22080  1.0000 0.0998842866
H   H40       1.0  0.20180  0.34930  0.72080  1.0000 0.0998842866
H   H41       1.0  0.70560  0.90720  0.83530  1.0000 0.110388577
H   H42       1.0  0.29440  0.09280  0.33530  1.0000 0.110388577
H   H43       1.0  0.59280  0.20560  0.58530  1.0000 0.110388577
H   H44       1.0  0.40720  0.79440  0.08530  1.0000 0.110388577
H   H45       1.0  0.79440  0.40720  0.91470  1.0000 0.110388577
H   H46       1.0  0.20560  0.59280  0.41470  1.0000 0.110388577
H   H47       1.0  0.90720  0.70560  0.16470  1.0000 0.110388577
H   H48       1.0  0.09280  0.29440  0.66470  1.0000 0.110388577
H   H49       1.0  0.80080  0.00210  0.79180  1.0000 0.110388577
H   H50       1.0  0.19920  0.99790  0.29180  1.0000 0.110388577
H   H51       1.0  0.49790  0.30080  0.54180  1.0000 0.110388577
H   H52       1.0  0.50210  0.69920  0.04180  1.0000 0.110388577
H   H53       1.0  0.69920  0.50210  0.95820  1.0000 0.110388577
H   H54       1.0  0.30080  0.49790  0.45820  1.0000 0.110388577
H   H55       1.0  0.00210  0.80080  0.20820  1.0000 0.110388577
H   H56       1.0  0.99790  0.19920  0.70820  1.0000 0.110388577
H   H57       1.0  0.79640  0.86390  0.63580  1.0000 0.110388577
H   H58       1.0  0.20360  0.13610  0.13580  1.0000 0.110388577
H   H59       1.0  0.63610  0.29640  0.38580  1.0000 0.110388577
H   H60       1.0  0.36390  0.70360  0.88580  1.0000 0.110388577
H   H61       1.0  0.70360  0.36390  0.11420  1.0000 0.110388577
H   H62       1.0  0.29640  0.63610  0.61420  1.0000 0.110388577
H   H63       1.0  0.86390  0.79640  0.36420  1.0000 0.110388577
H   H64       1.0  0.13610  0.20360  0.86420  1.0000 0.110388577
H   H65       1.0  0.04430  0.12130  0.54090  1.0000 0.110388577
H   H66       1.0  0.95570  0.87870  0.04090  1.0000 0.110388577
H   H67       1.0  0.37870  0.54430  0.29090  1.0000 0.110388577
H   H68       1.0  0.62130  0.45570  0.79090  1.0000 0.110388577
H   H69       1.0  0.45570  0.62130  0.20910  1.0000 0.110388577
H   H70       1.0  0.54430  0.37870  0.70910  1.0000 0.110388577
H   H71       1.0  0.12130  0.04430  0.45910  1.0000 0.110388577
H   H72       1.0  0.87870  0.95570  0.95910  1.0000 0.110388577
H   H73       1.0  0.06210  0.23010  0.47160  1.0000 0.110388577
H   H74       1.0  0.93790  0.76990  0.97160  1.0000 0.110388577
H   H75       1.0  0.26990  0.56210  0.22160  1.0000 0.110388577
H   H76       1.0  0.73010  0.43790  0.72160  1.0000 0.110388577
H   H77       1.0  0.43790  0.73010  0.27840  1.0000 0.110388577
H   H78       1.0  0.56210  0.26990  0.77840  1.0000 0.110388577
H   H79       1.0  0.23010  0.06210  0.52840  1.0000 0.110388577
H   H80       1.0  0.76990  0.93790  0.02840  1.0000 0.110388577
H   H81       1.0  0.96230  0.33450  0.46160  1.0000 0.110388577
H   H82       1.0  0.03770  0.66550  0.96160  1.0000 0.110388577
H   H83       1.0  0.16550  0.46230  0.21160  1.0000 0.110388577
H   H84       1.0  0.83450  0.53770  0.71160  1.0000 0.110388577
H   H85       1.0  0.53770  0.83450  0.28840  1.0000 0.110388577
H   H86       1.0  0.46230  0.16550  0.78840  1.0000 0.110388577
H   H87       1.0  0.33450  0.96230  0.53840  1.0000 0.110388577
H   H88       1.0  0.66550  0.03770  0.03840  1.0000 0.110388577
H   H89       1.0  0.82430  0.22380  0.59590  1.0000 0.0998842866
H   H90       1.0  0.17570  0.77620  0.09590  1.0000 0.0998842866
H   H91       1.0  0.27620  0.32430  0.34590  1.0000 0.0998842866
H   H92       1.0  0.72380  0.67570  0.84590  1.0000 0.0998842866
H   H93       1.0  0.67570  0.72380  0.15410  1.0000 0.0998842866
H   H94       1.0  0.32430  0.27620  0.65410  1.0000 0.0998842866
H   H95       1.0  0.22380  0.82430  0.40410  1.0000 0.0998842866
H   H96       1.0  0.77620  0.17570  0.90410  1.0000 0.0998842866
H   H97       1.0  0.76650  0.34840  0.60880  1.0000 0.1297019646
H   H98       1.0  0.23350  0.65160  0.10880  1.0000 0.1297019646
H   H99       1.0  0.15160  0.26650  0.35880  1.0000 0.1297019646
H   H100      1.0  0.84840  0.73350  0.85880  1.0000 0.1297019646
H   H101      1.0  0.73350  0.84840  0.14120  1.0000 0.1297019646
H   H102      1.0  0.26650  0.15160  0.64120  1.0000 0.1297019646
H   H103      1.0  0.34840  0.76650  0.39120  1.0000 0.1297019646
H   H104      1.0  0.65160  0.23350  0.89120  1.0000 0.1297019646
H   H105      1.0  0.65980  0.44430  0.59460  1.0000 0.0998842866
H   H106      1.0  0.34020  0.55570  0.09460  1.0000 0.0998842866
H   H107      1.0  0.05570  0.15980  0.34460  1.0000 0.0998842866
H   H108      1.0  0.94430  0.84020  0.84460  1.0000 0.0998842866
H   H109      1.0  0.84020  0.94430  0.15540  1.0000 0.0998842866
H   H110      1.0  0.15980  0.05570  0.65540  1.0000 0.0998842866
H   H111      1.0  0.44430  0.65980  0.40540  1.0000 0.0998842866
H   H112      1.0  0.55570  0.34020  0.90540  1.0000 0.0998842866
H   H113      1.0  0.73420  0.48900  0.42640  1.0000 0.0998842866
H   H114      1.0  0.26580  0.51100  0.92640  1.0000 0.0998842866
H   H115      1.0  0.01100  0.23420  0.17640  1.0000 0.0998842866
H   H116      1.0  0.98900  0.76580  0.67640  1.0000 0.0998842866
H   H117      1.0  0.76580  0.98900  0.32360  1.0000 0.0998842866
H   H118      1.0  0.23420  0.01100  0.82360  1.0000 0.0998842866
H   H119      1.0  0.48900  0.73420  0.57360  1.0000 0.0998842866
H   H120      1.0  0.51100  0.26580  0.07360  1.0000 0.0998842866
H   H121      1.0  0.84500  0.39630  0.43740  1.0000 0.1297019646
H   H122      1.0  0.15500  0.60370  0.93740  1.0000 0.1297019646
H   H123      1.0  0.10370  0.34500  0.18740  1.0000 0.1297019646
H   H124      1.0  0.89630  0.65500  0.68740  1.0000 0.1297019646
H   H125      1.0  0.65500  0.89630  0.31260  1.0000 0.1297019646
H   H126      1.0  0.34500  0.10370  0.81260  1.0000 0.1297019646
H   H127      1.0  0.39630  0.84500  0.56260  1.0000 0.1297019646
H   H128      1.0  0.60370  0.15500  0.06260  1.0000 0.1297019646
H   H129      1.0  0.73990  0.02640  0.61160  1.0000 0.2679449208
H   H130      1.0  0.26010  0.97360  0.11160  1.0000 0.2679449208
H   H131      1.0  0.47360  0.23990  0.36160  1.0000 0.2679449208
H   H132      1.0  0.52640  0.76010  0.86160  1.0000 0.2679449208
H   H133      1.0  0.76010  0.52640  0.13840  1.0000 0.2679449208
H   H134      1.0  0.23990  0.47360  0.63840  1.0000 0.2679449208
H   H135      1.0  0.02640  0.73990  0.38840  1.0000 0.2679449208
H   H136      1.0  0.97360  0.26010  0.88840  1.0000 0.2679449208
H   H137      1.0  0.74100  0.10790  0.64470  1.0000 0.2489962466
H   H138      1.0  0.25900  0.89210  0.14470  1.0000 0.2489962466
H   H139      1.0  0.39210  0.24100  0.39470  1.0000 0.2489962466
H   H140      1.0  0.60790  0.75900  0.89470  1.0000 0.2489962466
H   H141      1.0  0.75900  0.60790  0.10530  1.0000 0.2489962466
H   H142      1.0  0.24100  0.39210  0.60530  1.0000 0.2489962466
H   H143      1.0  0.10790  0.74100  0.35530  1.0000 0.2489962466
H   H144      1.0  0.89210  0.25900  0.85530  1.0000 0.2489962466
C   C1        1.0  0.58590  0.63970  0.63850  1.0000 0.0913611688
C   C2        1.0  0.41410  0.36030  0.13850  1.0000 0.0913611688
C   C3        1.0  0.86030  0.08590  0.38850  1.0000 0.0913611688
C   C4        1.0  0.13970  0.91410  0.88850  1.0000 0.0913611688
C   C5        1.0  0.91410  0.13970  0.11150  1.0000 0.0913611688
C   C6        1.0  0.08590  0.86030  0.61150  1.0000 0.0913611688
C   C7        1.0  0.63970  0.58590  0.36150  1.0000 0.0913611688
C   C8        1.0  0.36030  0.41410  0.86150  1.0000 0.0913611688
C   C9        1.0  0.61410  0.70260  0.67850  1.0000 -0.2064276123
C   C10       1.0  0.38590  0.29740  0.17850  1.0000 -0.2064276123
C   C11       1.0  0.79740  0.11410  0.42850  1.0000 -0.2064276123
C   C12       1.0  0.20260  0.88590  0.92850  1.0000 -0.2064276123
C   C13       1.0  0.88590  0.20260  0.07150  1.0000 -0.2064276123
C   C14       1.0  0.11410  0.79740  0.57150  1.0000 -0.2064276123
C   C15       1.0  0.70260  0.61410  0.32150  1.0000 -0.2064276123
C   C16       1.0  0.29740  0.38590  0.82150  1.0000 -0.2064276123
C   C17       1.0  0.68800  0.74700  0.66430  1.0000 0.1160933636
C   C18       1.0  0.31200  0.25300  0.16430  1.0000 0.1160933636
C   C19       1.0  0.75300  0.18800  0.41430  1.0000 0.1160933636
C   C20       1.0  0.24700  0.81200  0.91430  1.0000 0.1160933636
C   C21       1.0  0.81200  0.24700  0.08570  1.0000 0.1160933636
C   C22       1.0  0.18800  0.75300  0.58570  1.0000 0.1160933636
C   C23       1.0  0.74700  0.68800  0.33570  1.0000 0.1160933636
C   C24       1.0  0.25300  0.31200  0.83570  1.0000 0.1160933636
C   C25       1.0  0.73100  0.71830  0.61310  1.0000 -0.1933626512
C   C26       1.0  0.26900  0.28170  0.11310  1.0000 -0.1933626512
C   C27       1.0  0.78170  0.23100  0.36310  1.0000 -0.1933626512
C   C28       1.0  0.21830  0.76900  0.86310  1.0000 -0.1933626512
C   C29       1.0  0.76900  0.21830  0.13690  1.0000 -0.1933626512
C   C30       1.0  0.23100  0.78170  0.63690  1.0000 -0.1933626512
C   C31       1.0  0.71830  0.73100  0.38690  1.0000 -0.1933626512
C   C32       1.0  0.28170  0.26900  0.88690  1.0000 -0.1933626512
C   C33       1.0  0.69680  0.65760  0.57560  1.0000 0.0224108249
C   C34       1.0  0.30320  0.34240  0.07560  1.0000 0.0224108249
C   C35       1.0  0.84240  0.19680  0.32560  1.0000 0.0224108249
C   C36       1.0  0.15760  0.80320  0.82560  1.0000 0.0224108249
C   C37       1.0  0.80320  0.15760  0.17440  1.0000 0.0224108249
C   C38       1.0  0.19680  0.84240  0.67440  1.0000 0.0224108249
C   C39       1.0  0.65760  0.69680  0.42440  1.0000 0.0224108249
C   C40       1.0  0.34240  0.30320  0.92440  1.0000 0.0224108249
C   C41       1.0  0.71860  0.81870  0.70200  1.0000 0.0730078071
C   C42       1.0  0.28140  0.18130  0.20200  1.0000 0.0730078071
C   C43       1.0  0.68130  0.21860  0.45200  1.0000 0.0730078071
C   C44       1.0  0.31870  0.78140  0.95200  1.0000 0.0730078071
C   C45       1.0  0.78140  0.31870  0.04800  1.0000 0.0730078071
C   C46       1.0  0.21860  0.68130  0.54800  1.0000 0.0730078071
C   C47       1.0  0.81870  0.71860  0.29800  1.0000 0.0730078071
C   C48       1.0  0.18130  0.28140  0.79800  1.0000 0.0730078071
C   C49       1.0  0.69170  0.83390  0.76130  1.0000 -0.1629607131
C   C50       1.0  0.30830  0.16610  0.26130  1.0000 -0.1629607131
C   C51       1.0  0.66610  0.19170  0.51130  1.0000 -0.1629607131
C   C52       1.0  0.33390  0.80830  0.01130  1.0000 -0.1629607131
C   C53       1.0  0.80830  0.33390  0.98870  1.0000 -0.1629607131
C   C54       1.0  0.19170  0.66610  0.48870  1.0000 -0.1629607131
C   C55       1.0  0.83390  0.69170  0.23870  1.0000 -0.1629607131
C   C56       1.0  0.16610  0.30830  0.73870  1.0000 -0.1629607131
C   C57       1.0  0.72340  0.89950  0.79430  1.0000 -0.1025231704
C   C58       1.0  0.27660  0.10050  0.29430  1.0000 -0.1025231704
C   C59       1.0  0.60050  0.22340  0.54430  1.0000 -0.1025231704
C   C60       1.0  0.39950  0.77660  0.04430  1.0000 -0.1025231704
C   C61       1.0  0.77660  0.39950  0.95570  1.0000 -0.1025231704
C   C62       1.0  0.22340  0.60050  0.45570  1.0000 -0.1025231704
C   C63       1.0  0.89950  0.72340  0.20570  1.0000 -0.1025231704
C   C64       1.0  0.10050  0.27660  0.70570  1.0000 -0.1025231704
C   C65       1.0  0.78120  0.95520  0.76920  1.0000 -0.1629607131
C   C66       1.0  0.21880  0.04480  0.26920  1.0000 -0.1629607131
C   C67       1.0  0.54480  0.28120  0.51920  1.0000 -0.1629607131
C   C68       1.0  0.45520  0.71880  0.01920  1.0000 -0.1629607131
C   C69       1.0  0.71880  0.45520  0.98080  1.0000 -0.1629607131
C   C70       1.0  0.28120  0.54480  0.48080  1.0000 -0.1629607131
C   C71       1.0  0.95520  0.78120  0.23080  1.0000 -0.1629607131
C   C72       1.0  0.04480  0.21880  0.73080  1.0000 -0.1629607131
C   C73       1.0  0.80990  0.93980  0.70910  1.0000 0.0224108249
C   C74       1.0  0.19010  0.06020  0.20910  1.0000 0.0224108249
C   C75       1.0  0.56020  0.30990  0.45910  1.0000 0.0224108249
C   C76       1.0  0.43980  0.69010  0.95910  1.0000 0.0224108249
C   C77       1.0  0.69010  0.43980  0.04090  1.0000 0.0224108249
C   C78       1.0  0.30990  0.56020  0.54090  1.0000 0.0224108249
C   C79       1.0  0.93980  0.80990  0.29090  1.0000 0.0224108249
C   C80       1.0  0.06020  0.19010  0.79090  1.0000 0.0224108249
C   C81       1.0  0.77780  0.87310  0.67650  1.0000 -0.1933626512
C   C82       1.0  0.22220  0.12690  0.17650  1.0000 -0.1933626512
C   C83       1.0  0.62690  0.27780  0.42650  1.0000 -0.1933626512
C   C84       1.0  0.37310  0.72220  0.92650  1.0000 -0.1933626512
C   C85       1.0  0.72220  0.37310  0.07350  1.0000 -0.1933626512
C   C86       1.0  0.27780  0.62690  0.57350  1.0000 -0.1933626512
C   C87       1.0  0.87310  0.77780  0.32350  1.0000 -0.1933626512
C   C88       1.0  0.12690  0.22220  0.82350  1.0000 -0.1933626512
C   C89       1.0  0.87250  0.99640  0.67930  1.0000 0.1889085882
C   C90       1.0  0.12750  0.00360  0.17930  1.0000 0.1889085882
C   C91       1.0  0.50360  0.37250  0.42930  1.0000 0.1889085882
C   C92       1.0  0.49640  0.62750  0.92930  1.0000 0.1889085882
C   C93       1.0  0.62750  0.49640  0.07070  1.0000 0.1889085882
C   C94       1.0  0.37250  0.50360  0.57070  1.0000 0.1889085882
C   C95       1.0  0.99640  0.87250  0.32070  1.0000 0.1889085882
C   C96       1.0  0.00360  0.12750  0.82070  1.0000 0.1889085882
C   C97       1.0  0.92350  0.09150  0.61830  1.0000 0.1889085882
C   C98       1.0  0.07650  0.90850  0.11830  1.0000 0.1889085882
C   C99       1.0  0.40850  0.42350  0.36830  1.0000 0.1889085882
C   C100      1.0  0.59150  0.57650  0.86830  1.0000 0.1889085882
C   C101      1.0  0.57650  0.59150  0.13170  1.0000 0.1889085882
C   C102      1.0  0.42350  0.40850  0.63170  1.0000 0.1889085882
C   C103      1.0  0.09150  0.92350  0.38170  1.0000 0.1889085882
C   C104      1.0  0.90850  0.07650  0.88170  1.0000 0.1889085882
C   C105      1.0  0.93140  0.16070  0.57430  1.0000 0.0394903683
C   C106      1.0  0.06860  0.83930  0.07430  1.0000 0.0394903683
C   C107      1.0  0.33930  0.43140  0.32430  1.0000 0.0394903683
C   C108      1.0  0.66070  0.56860  0.82430  1.0000 0.0394903683
C   C109      1.0  0.56860  0.66070  0.17570  1.0000 0.0394903683
C   C110      1.0  0.43140  0.33930  0.67570  1.0000 0.0394903683
C   C111      1.0  0.16070  0.93140  0.42570  1.0000 0.0394903683
C   C112      1.0  0.83930  0.06860  0.92570  1.0000 0.0394903683
C   C113      1.0  0.00280  0.16390  0.53760  1.0000 -0.1523552965
C   C114      1.0  0.99720  0.83610  0.03760  1.0000 -0.1523552965
C   C115      1.0  0.33610  0.50280  0.28760  1.0000 -0.1523552965
C   C116      1.0  0.66390  0.49720  0.78760  1.0000 -0.1523552965
C   C117      1.0  0.49720  0.66390  0.21240  1.0000 -0.1523552965
C   C118      1.0  0.50280  0.33610  0.71240  1.0000 -0.1523552965
C   C119      1.0  0.16390  0.00280  0.46240  1.0000 -0.1523552965
C   C120      1.0  0.83610  0.99720  0.96240  1.0000 -0.1523552965
C   C121      1.0  0.01330  0.22870  0.49650  1.0000 -0.1053056102
C   C122      1.0  0.98670  0.77130  0.99650  1.0000 -0.1053056102
C   C123      1.0  0.27130  0.51330  0.24650  1.0000 -0.1053056102
C   C124      1.0  0.72870  0.48670  0.74650  1.0000 -0.1053056102
C   C125      1.0  0.48670  0.72870  0.25350  1.0000 -0.1053056102
C   C126      1.0  0.51330  0.27130  0.75350  1.0000 -0.1053056102
C   C127      1.0  0.22870  0.01330  0.50350  1.0000 -0.1053056102
C   C128      1.0  0.77130  0.98670  0.00350  1.0000 -0.1053056102
C   C129      1.0  0.95480  0.29120  0.49090  1.0000 -0.1629607131
C   C130      1.0  0.04520  0.70880  0.99090  1.0000 -0.1629607131
C   C131      1.0  0.20880  0.45480  0.24090  1.0000 -0.1629607131
C   C132      1.0  0.79120  0.54520  0.74090  1.0000 -0.1629607131
C   C133      1.0  0.54520  0.79120  0.25910  1.0000 -0.1629607131
C   C134      1.0  0.45480  0.20880  0.75910  1.0000 -0.1629607131
C   C135      1.0  0.29120  0.95480  0.50910  1.0000 -0.1629607131
C   C136      1.0  0.70880  0.04520  0.00910  1.0000 -0.1629607131
C   C137      1.0  0.88260  0.29090  0.52950  1.0000 0.0730078071
C   C138      1.0  0.11740  0.70910  0.02950  1.0000 0.0730078071
C   C139      1.0  0.20910  0.38260  0.27950  1.0000 0.0730078071
C   C140      1.0  0.79090  0.61740  0.77950  1.0000 0.0730078071
C   C141      1.0  0.61740  0.79090  0.22050  1.0000 0.0730078071
C   C142      1.0  0.38260  0.20910  0.72050  1.0000 0.0730078071
C   C143      1.0  0.29090  0.88260  0.47050  1.0000 0.0730078071
C   C144      1.0  0.70910  0.11740  0.97050  1.0000 0.0730078071
C   C145      1.0  0.87240  0.22500  0.57030  1.0000 -0.1962915532
C   C146      1.0  0.12760  0.77500  0.07030  1.0000 -0.1962915532
C   C147      1.0  0.27500  0.37240  0.32030  1.0000 -0.1962915532
C   C148      1.0  0.72500  0.62760  0.82030  1.0000 -0.1962915532
C   C149      1.0  0.62760  0.72500  0.17970  1.0000 -0.1962915532
C   C150      1.0  0.37240  0.27500  0.67970  1.0000 -0.1962915532
C   C151      1.0  0.22500  0.87240  0.42970  1.0000 -0.1962915532
C   C152      1.0  0.77500  0.12760  0.92970  1.0000 -0.1962915532
C   C153      1.0  0.81750  0.35800  0.52320  1.0000 0.1160933636
C   C154      1.0  0.18250  0.64200  0.02320  1.0000 0.1160933636
C   C155      1.0  0.14200  0.31750  0.27320  1.0000 0.1160933636
C   C156      1.0  0.85800  0.68250  0.77320  1.0000 0.1160933636
C   C157      1.0  0.68250  0.85800  0.22680  1.0000 0.1160933636
C   C158      1.0  0.31750  0.14200  0.72680  1.0000 0.1160933636
C   C159      1.0  0.35800  0.81750  0.47680  1.0000 0.1160933636
C   C160      1.0  0.64200  0.18250  0.97680  1.0000 0.1160933636
C   C161      1.0  0.76100  0.37600  0.57060  1.0000 -0.2064276123
C   C162      1.0  0.23900  0.62400  0.07060  1.0000 -0.2064276123
C   C163      1.0  0.12400  0.26100  0.32060  1.0000 -0.2064276123
C   C164      1.0  0.87600  0.73900  0.82060  1.0000 -0.2064276123
C   C165      1.0  0.73900  0.87600  0.17940  1.0000 -0.2064276123
C   C166      1.0  0.26100  0.12400  0.67940  1.0000 -0.2064276123
C   C167      1.0  0.37600  0.76100  0.42940  1.0000 -0.2064276123
C   C168      1.0  0.62400  0.23900  0.92940  1.0000 -0.2064276123
C   C169      1.0  0.69730  0.43360  0.56180  1.0000 0.0781758763
C   C170      1.0  0.30270  0.56640  0.06180  1.0000 0.0781758763
C   C171      1.0  0.06640  0.19730  0.31180  1.0000 0.0781758763
C   C172      1.0  0.93360  0.80270  0.81180  1.0000 0.0781758763
C   C173      1.0  0.80270  0.93360  0.18820  1.0000 0.0781758763
C   C174      1.0  0.19730  0.06640  0.68820  1.0000 0.0781758763
C   C175      1.0  0.43360  0.69730  0.43820  1.0000 0.0781758763
C   C176      1.0  0.56640  0.30270  0.93820  1.0000 0.0781758763
C   C177      1.0  0.74090  0.45990  0.46400  1.0000 0.0639605765
C   C178      1.0  0.25910  0.54010  0.96400  1.0000 0.0639605765
C   C179      1.0  0.04010  0.24090  0.21400  1.0000 0.0639605765
C   C180      1.0  0.95990  0.75910  0.71400  1.0000 0.0639605765
C   C181      1.0  0.75910  0.95990  0.28600  1.0000 0.0639605765
C   C182      1.0  0.24090  0.04010  0.78600  1.0000 0.0639605765
C   C183      1.0  0.45990  0.74090  0.53600  1.0000 0.0639605765
C   C184      1.0  0.54010  0.25910  0.03600  1.0000 0.0639605765
C   C185      1.0  0.80670  0.40360  0.47030  1.0000 -0.1962915532
C   C186      1.0  0.19330  0.59640  0.97030  1.0000 -0.1962915532
C   C187      1.0  0.09640  0.30670  0.22030  1.0000 -0.1962915532
C   C188      1.0  0.90360  0.69330  0.72030  1.0000 -0.1962915532
C   C189      1.0  0.69330  0.90360  0.27970  1.0000 -0.1962915532
C   C190      1.0  0.30670  0.09640  0.77970  1.0000 -0.1962915532
C   C191      1.0  0.40360  0.80670  0.52970  1.0000 -0.1962915532
C   C192      1.0  0.59640  0.19330  0.02970  1.0000 -0.1933626512
N   N1        1.0  0.62300  0.61950  0.58800  1.0000 -0.2360685253
N   N2        1.0  0.37700  0.38050  0.08800  1.0000 -0.2360685253
N   N3        1.0  0.88050  0.12300  0.33800  1.0000 -0.2360685253
N   N4        1.0  0.11950  0.87700  0.83800  1.0000 -0.2360685253
N   N5        1.0  0.87700  0.11950  0.16200  1.0000 -0.2360685253
N   N6        1.0  0.12300  0.88050  0.66200  1.0000 -0.2360685253
N   N7        1.0  0.61950  0.62300  0.41200  1.0000 -0.2360685253
N   N8        1.0  0.38050  0.37700  0.91200  1.0000 -0.2360685253
N   N9        1.0  0.98610  0.05520  0.64520  1.0000 -0.2662351019
N   N10       1.0  0.01390  0.94480  0.14520  1.0000 -0.2662351019
N   N11       1.0  0.44480  0.48610  0.39520  1.0000 -0.2662351019
N   N12       1.0  0.55520  0.51390  0.89520  1.0000 -0.2662351019
N   N13       1.0  0.51390  0.55520  0.10480  1.0000 -0.2662351019
N   N14       1.0  0.48610  0.44480  0.60480  1.0000 -0.2662351019
N   N15       1.0  0.05520  0.98610  0.35480  1.0000 -0.2662351019
N   N16       1.0  0.94480  0.01390  0.85480  1.0000 -0.2662351019
N   N17       1.0  0.95420  0.99410  0.68350  1.0000 -0.2308434061
N   N18       1.0  0.04580  0.00590  0.18350  1.0000 -0.2308434061
N   N19       1.0  0.50590  0.45420  0.43350  1.0000 -0.2308434061
N   N20       1.0  0.49410  0.54580  0.93350  1.0000 -0.2308434061
N   N21       1.0  0.54580  0.49410  0.06650  1.0000 -0.2308434061
N   N22       1.0  0.45420  0.50590  0.56650  1.0000 -0.2308434061
N   N23       1.0  0.99410  0.95420  0.31650  1.0000 -0.2308434061
N   N24       1.0  0.00590  0.04580  0.81650  1.0000 -0.2308434061
N   N25       1.0  0.85040  0.05640  0.63900  1.0000 0.0639605765
N   N26       1.0  0.14960  0.94360  0.13900  1.0000 0.0639605765
N   N27       1.0  0.44360  0.35040  0.38900  1.0000 0.0639605765
N   N28       1.0  0.55640  0.64960  0.88900  1.0000 0.0639605765
N   N29       1.0  0.64960  0.55640  0.11100  1.0000 0.0639605765
N   N30       1.0  0.35040  0.44360  0.61100  1.0000 0.0639605765
N   N31       1.0  0.05640  0.85040  0.36100  1.0000 0.0639605765
N   N32       1.0  0.94360  0.14960  0.86100  1.0000 0.0639605765
N   N33       1.0  0.76860  0.07520  0.61720  1.0000 -0.5048207454
N   N34       1.0  0.23140  0.92480  0.11720  1.0000 -0.5048207454
N   N35       1.0  0.42480  0.26860  0.36720  1.0000 -0.5048207454
N   N36       1.0  0.57520  0.73140  0.86720  1.0000 -0.5048207454
N   N37       1.0  0.73140  0.57520  0.13280  1.0000 -0.5048207454
N   N38       1.0  0.26860  0.42480  0.63280  1.0000 -0.5048207454
N   N39       1.0  0.07520  0.76860  0.38280  1.0000 -0.5048207454
N   N40       1.0  0.92480  0.23140  0.88280  1.0000 -0.5048207454
N   N41       1.0  0.68610  0.47460  0.50960  1.0000 -0.2360685253
N   N42       1.0  0.31390  0.52540  0.00960  1.0000 -0.2360685253
N   N43       1.0  0.02540  0.18610  0.25960  1.0000 -0.2360685253
N   N44       1.0  0.97460  0.81390  0.75960  1.0000 -0.2360685253
N   N45       1.0  0.81390  0.97460  0.24040  1.0000 -0.2360685253
N   N46       1.0  0.18610  0.02540  0.74040  1.0000 -0.2360685253
N   N47       1.0  0.47460  0.68610  0.49040  1.0000 -0.2360685253
N   N48       1.0  0.52540  0.31390  0.99040  1.0000 -0.2360685253
Cl  Cl1       1.0  0.62061  0.37939  0.25000  1.0000 1.1030551084
Cl  Cl2       1.0  0.37939  0.62061  0.75000  1.0000 1.1030551084
Cl  Cl3       1.0  0.87939  0.87939  0.50000  1.0000 1.1030551084
Cl  Cl4       1.0  0.12061  0.12061  0.00000  1.0000 1.1030551084
O   O1        1.0  0.59830  0.32070  0.20130  1.0000 -0.4524773173
O   O2        1.0  0.67930  0.40170  0.29870  1.0000 -0.4524773173
O   O3        1.0  0.64080  0.44040  0.21590  1.0000 -0.3409231715
O   O4        1.0  0.55960  0.35920  0.28410  1.0000 -0.3409231715
O   O5        1.0  0.40170  0.67930  0.70130  1.0000 -0.4524773173
O   O6        1.0  0.32070  0.59830  0.79870  1.0000 -0.4524773173
O   O7        1.0  0.35920  0.55960  0.71590  1.0000 -0.3409231715
O   O8        1.0  0.44040  0.64080  0.78410  1.0000 -0.3409231715
O   O9        1.0  0.82070  0.90170  0.45130  1.0000 -0.4524773173
O   O10       1.0  0.90170  0.82070  0.54870  1.0000 -0.4524773173
O   O11       1.0  0.94040  0.85920  0.46590  1.0000 -0.3409231715
O   O12       1.0  0.85920  0.94040  0.53410  1.0000 -0.3409231715
O   O13       1.0  0.17930  0.09830  0.95130  1.0000 -0.4524773173
O   O14       1.0  0.09830  0.17930  0.04870  1.0000 -0.4524773173
O   O15       1.0  0.05960  0.14080  0.96590  1.0000 -0.3409231715
O   O16       1.0  0.14080  0.05960  0.03410  1.0000 -0.3409231715
