# DDEC6 charges by PACMAN v1.1 (https://github.com/mtap-research/PACMAN-charge/)
data_2010[AgReCd][srs]3[ION]1
_chemical_formula_sum              "Cd2 Re6 Ag6 H54 C102 N12 O36"
_cell_length_a       15.8084
_cell_length_b       15.8084
_cell_length_c       16.5823
_cell_angle_alpha    90
_cell_angle_beta     90
_cell_angle_gamma    120

_symmetry_space_group_name_H-M    "P 1"
_symmetry_Int_Tables_number       1

loop_
  _symmetry_equiv_pos_as_xyz
  'x, y, z'

loop_
  _atom_site_type_symbol
  _atom_site_label
  _atom_site_symmetry_multiplicity
  _atom_site_fract_x
  _atom_site_fract_y
  _atom_site_fract_z
  _atom_site_occupancy
  _atom_site_charge
Cd  Cd1       1.0  0.66667  0.33333  0.32406  1.0000 1.0243909456
Cd  Cd2       1.0  0.33333  0.66667  0.67594  1.0000 1.0243909456
Re  Re1       1.0  0.15067  0.78370  0.20512  1.0000 1.7509320873
Re  Re2       1.0  0.21630  0.36697  0.20512  1.0000 1.7509320873
Re  Re3       1.0  0.63303  0.84933  0.20512  1.0000 1.7509320873
Re  Re4       1.0  0.84933  0.21630  0.79488  1.0000 1.7509320873
Re  Re5       1.0  0.78370  0.63303  0.79488  1.0000 1.7509320873
Re  Re6       1.0  0.36697  0.15067  0.79488  1.0000 1.7509320873
Ag  Ag1       1.0  0.87169  0.59798  0.23505  1.0000 0.5466759699
Ag  Ag2       1.0  0.40202  0.27371  0.23505  1.0000 0.5466759699
Ag  Ag3       1.0  0.72629  0.12831  0.23505  1.0000 0.5466759699
Ag  Ag4       1.0  0.12831  0.40202  0.76495  1.0000 0.5466759699
Ag  Ag5       1.0  0.59798  0.72629  0.76495  1.0000 0.5466759699
Ag  Ag6       1.0  0.27371  0.87169  0.76495  1.0000 0.5466759699
H   H1        1.0  0.97910  0.53850  0.28510  1.0000 0.1399882259
H   H2        1.0  0.84810  0.50250  0.52490  1.0000 0.1217139071
H   H3        1.0  0.06750  0.63150  0.37170  1.0000 0.1292535975
H   H4        1.0  0.93580  0.60910  0.62510  1.0000 0.1399882259
H   H5        1.0  0.16310  0.74360  0.46800  1.0000 0.1217139071
H   H6        1.0  0.80710  0.31670  0.10630  1.0000 0.1217139071
H   H7        1.0  0.06080  0.49310  0.20310  1.0000 0.1399882259
H   H8        1.0  0.88710  0.31600  0.98750  1.0000 0.1292535975
H   H9        1.0  0.13890  0.48480  0.08550  1.0000 0.1292535975
H   H10       1.0  0.46150  0.44060  0.28510  1.0000 0.1399882259
H   H11       1.0  0.49750  0.34560  0.52490  1.0000 0.1217139071
H   H12       1.0  0.36850  0.43600  0.37170  1.0000 0.1292535975
H   H13       1.0  0.39090  0.32670  0.62510  1.0000 0.1399882259
H   H14       1.0  0.25640  0.41950  0.46800  1.0000 0.1217139071
H   H15       1.0  0.68330  0.49040  0.10630  1.0000 0.1217139071
H   H16       1.0  0.50690  0.56770  0.20310  1.0000 0.1399882259
H   H17       1.0  0.68400  0.57110  0.98750  1.0000 0.1292535975
H   H18       1.0  0.51520  0.65410  0.08550  1.0000 0.1292535975
H   H19       1.0  0.55940  0.02090  0.28510  1.0000 0.1399882259
H   H20       1.0  0.65440  0.15190  0.52490  1.0000 0.1217139071
H   H21       1.0  0.56400  0.93250  0.37170  1.0000 0.1292535975
H   H22       1.0  0.67330  0.06420  0.62510  1.0000 0.1399882259
H   H23       1.0  0.58050  0.83690  0.46800  1.0000 0.1217139071
H   H24       1.0  0.50960  0.19290  0.10630  1.0000 0.1217139071
H   H25       1.0  0.43230  0.93920  0.20310  1.0000 0.1399882259
H   H26       1.0  0.42890  0.11290  0.98750  1.0000 0.1292535975
H   H27       1.0  0.34590  0.86110  0.08550  1.0000 0.1292535975
H   H28       1.0  0.02090  0.46150  0.71490  1.0000 0.1399882259
H   H29       1.0  0.15190  0.49750  0.47510  1.0000 0.1217139071
H   H30       1.0  0.93250  0.36850  0.62830  1.0000 0.1292535975
H   H31       1.0  0.06420  0.39090  0.37490  1.0000 0.1399882259
H   H32       1.0  0.83690  0.25640  0.53200  1.0000 0.1217139071
H   H33       1.0  0.19290  0.68330  0.89370  1.0000 0.1217139071
H   H34       1.0  0.93920  0.50690  0.79690  1.0000 0.1399882259
H   H35       1.0  0.11290  0.68400  0.01250  1.0000 0.1292535975
H   H36       1.0  0.86110  0.51520  0.91450  1.0000 0.1292535975
H   H37       1.0  0.53850  0.55940  0.71490  1.0000 0.1399882259
H   H38       1.0  0.50250  0.65440  0.47510  1.0000 0.1217139071
H   H39       1.0  0.63150  0.56400  0.62830  1.0000 0.1292535975
H   H40       1.0  0.60910  0.67330  0.37490  1.0000 0.1399882259
H   H41       1.0  0.74360  0.58050  0.53200  1.0000 0.1217139071
H   H42       1.0  0.31670  0.50960  0.89370  1.0000 0.1217139071
H   H43       1.0  0.49310  0.43230  0.79690  1.0000 0.1399882259
H   H44       1.0  0.31600  0.42890  0.01250  1.0000 0.1292535975
H   H45       1.0  0.48480  0.34590  0.91450  1.0000 0.1292535975
H   H46       1.0  0.44060  0.97910  0.71490  1.0000 0.1399882259
H   H47       1.0  0.34560  0.84810  0.47510  1.0000 0.1217139071
H   H48       1.0  0.43600  0.06750  0.62830  1.0000 0.1292535975
H   H49       1.0  0.32670  0.93580  0.37490  1.0000 0.1399882259
H   H50       1.0  0.41950  0.16310  0.53200  1.0000 0.1217139071
H   H51       1.0  0.49040  0.80710  0.89370  1.0000 0.1217139071
H   H52       1.0  0.56770  0.06080  0.79690  1.0000 0.1399882259
H   H53       1.0  0.57110  0.88710  0.01250  1.0000 0.1292535975
H   H54       1.0  0.65410  0.13890  0.91450  1.0000 0.1292535975
C   C1        1.0  0.87070  0.40680  0.24020  1.0000 0.4213847019
C   C2        1.0  0.91910  0.48520  0.29900  1.0000 -0.50103275
C   C3        1.0  0.88090  0.48540  0.37520  1.0000 0.3731958367
C   C4        1.0  0.94750  0.56000  0.43630  1.0000 0.0308452942
C   C5        1.0  0.91100  0.55280  0.51380  1.0000 -0.1120901054
C   C6        1.0  0.04100  0.62900  0.42230  1.0000 -0.0998058968
C   C7        1.0  0.96290  0.61570  0.57410  1.0000 -0.1120901054
C   C8        1.0  0.09910  0.69600  0.47960  1.0000 -0.1120901054
C   C9        1.0  0.05760  0.69010  0.55790  1.0000 0.0398077485
C   C10       1.0  0.11700  0.75740  0.62110  1.0000 0.3225888831
C   C11       1.0  0.92790  0.40720  0.16670  1.0000 0.0166239233
C   C12       1.0  0.87490  0.35270  0.10310  1.0000 -0.0998058968
C   C13       1.0  0.02330  0.45520  0.16010  1.0000 -0.0841341964
C   C14       1.0  0.92300  0.35100  0.03220  1.0000 -0.1120901054
C   C15       1.0  0.07110  0.45070  0.08860  1.0000 -0.0882636038
C   C16       1.0  0.02120  0.40020  0.02950  1.0000 0.0490358755
C   C17       1.0  0.07110  0.40260  0.95720  1.0000 0.3225888831
C   C18       1.0  0.59320  0.46390  0.24020  1.0000 0.4213847019
C   C19       1.0  0.51480  0.43390  0.29900  1.0000 -0.50103275
C   C20       1.0  0.51460  0.39550  0.37520  1.0000 0.3731958367
C   C21       1.0  0.44000  0.38750  0.43630  1.0000 0.0308452942
C   C22       1.0  0.44720  0.35820  0.51380  1.0000 -0.1120901054
C   C23       1.0  0.37100  0.41200  0.42230  1.0000 -0.0998058968
C   C24       1.0  0.38430  0.34720  0.57410  1.0000 -0.1120901054
C   C25       1.0  0.30400  0.40310  0.47960  1.0000 -0.1120901054
C   C26       1.0  0.30990  0.36750  0.55790  1.0000 0.0398077485
C   C27       1.0  0.24260  0.35960  0.62110  1.0000 0.3225888831
C   C28       1.0  0.59280  0.52070  0.16670  1.0000 0.0166239233
C   C29       1.0  0.64730  0.52220  0.10310  1.0000 -0.0998058968
C   C30       1.0  0.54480  0.56810  0.16010  1.0000 -0.0841341964
C   C31       1.0  0.64900  0.57200  0.03220  1.0000 -0.1120901054
C   C32       1.0  0.54930  0.62040  0.08860  1.0000 -0.0882636038
C   C33       1.0  0.59980  0.62100  0.02950  1.0000 0.0490358755
C   C34       1.0  0.59740  0.66850  0.95720  1.0000 0.3225888831
C   C35       1.0  0.53610  0.12930  0.24020  1.0000 0.4213847019
C   C36       1.0  0.56610  0.08090  0.29900  1.0000 -0.50103275
C   C37       1.0  0.60450  0.11910  0.37520  1.0000 0.3731958367
C   C38       1.0  0.61250  0.05250  0.43630  1.0000 0.0308452942
C   C39       1.0  0.64180  0.08900  0.51380  1.0000 -0.1120901054
C   C40       1.0  0.58800  0.95900  0.42230  1.0000 -0.0998058968
C   C41       1.0  0.65280  0.03710  0.57410  1.0000 -0.1120901054
C   C42       1.0  0.59690  0.90090  0.47960  1.0000 -0.1120901054
C   C43       1.0  0.63250  0.94240  0.55790  1.0000 0.0398077485
C   C44       1.0  0.64040  0.88300  0.62110  1.0000 0.3225888831
C   C45       1.0  0.47930  0.07210  0.16670  1.0000 0.0166239233
C   C46       1.0  0.47780  0.12510  0.10310  1.0000 -0.0998058968
C   C47       1.0  0.43190  0.97670  0.16010  1.0000 -0.0841341964
C   C48       1.0  0.42800  0.07700  0.03220  1.0000 -0.1120901054
C   C49       1.0  0.37960  0.92890  0.08860  1.0000 -0.0882636038
C   C50       1.0  0.37900  0.97880  0.02950  1.0000 0.0490358755
C   C51       1.0  0.33150  0.92890  0.95720  1.0000 0.3225888831
C   C52       1.0  0.12930  0.59320  0.75980  1.0000 0.4213847019
C   C53       1.0  0.08090  0.51480  0.70100  1.0000 -0.50103275
C   C54       1.0  0.11910  0.51460  0.62480  1.0000 0.3731958367
C   C55       1.0  0.05250  0.44000  0.56370  1.0000 0.0308452942
C   C56       1.0  0.08900  0.44720  0.48620  1.0000 -0.1120901054
C   C57       1.0  0.95900  0.37100  0.57770  1.0000 -0.0998058968
C   C58       1.0  0.03710  0.38430  0.42590  1.0000 -0.1120901054
C   C59       1.0  0.90090  0.30400  0.52040  1.0000 -0.1120901054
C   C60       1.0  0.94240  0.30990  0.44210  1.0000 0.0398077485
C   C61       1.0  0.88300  0.24260  0.37890  1.0000 0.3225888831
C   C62       1.0  0.07210  0.59280  0.83330  1.0000 0.0166239233
C   C63       1.0  0.12510  0.64730  0.89690  1.0000 -0.0998058968
C   C64       1.0  0.97670  0.54480  0.83990  1.0000 -0.0841341964
C   C65       1.0  0.07700  0.64900  0.96780  1.0000 -0.1120901054
C   C66       1.0  0.92890  0.54930  0.91140  1.0000 -0.0882636038
C   C67       1.0  0.97880  0.59980  0.97050  1.0000 0.0490358755
C   C68       1.0  0.92890  0.59740  0.04280  1.0000 0.3225888831
C   C69       1.0  0.40680  0.53610  0.75980  1.0000 0.4213847019
C   C70       1.0  0.48520  0.56610  0.70100  1.0000 -0.50103275
C   C71       1.0  0.48540  0.60450  0.62480  1.0000 0.3731958367
C   C72       1.0  0.56000  0.61250  0.56370  1.0000 0.0308452942
C   C73       1.0  0.55280  0.64180  0.48620  1.0000 -0.1120901054
C   C74       1.0  0.62900  0.58800  0.57770  1.0000 -0.0998058968
C   C75       1.0  0.61570  0.65280  0.42590  1.0000 -0.1120901054
C   C76       1.0  0.69600  0.59690  0.52040  1.0000 -0.1120901054
C   C77       1.0  0.69010  0.63250  0.44210  1.0000 0.0398077485
C   C78       1.0  0.75740  0.64040  0.37890  1.0000 0.3225888831
C   C79       1.0  0.40720  0.47930  0.83330  1.0000 0.0166239233
C   C80       1.0  0.35270  0.47780  0.89690  1.0000 -0.0998058968
C   C81       1.0  0.45520  0.43190  0.83990  1.0000 -0.0841341964
C   C82       1.0  0.35100  0.42800  0.96780  1.0000 -0.1120901054
C   C83       1.0  0.45070  0.37960  0.91140  1.0000 -0.0882636038
C   C84       1.0  0.40020  0.37900  0.97050  1.0000 0.0490358755
C   C85       1.0  0.40260  0.33150  0.04280  1.0000 0.3225888831
C   C86       1.0  0.46390  0.87070  0.75980  1.0000 0.4213847019
C   C87       1.0  0.43390  0.91910  0.70100  1.0000 -0.50103275
C   C88       1.0  0.39550  0.88090  0.62480  1.0000 0.3731958367
C   C89       1.0  0.38750  0.94750  0.56370  1.0000 0.0308452942
C   C90       1.0  0.35820  0.91100  0.48620  1.0000 -0.1120901054
C   C91       1.0  0.41200  0.04100  0.57770  1.0000 -0.0998058968
C   C92       1.0  0.34720  0.96290  0.42590  1.0000 -0.1120901054
C   C93       1.0  0.40310  0.09910  0.52040  1.0000 -0.1120901054
C   C94       1.0  0.36750  0.05760  0.44210  1.0000 0.0398077485
C   C95       1.0  0.35960  0.11700  0.37890  1.0000 0.3225888831
C   C96       1.0  0.52070  0.92790  0.83330  1.0000 0.0166239233
C   C97       1.0  0.52220  0.87490  0.89690  1.0000 -0.0998058968
C   C98       1.0  0.56810  0.02330  0.83990  1.0000 -0.0841341964
C   C99       1.0  0.57200  0.92300  0.96780  1.0000 -0.1120901054
C   C100      1.0  0.62040  0.07110  0.91140  1.0000 -0.0882636038
C   C101      1.0  0.62100  0.02120  0.97050  1.0000 0.0490358755
C   C102      1.0  0.66850  0.07110  0.04280  1.0000 0.3225888831
N   N1        1.0  0.10580  0.39820  0.89550  1.0000 -0.3979606332
N   N2        1.0  0.16130  0.80670  0.66910  1.0000 -0.3483160438
N   N3        1.0  0.60180  0.70760  0.89550  1.0000 -0.3979606332
N   N4        1.0  0.19330  0.35460  0.66910  1.0000 -0.3483160438
N   N5        1.0  0.29240  0.89420  0.89550  1.0000 -0.3979606332
N   N6        1.0  0.64540  0.83870  0.66910  1.0000 -0.3483160438
N   N7        1.0  0.89420  0.60180  0.10450  1.0000 -0.3979606332
N   N8        1.0  0.83870  0.19330  0.33090  1.0000 -0.3483160438
N   N9        1.0  0.39820  0.29240  0.10450  1.0000 -0.3979606332
N   N10       1.0  0.80670  0.64540  0.33090  1.0000 -0.3483160438
N   N11       1.0  0.70760  0.10580  0.10450  1.0000 -0.3979606332
N   N12       1.0  0.35460  0.16130  0.33090  1.0000 -0.3483160438
O   O1        1.0  0.78570  0.34060  0.24470  1.0000 -0.47118183
O   O2        1.0  0.79760  0.42730  0.39880  1.0000 -0.4491740666
O   O3        1.0  0.03670  0.73430  0.25020  1.0000 -0.6534501317
O   O4        1.0  0.23770  0.87210  0.26380  1.0000 -0.5799187424
O   O5        1.0  0.14770  0.82240  0.11160  1.0000 -0.5582950515
O   O6        1.0  0.17660  0.68870  0.20060  1.0000 -0.6083107792
O   O7        1.0  0.65940  0.44510  0.24470  1.0000 -0.47118183
O   O8        1.0  0.57270  0.37030  0.39880  1.0000 -0.4491740666
O   O9        1.0  0.26570  0.30240  0.25020  1.0000 -0.6534501317
O   O10       1.0  0.12790  0.36560  0.26380  1.0000 -0.5799187424
O   O11       1.0  0.17760  0.32530  0.11160  1.0000 -0.5582950515
O   O12       1.0  0.31130  0.48790  0.20060  1.0000 -0.6083107792
O   O13       1.0  0.55490  0.21430  0.24470  1.0000 -0.47118183
O   O14       1.0  0.62970  0.20240  0.39880  1.0000 -0.4491740666
O   O15       1.0  0.69760  0.96330  0.25020  1.0000 -0.6534501317
O   O16       1.0  0.63440  0.76230  0.26380  1.0000 -0.5799187424
O   O17       1.0  0.67470  0.85230  0.11160  1.0000 -0.5582950515
O   O18       1.0  0.51210  0.82340  0.20060  1.0000 -0.6083107792
O   O19       1.0  0.21430  0.65940  0.75530  1.0000 -0.47118183
O   O20       1.0  0.20240  0.57270  0.60120  1.0000 -0.4491740666
O   O21       1.0  0.96330  0.26570  0.74980  1.0000 -0.6534501317
O   O22       1.0  0.76230  0.12790  0.73620  1.0000 -0.5799187424
O   O23       1.0  0.85230  0.17760  0.88840  1.0000 -0.5582950515
O   O24       1.0  0.82340  0.31130  0.79940  1.0000 -0.6083107792
O   O25       1.0  0.34060  0.55490  0.75530  1.0000 -0.47118183
O   O26       1.0  0.42730  0.62970  0.60120  1.0000 -0.4491740666
O   O27       1.0  0.73430  0.69760  0.74980  1.0000 -0.6534501317
O   O28       1.0  0.87210  0.63440  0.73620  1.0000 -0.5799187424
O   O29       1.0  0.82240  0.67470  0.88840  1.0000 -0.5582950515
O   O30       1.0  0.68870  0.51210  0.79940  1.0000 -0.6083107792
O   O31       1.0  0.44510  0.78570  0.75530  1.0000 -0.47118183
O   O32       1.0  0.37030  0.79760  0.60120  1.0000 -0.4491740666
O   O33       1.0  0.30240  0.03670  0.74980  1.0000 -0.6534501317
O   O34       1.0  0.36560  0.23770  0.73620  1.0000 -0.5799187424
O   O35       1.0  0.32530  0.14770  0.88840  1.0000 -0.5582950515
O   O36       1.0  0.48790  0.17660  0.79940  1.0000 -0.6083107792
