# DDEC6 charges by PACMAN v1.1 (https://github.com/mtap-research/PACMAN-charge/)
data_2010[Cd][nuc]3[ION]7
_chemical_formula_sum              "Cd4 H144 C192 N48 Cl4 O16"
_cell_length_a       15.8792
_cell_length_b       15.8792
_cell_length_c       21.594
_cell_angle_alpha    90
_cell_angle_beta     90
_cell_angle_gamma    90

_symmetry_space_group_name_H-M    "P 1"
_symmetry_Int_Tables_number       1

loop_
  _symmetry_equiv_pos_as_xyz
  'x, y, z'

loop_
  _atom_site_type_symbol
  _atom_site_label
  _atom_site_symmetry_multiplicity
  _atom_site_fract_x
  _atom_site_fract_y
  _atom_site_fract_z
  _atom_site_occupancy
  _atom_site_charge
Cd  Cd1       1.0  0.05839  0.94161  0.25000  1.0000 0.6447019307
Cd  Cd2       1.0  0.94161  0.05839  0.75000  1.0000 0.6447019307
Cd  Cd3       1.0  0.55839  0.55839  0.50000  1.0000 0.6447019307
Cd  Cd4       1.0  0.44161  0.44161  0.00000  1.0000 0.6447019307
H   H1        1.0  0.54250  0.61000  0.34790  1.0000 0.0989203925
H   H2        1.0  0.45750  0.39000  0.84790  1.0000 0.0989203925
H   H3        1.0  0.89000  0.04250  0.59790  1.0000 0.0989203925
H   H4        1.0  0.11000  0.95750  0.09790  1.0000 0.0989203925
H   H5        1.0  0.95750  0.11000  0.90210  1.0000 0.0989203925
H   H6        1.0  0.04250  0.89000  0.40210  1.0000 0.0989203925
H   H7        1.0  0.61000  0.54250  0.65210  1.0000 0.0989203925
H   H8        1.0  0.39000  0.45750  0.15210  1.0000 0.0989203925
H   H9        1.0  0.58680  0.71440  0.28410  1.0000 0.1295741094
H   H10       1.0  0.41320  0.28560  0.78410  1.0000 0.1295741094
H   H11       1.0  0.78560  0.08680  0.53410  1.0000 0.1295741094
H   H12       1.0  0.21440  0.91320  0.03410  1.0000 0.1295741094
H   H13       1.0  0.91320  0.21440  0.96590  1.0000 0.1295741094
H   H14       1.0  0.08680  0.78560  0.46590  1.0000 0.1295741094
H   H15       1.0  0.71440  0.58680  0.71590  1.0000 0.1295741094
H   H16       1.0  0.28560  0.41320  0.21590  1.0000 0.1295741094
H   H17       1.0  0.78600  0.74160  0.39690  1.0000 0.1295741094
H   H18       1.0  0.21400  0.25840  0.89690  1.0000 0.1295741094
H   H19       1.0  0.75840  0.28600  0.64690  1.0000 0.1295741094
H   H20       1.0  0.24160  0.71400  0.14690  1.0000 0.1295741094
H   H21       1.0  0.71400  0.24160  0.85310  1.0000 0.1295741094
H   H22       1.0  0.28600  0.75840  0.35310  1.0000 0.1295741094
H   H23       1.0  0.74160  0.78600  0.60310  1.0000 0.1295741094
H   H24       1.0  0.25840  0.21400  0.10310  1.0000 0.1295741094
H   H25       1.0  0.72950  0.64170  0.45960  1.0000 0.0989203925
H   H26       1.0  0.27050  0.35830  0.95960  1.0000 0.0989203925
H   H27       1.0  0.85830  0.22950  0.70960  1.0000 0.0989203925
H   H28       1.0  0.14170  0.77050  0.20960  1.0000 0.0989203925
H   H29       1.0  0.77050  0.14170  0.79040  1.0000 0.0989203925
H   H30       1.0  0.22950  0.85830  0.29040  1.0000 0.0989203925
H   H31       1.0  0.64170  0.72950  0.54040  1.0000 0.0989203925
H   H32       1.0  0.35830  0.27050  0.04040  1.0000 0.0989203925
H   H33       1.0  0.65400  0.79950  0.22050  1.0000 0.0989203925
H   H34       1.0  0.34600  0.20050  0.72050  1.0000 0.0989203925
H   H35       1.0  0.70050  0.15400  0.47050  1.0000 0.0989203925
H   H36       1.0  0.29950  0.84600  0.97050  1.0000 0.0989203925
H   H37       1.0  0.84600  0.29950  0.02950  1.0000 0.0989203925
H   H38       1.0  0.15400  0.70050  0.52950  1.0000 0.0989203925
H   H39       1.0  0.79950  0.65400  0.77950  1.0000 0.0989203925
H   H40       1.0  0.20050  0.34600  0.27950  1.0000 0.0989203925
H   H41       1.0  0.70110  0.91380  0.16630  1.0000 0.1099235295
H   H42       1.0  0.29890  0.08620  0.66630  1.0000 0.1099235295
H   H43       1.0  0.58620  0.20110  0.41630  1.0000 0.1099235295
H   H44       1.0  0.41380  0.79890  0.91630  1.0000 0.1099235295
H   H45       1.0  0.79890  0.41380  0.08370  1.0000 0.1099235295
H   H46       1.0  0.20110  0.58620  0.58370  1.0000 0.1099235295
H   H47       1.0  0.91380  0.70110  0.83370  1.0000 0.1099235295
H   H48       1.0  0.08620  0.29890  0.33370  1.0000 0.1099235295
H   H49       1.0  0.79710  0.00610  0.20920  1.0000 0.1099235295
H   H50       1.0  0.20290  0.99390  0.70920  1.0000 0.1099235295
H   H51       1.0  0.49390  0.29710  0.45920  1.0000 0.1099235295
H   H52       1.0  0.50610  0.70290  0.95920  1.0000 0.1099235295
H   H53       1.0  0.70290  0.50610  0.04080  1.0000 0.1099235295
H   H54       1.0  0.29710  0.49390  0.54080  1.0000 0.1099235295
H   H55       1.0  0.00610  0.79710  0.79080  1.0000 0.1099235295
H   H56       1.0  0.99390  0.20290  0.29080  1.0000 0.1099235295
H   H57       1.0  0.80280  0.86110  0.36240  1.0000 0.0989203925
H   H58       1.0  0.19720  0.13890  0.86240  1.0000 0.0989203925
H   H59       1.0  0.63890  0.30280  0.61240  1.0000 0.0989203925
H   H60       1.0  0.36110  0.69720  0.11240  1.0000 0.0989203925
H   H61       1.0  0.69720  0.36110  0.88760  1.0000 0.0989203925
H   H62       1.0  0.30280  0.63890  0.38760  1.0000 0.0989203925
H   H63       1.0  0.86110  0.80280  0.63760  1.0000 0.0989203925
H   H64       1.0  0.13890  0.19720  0.13760  1.0000 0.0989203925
H   H65       1.0  0.04800  0.12400  0.46010  1.0000 0.1099235295
H   H66       1.0  0.95200  0.87600  0.96010  1.0000 0.1099235295
H   H67       1.0  0.37600  0.54800  0.71010  1.0000 0.1099235295
H   H68       1.0  0.62400  0.45200  0.21010  1.0000 0.1099235295
H   H69       1.0  0.45200  0.62400  0.78990  1.0000 0.1099235295
H   H70       1.0  0.54800  0.37600  0.28990  1.0000 0.1099235295
H   H71       1.0  0.12400  0.04800  0.53990  1.0000 0.1099235295
H   H72       1.0  0.87600  0.95200  0.03990  1.0000 0.1099235295
H   H73       1.0  0.06550  0.23480  0.52760  1.0000 0.1099235295
H   H74       1.0  0.93450  0.76520  0.02760  1.0000 0.1099235295
H   H75       1.0  0.26520  0.56550  0.77760  1.0000 0.1099235295
H   H76       1.0  0.73480  0.43450  0.27760  1.0000 0.1099235295
H   H77       1.0  0.43450  0.73480  0.72240  1.0000 0.1099235295
H   H78       1.0  0.56550  0.26520  0.22240  1.0000 0.1099235295
H   H79       1.0  0.23480  0.06550  0.47240  1.0000 0.1099235295
H   H80       1.0  0.76520  0.93450  0.97240  1.0000 0.1099235295
H   H81       1.0  0.96680  0.33800  0.53440  1.0000 0.117512671
H   H82       1.0  0.03320  0.66200  0.03440  1.0000 0.117512671
H   H83       1.0  0.16200  0.46680  0.78440  1.0000 0.117512671
H   H84       1.0  0.83800  0.53320  0.28440  1.0000 0.117512671
H   H85       1.0  0.53320  0.83800  0.71560  1.0000 0.117512671
H   H86       1.0  0.46680  0.16200  0.21560  1.0000 0.117512671
H   H87       1.0  0.33800  0.96680  0.46560  1.0000 0.117512671
H   H88       1.0  0.66200  0.03320  0.96560  1.0000 0.117512671
H   H89       1.0  0.82620  0.22510  0.40730  1.0000 0.0989203925
H   H90       1.0  0.17380  0.77490  0.90730  1.0000 0.0989203925
H   H91       1.0  0.27490  0.32620  0.65730  1.0000 0.0989203925
H   H92       1.0  0.72510  0.67380  0.15730  1.0000 0.0989203925
H   H93       1.0  0.67380  0.72510  0.84270  1.0000 0.0989203925
H   H94       1.0  0.32620  0.27490  0.34270  1.0000 0.0989203925
H   H95       1.0  0.22510  0.82620  0.59270  1.0000 0.0989203925
H   H96       1.0  0.77490  0.17380  0.09270  1.0000 0.0989203925
H   H97       1.0  0.84620  0.39780  0.56460  1.0000 0.1295741094
H   H98       1.0  0.15380  0.60220  0.06460  1.0000 0.1295741094
H   H99       1.0  0.10220  0.34620  0.81460  1.0000 0.1295741094
H   H100      1.0  0.89780  0.65380  0.31460  1.0000 0.1295741094
H   H101      1.0  0.65380  0.89780  0.68540  1.0000 0.1295741094
H   H102      1.0  0.34620  0.10220  0.18540  1.0000 0.1295741094
H   H103      1.0  0.39780  0.84620  0.43540  1.0000 0.1295741094
H   H104      1.0  0.60220  0.15380  0.93540  1.0000 0.1295741094
H   H105      1.0  0.73460  0.48850  0.57480  1.0000 0.0989203925
H   H106      1.0  0.26540  0.51150  0.07480  1.0000 0.0989203925
H   H107      1.0  0.01150  0.23460  0.82480  1.0000 0.0989203925
H   H108      1.0  0.98850  0.76540  0.32480  1.0000 0.0989203925
H   H109      1.0  0.76540  0.98850  0.67520  1.0000 0.0989203925
H   H110      1.0  0.23460  0.01150  0.17520  1.0000 0.0989203925
H   H111      1.0  0.48850  0.73460  0.42520  1.0000 0.0989203925
H   H112      1.0  0.51150  0.26540  0.92520  1.0000 0.0989203925
H   H113      1.0  0.65960  0.44120  0.40740  1.0000 0.0989203925
H   H114      1.0  0.34040  0.55880  0.90740  1.0000 0.0989203925
H   H115      1.0  0.05880  0.15960  0.65740  1.0000 0.0989203925
H   H116      1.0  0.94120  0.84040  0.15740  1.0000 0.0989203925
H   H117      1.0  0.84040  0.94120  0.84260  1.0000 0.0989203925
H   H118      1.0  0.15960  0.05880  0.34260  1.0000 0.0989203925
H   H119      1.0  0.44120  0.65960  0.59260  1.0000 0.0989203925
H   H120      1.0  0.55880  0.34040  0.09260  1.0000 0.0989203925
H   H121      1.0  0.76860  0.34940  0.39260  1.0000 0.1295741094
H   H122      1.0  0.23140  0.65060  0.89260  1.0000 0.1295741094
H   H123      1.0  0.15060  0.26860  0.64260  1.0000 0.1295741094
H   H124      1.0  0.84940  0.73140  0.14260  1.0000 0.1295741094
H   H125      1.0  0.73140  0.84940  0.85740  1.0000 0.1295741094
H   H126      1.0  0.26860  0.15060  0.35740  1.0000 0.1295741094
H   H127      1.0  0.34940  0.76860  0.60740  1.0000 0.1295741094
H   H128      1.0  0.65060  0.23140  0.10740  1.0000 0.1295741094
H   H129      1.0  0.74470  0.02820  0.39140  1.0000 0.2461811631
H   H130      1.0  0.25530  0.97180  0.89140  1.0000 0.2461811631
H   H131      1.0  0.47180  0.24470  0.64140  1.0000 0.2461811631
H   H132      1.0  0.52820  0.75530  0.14140  1.0000 0.2461811631
H   H133      1.0  0.75530  0.52820  0.85860  1.0000 0.2461811631
H   H134      1.0  0.24470  0.47180  0.35860  1.0000 0.2461811631
H   H135      1.0  0.02820  0.74470  0.60860  1.0000 0.2461811631
H   H136      1.0  0.97180  0.25530  0.10860  1.0000 0.2461811631
H   H137      1.0  0.74160  0.10450  0.35470  1.0000 0.2421136676
H   H138      1.0  0.25840  0.89550  0.85470  1.0000 0.2421136676
H   H139      1.0  0.39550  0.24160  0.60470  1.0000 0.2421136676
H   H140      1.0  0.60450  0.75840  0.10470  1.0000 0.2421136676
H   H141      1.0  0.75840  0.60450  0.89530  1.0000 0.2421136676
H   H142      1.0  0.24160  0.39550  0.39530  1.0000 0.2421136676
H   H143      1.0  0.10450  0.74160  0.64530  1.0000 0.2421136676
H   H144      1.0  0.89550  0.25840  0.14530  1.0000 0.2421136676
C   C1        1.0  0.59020  0.64020  0.35940  1.0000 0.0686488238
C   C2        1.0  0.40980  0.35980  0.85940  1.0000 0.0686488238
C   C3        1.0  0.85980  0.09020  0.60940  1.0000 0.0686488238
C   C4        1.0  0.14020  0.90980  0.10940  1.0000 0.0686488238
C   C5        1.0  0.90980  0.14020  0.89060  1.0000 0.0686488238
C   C6        1.0  0.09020  0.85980  0.39060  1.0000 0.0686488238
C   C7        1.0  0.64020  0.59020  0.64060  1.0000 0.0686488238
C   C8        1.0  0.35980  0.40980  0.14060  1.0000 0.0686488238
C   C9        1.0  0.61680  0.70190  0.31990  1.0000 -0.2006376368
C   C10       1.0  0.38320  0.29810  0.81990  1.0000 -0.2006376368
C   C11       1.0  0.79810  0.11680  0.56990  1.0000 -0.2006376368
C   C12       1.0  0.20190  0.88320  0.06990  1.0000 -0.2006376368
C   C13       1.0  0.88320  0.20190  0.93010  1.0000 -0.2006376368
C   C14       1.0  0.11680  0.79810  0.43010  1.0000 -0.2006376368
C   C15       1.0  0.70190  0.61680  0.68010  1.0000 -0.2006376368
C   C16       1.0  0.29810  0.38320  0.18010  1.0000 -0.2006376368
C   C17       1.0  0.69190  0.74660  0.33500  1.0000 0.117512671
C   C18       1.0  0.30810  0.25340  0.83500  1.0000 0.117512671
C   C19       1.0  0.75340  0.19190  0.58500  1.0000 0.117512671
C   C20       1.0  0.24660  0.80810  0.08500  1.0000 0.117512671
C   C21       1.0  0.80810  0.24660  0.91500  1.0000 0.117512671
C   C22       1.0  0.19190  0.75340  0.41500  1.0000 0.117512671
C   C23       1.0  0.74660  0.69190  0.66500  1.0000 0.117512671
C   C24       1.0  0.25340  0.30810  0.16500  1.0000 0.117512671
C   C25       1.0  0.73380  0.71860  0.38700  1.0000 -0.1917433478
C   C26       1.0  0.26620  0.28140  0.88700  1.0000 -0.1917433478
C   C27       1.0  0.78140  0.23380  0.63700  1.0000 -0.1917433478
C   C28       1.0  0.21860  0.76620  0.13700  1.0000 -0.1917433478
C   C29       1.0  0.76620  0.21860  0.86300  1.0000 -0.1917433478
C   C30       1.0  0.23380  0.78140  0.36300  1.0000 -0.1917433478
C   C31       1.0  0.71860  0.73380  0.61300  1.0000 -0.1917433478
C   C32       1.0  0.28140  0.26620  0.11300  1.0000 -0.1917433478
C   C33       1.0  0.70000  0.65770  0.42430  1.0000 0.0290525096
C   C34       1.0  0.30000  0.34230  0.92430  1.0000 0.0290525096
C   C35       1.0  0.84230  0.20000  0.67430  1.0000 0.0290525096
C   C36       1.0  0.15770  0.80000  0.17430  1.0000 0.0290525096
C   C37       1.0  0.80000  0.15770  0.82570  1.0000 0.0290525096
C   C38       1.0  0.20000  0.84230  0.32570  1.0000 0.0290525096
C   C39       1.0  0.65770  0.70000  0.57570  1.0000 0.0290525096
C   C40       1.0  0.34230  0.30000  0.07570  1.0000 0.0290525096
C   C41       1.0  0.72130  0.81870  0.29770  1.0000 0.0686488238
C   C42       1.0  0.27870  0.18130  0.79770  1.0000 0.0686488238
C   C43       1.0  0.68130  0.22130  0.54770  1.0000 0.0686488238
C   C44       1.0  0.31870  0.77870  0.04770  1.0000 0.0686488238
C   C45       1.0  0.77870  0.31870  0.95230  1.0000 0.0686488238
C   C46       1.0  0.22130  0.68130  0.45230  1.0000 0.0686488238
C   C47       1.0  0.81870  0.72130  0.70230  1.0000 0.0686488238
C   C48       1.0  0.18130  0.27870  0.20230  1.0000 0.0686488238
C   C49       1.0  0.69310  0.83540  0.23870  1.0000 -0.1589089366
C   C50       1.0  0.30690  0.16460  0.73870  1.0000 -0.1589089366
C   C51       1.0  0.66460  0.19310  0.48870  1.0000 -0.1589089366
C   C52       1.0  0.33540  0.80690  0.98870  1.0000 -0.1589089366
C   C53       1.0  0.80690  0.33540  0.01130  1.0000 -0.1589089366
C   C54       1.0  0.19310  0.66460  0.51130  1.0000 -0.1589089366
C   C55       1.0  0.83540  0.69310  0.76130  1.0000 -0.1589089366
C   C56       1.0  0.16460  0.30690  0.26130  1.0000 -0.1589089366
C   C57       1.0  0.72150  0.90410  0.20600  1.0000 -0.0991302411
C   C58       1.0  0.27850  0.09590  0.70600  1.0000 -0.0991302411
C   C59       1.0  0.59590  0.22150  0.45600  1.0000 -0.0991302411
C   C60       1.0  0.40410  0.77850  0.95600  1.0000 -0.0991302411
C   C61       1.0  0.77850  0.40410  0.04400  1.0000 -0.0991302411
C   C62       1.0  0.22150  0.59590  0.54400  1.0000 -0.0991302411
C   C63       1.0  0.90410  0.72150  0.79400  1.0000 -0.0991302411
C   C64       1.0  0.09590  0.27850  0.29400  1.0000 -0.0991302411
C   C65       1.0  0.77950  0.95860  0.23090  1.0000 -0.1589089366
C   C66       1.0  0.22050  0.04140  0.73090  1.0000 -0.1589089366
C   C67       1.0  0.54140  0.27950  0.48090  1.0000 -0.1589089366
C   C68       1.0  0.45860  0.72050  0.98090  1.0000 -0.1589089366
C   C69       1.0  0.72050  0.45860  0.01910  1.0000 -0.1589089366
C   C70       1.0  0.27950  0.54140  0.51910  1.0000 -0.1589089366
C   C71       1.0  0.95860  0.77950  0.76910  1.0000 -0.1589089366
C   C72       1.0  0.04140  0.22050  0.26910  1.0000 -0.1589089366
C   C73       1.0  0.81170  0.94070  0.29010  1.0000 0.0178362106
C   C74       1.0  0.18830  0.05930  0.79010  1.0000 0.0178362106
C   C75       1.0  0.55930  0.31170  0.54010  1.0000 0.0178362106
C   C76       1.0  0.44070  0.68830  0.04010  1.0000 0.0178362106
C   C77       1.0  0.68830  0.44070  0.95990  1.0000 0.0178362106
C   C78       1.0  0.31170  0.55930  0.45990  1.0000 0.0178362106
C   C79       1.0  0.94070  0.81170  0.70990  1.0000 0.0178362106
C   C80       1.0  0.05930  0.18830  0.20990  1.0000 0.0178362106
C   C81       1.0  0.78190  0.87190  0.32300  1.0000 -0.2006376368
C   C82       1.0  0.21810  0.12810  0.82300  1.0000 -0.1917433478
C   C83       1.0  0.62810  0.28190  0.57300  1.0000 -0.2006376368
C   C84       1.0  0.37190  0.71810  0.07300  1.0000 -0.2006376368
C   C85       1.0  0.71810  0.37190  0.92700  1.0000 -0.1917433478
C   C86       1.0  0.28190  0.62810  0.42700  1.0000 -0.2006376368
C   C87       1.0  0.87190  0.78190  0.67700  1.0000 -0.2006376368
C   C88       1.0  0.12810  0.21810  0.17700  1.0000 -0.2006376368
C   C89       1.0  0.87480  0.99620  0.32070  1.0000 0.1863523154
C   C90       1.0  0.12520  0.00380  0.82070  1.0000 0.1863523154
C   C91       1.0  0.50380  0.37480  0.57070  1.0000 0.1863523154
C   C92       1.0  0.49620  0.62520  0.07070  1.0000 0.1863523154
C   C93       1.0  0.62520  0.49620  0.92930  1.0000 0.1863523154
C   C94       1.0  0.37480  0.50380  0.42930  1.0000 0.1863523154
C   C95       1.0  0.99620  0.87480  0.67930  1.0000 0.1863523154
C   C96       1.0  0.00380  0.12520  0.17930  1.0000 0.1863523154
C   C97       1.0  0.92490  0.09220  0.38300  1.0000 0.1776987287
C   C98       1.0  0.07510  0.90780  0.88300  1.0000 0.1776987287
C   C99       1.0  0.40780  0.42490  0.63300  1.0000 0.1776987287
C   C100      1.0  0.59220  0.57510  0.13300  1.0000 0.1776987287
C   C101      1.0  0.57510  0.59220  0.86700  1.0000 0.1776987287
C   C102      1.0  0.42490  0.40780  0.36700  1.0000 0.1776987287
C   C103      1.0  0.09220  0.92490  0.61700  1.0000 0.1776987287
C   C104      1.0  0.90780  0.07510  0.11700  1.0000 0.1776987287
C   C105      1.0  0.93360  0.16170  0.42750  1.0000 0.0435262053
C   C106      1.0  0.06640  0.83830  0.92750  1.0000 0.0435262053
C   C107      1.0  0.33830  0.43360  0.67750  1.0000 0.0435262053
C   C108      1.0  0.66170  0.56640  0.17750  1.0000 0.0435262053
C   C109      1.0  0.56640  0.66170  0.82250  1.0000 0.0435262053
C   C110      1.0  0.43360  0.33830  0.32250  1.0000 0.0435262053
C   C111      1.0  0.16170  0.93360  0.57250  1.0000 0.0435262053
C   C112      1.0  0.83830  0.06640  0.07250  1.0000 0.0435262053
C   C113      1.0  0.00710  0.16570  0.46330  1.0000 -0.1589089366
C   C114      1.0  0.99290  0.83430  0.96330  1.0000 -0.1589089366
C   C115      1.0  0.33430  0.50710  0.71330  1.0000 -0.1589089366
C   C116      1.0  0.66570  0.49290  0.21330  1.0000 -0.1589089366
C   C117      1.0  0.49290  0.66570  0.78670  1.0000 -0.1589089366
C   C118      1.0  0.50710  0.33430  0.28670  1.0000 -0.1589089366
C   C119      1.0  0.16570  0.00710  0.53670  1.0000 -0.1589089366
C   C120      1.0  0.83430  0.99290  0.03670  1.0000 -0.1589089366
C   C121      1.0  0.01750  0.23200  0.50300  1.0000 -0.105314738
C   C122      1.0  0.98250  0.76800  0.00300  1.0000 -0.105314738
C   C123      1.0  0.26800  0.51750  0.75300  1.0000 -0.105314738
C   C124      1.0  0.73200  0.48250  0.25300  1.0000 -0.105314738
C   C125      1.0  0.48250  0.73200  0.74700  1.0000 -0.105314738
C   C126      1.0  0.51750  0.26800  0.24700  1.0000 -0.105314738
C   C127      1.0  0.23200  0.01750  0.49700  1.0000 -0.105314738
C   C128      1.0  0.76800  0.98250  0.99700  1.0000 -0.105314738
C   C129      1.0  0.95850  0.29380  0.50680  1.0000 -0.1589089366
C   C130      1.0  0.04150  0.70620  0.00680  1.0000 -0.1589089366
C   C131      1.0  0.20620  0.45850  0.75680  1.0000 -0.1589089366
C   C132      1.0  0.79380  0.54150  0.25680  1.0000 -0.1589089366
C   C133      1.0  0.54150  0.79380  0.74320  1.0000 -0.1589089366
C   C134      1.0  0.45850  0.20620  0.24320  1.0000 -0.1589089366
C   C135      1.0  0.29380  0.95850  0.49320  1.0000 -0.1589089366
C   C136      1.0  0.70620  0.04150  0.99320  1.0000 -0.1589089366
C   C137      1.0  0.88660  0.29290  0.47100  1.0000 0.0686488238
C   C138      1.0  0.11340  0.70710  0.97100  1.0000 0.0686488238
C   C139      1.0  0.20710  0.38660  0.72100  1.0000 0.0686488238
C   C140      1.0  0.79290  0.61340  0.22100  1.0000 0.0686488238
C   C141      1.0  0.61340  0.79290  0.77900  1.0000 0.0686488238
C   C142      1.0  0.38660  0.20710  0.27900  1.0000 0.0686488238
C   C143      1.0  0.29290  0.88660  0.52900  1.0000 0.0686488238
C   C144      1.0  0.70710  0.11340  0.02900  1.0000 0.0686488238
C   C145      1.0  0.87440  0.22690  0.43170  1.0000 -0.1917433478
C   C146      1.0  0.12560  0.77310  0.93170  1.0000 -0.1917433478
C   C147      1.0  0.27310  0.37440  0.68170  1.0000 -0.1917433478
C   C148      1.0  0.72690  0.62560  0.18170  1.0000 -0.1917433478
C   C149      1.0  0.62560  0.72690  0.81830  1.0000 -0.1917433478
C   C150      1.0  0.37440  0.27310  0.31830  1.0000 -0.1917433478
C   C151      1.0  0.22690  0.87440  0.56830  1.0000 -0.1917433478
C   C152      1.0  0.77310  0.12560  0.06830  1.0000 -0.1917433478
C   C153      1.0  0.81910  0.35790  0.47780  1.0000 0.117512671
C   C154      1.0  0.18090  0.64210  0.97780  1.0000 0.117512671
C   C155      1.0  0.14210  0.31910  0.72780  1.0000 0.117512671
C   C156      1.0  0.85790  0.68090  0.22780  1.0000 0.117512671
C   C157      1.0  0.68090  0.85790  0.77220  1.0000 0.117512671
C   C158      1.0  0.31910  0.14210  0.27220  1.0000 0.117512671
C   C159      1.0  0.35790  0.81910  0.52220  1.0000 0.117512671
C   C160      1.0  0.64210  0.18090  0.02220  1.0000 0.117512671
C   C161      1.0  0.80840  0.40430  0.53210  1.0000 -0.2006376368
C   C162      1.0  0.19160  0.59570  0.03210  1.0000 -0.2006376368
C   C163      1.0  0.09570  0.30840  0.78210  1.0000 -0.2006376368
C   C164      1.0  0.90430  0.69160  0.28210  1.0000 -0.2006376368
C   C165      1.0  0.69160  0.90430  0.71790  1.0000 -0.2006376368
C   C166      1.0  0.30840  0.09570  0.21790  1.0000 -0.2006376368
C   C167      1.0  0.40430  0.80840  0.46790  1.0000 -0.2006376368
C   C168      1.0  0.59570  0.19160  0.96790  1.0000 -0.2006376368
C   C169      1.0  0.74160  0.45990  0.53750  1.0000 0.0686488238
C   C170      1.0  0.25840  0.54010  0.03750  1.0000 0.0686488238
C   C171      1.0  0.04010  0.24160  0.78750  1.0000 0.0686488238
C   C172      1.0  0.95990  0.75840  0.28750  1.0000 0.0686488238
C   C173      1.0  0.75840  0.95990  0.71250  1.0000 0.0686488238
C   C174      1.0  0.24160  0.04010  0.21250  1.0000 0.0686488238
C   C175      1.0  0.45990  0.74160  0.46250  1.0000 0.0686488238
C   C176      1.0  0.54010  0.25840  0.96250  1.0000 0.0686488238
C   C177      1.0  0.69750  0.43240  0.43960  1.0000 0.0752574756
C   C178      1.0  0.30250  0.56760  0.93960  1.0000 0.0752574756
C   C179      1.0  0.06760  0.19750  0.68960  1.0000 0.0752574756
C   C180      1.0  0.93240  0.80250  0.18960  1.0000 0.0752574756
C   C181      1.0  0.80250  0.93240  0.81040  1.0000 0.0752574756
C   C182      1.0  0.19750  0.06760  0.31040  1.0000 0.0752574756
C   C183      1.0  0.43240  0.69750  0.56040  1.0000 0.0752574756
C   C184      1.0  0.56760  0.30250  0.06040  1.0000 0.0752574756
C   C185      1.0  0.76260  0.37580  0.43080  1.0000 -0.2006376368
C   C186      1.0  0.23740  0.62420  0.93080  1.0000 -0.205237952
C   C187      1.0  0.12420  0.26260  0.68080  1.0000 -0.2006376368
C   C188      1.0  0.87580  0.73740  0.18080  1.0000 -0.205237952
C   C189      1.0  0.73740  0.87580  0.81920  1.0000 -0.205237952
C   C190      1.0  0.26260  0.12420  0.31920  1.0000 -0.2006376368
C   C191      1.0  0.37580  0.76260  0.56920  1.0000 -0.205237952
C   C192      1.0  0.62420  0.23740  0.06920  1.0000 -0.2006376368
N   N1        1.0  0.62570  0.61980  0.41230  1.0000 -0.2351237581
N   N2        1.0  0.37430  0.38020  0.91230  1.0000 -0.2351237581
N   N3        1.0  0.88020  0.12570  0.66230  1.0000 -0.2351237581
N   N4        1.0  0.11980  0.87430  0.16230  1.0000 -0.2351237581
N   N5        1.0  0.87430  0.11980  0.83770  1.0000 -0.2351237581
N   N6        1.0  0.12570  0.88020  0.33770  1.0000 -0.2351237581
N   N7        1.0  0.61980  0.62570  0.58770  1.0000 -0.2351237581
N   N8        1.0  0.38020  0.37430  0.08770  1.0000 -0.2351237581
N   N9        1.0  0.95530  0.99420  0.31640  1.0000 -0.2294574351
N   N10       1.0  0.04470  0.00580  0.81640  1.0000 -0.2294574351
N   N11       1.0  0.50580  0.45530  0.56640  1.0000 -0.2294574351
N   N12       1.0  0.49420  0.54470  0.06640  1.0000 -0.2294574351
N   N13       1.0  0.54470  0.49420  0.93360  1.0000 -0.2294574351
N   N14       1.0  0.45530  0.50580  0.43360  1.0000 -0.2294574351
N   N15       1.0  0.99420  0.95530  0.68360  1.0000 -0.2294574351
N   N16       1.0  0.00580  0.04470  0.18360  1.0000 -0.2294574351
N   N17       1.0  0.98880  0.05470  0.35550  1.0000 -0.2827106872
N   N18       1.0  0.01120  0.94530  0.85550  1.0000 -0.2827106872
N   N19       1.0  0.44530  0.48880  0.60550  1.0000 -0.2827106872
N   N20       1.0  0.55470  0.51120  0.10550  1.0000 -0.2827106872
N   N21       1.0  0.51120  0.55470  0.89450  1.0000 -0.2827106872
N   N22       1.0  0.48880  0.44530  0.39450  1.0000 -0.2827106872
N   N23       1.0  0.05470  0.98880  0.64450  1.0000 -0.2827106872
N   N24       1.0  0.94530  0.01120  0.14450  1.0000 -0.2827106872
N   N25       1.0  0.85250  0.05690  0.36180  1.0000 0.0501517719
N   N26       1.0  0.14750  0.94310  0.86180  1.0000 0.0501517719
N   N27       1.0  0.44310  0.35250  0.61180  1.0000 0.0501517719
N   N28       1.0  0.55690  0.64750  0.11180  1.0000 0.0501517719
N   N29       1.0  0.64750  0.55690  0.88820  1.0000 0.0501517719
N   N30       1.0  0.35250  0.44310  0.38820  1.0000 0.0501517719
N   N31       1.0  0.05690  0.85250  0.63820  1.0000 0.0501517719
N   N32       1.0  0.94310  0.14750  0.13820  1.0000 0.0501517719
N   N33       1.0  0.77050  0.07680  0.38320  1.0000 -0.4952316553
N   N34       1.0  0.22950  0.92320  0.88320  1.0000 -0.4947153046
N   N35       1.0  0.42320  0.27050  0.63320  1.0000 -0.4947153046
N   N36       1.0  0.57680  0.72950  0.13320  1.0000 -0.4947153046
N   N37       1.0  0.72950  0.57680  0.86680  1.0000 -0.4947153046
N   N38       1.0  0.27050  0.42320  0.36680  1.0000 -0.4947153046
N   N39       1.0  0.07680  0.77050  0.61680  1.0000 -0.4947153046
N   N40       1.0  0.92320  0.22950  0.11680  1.0000 -0.4947153046
N   N41       1.0  0.68670  0.47460  0.49190  1.0000 -0.2294574351
N   N42       1.0  0.31330  0.52540  0.99190  1.0000 -0.2294574351
N   N43       1.0  0.02540  0.18670  0.74190  1.0000 -0.2294574351
N   N44       1.0  0.97460  0.81330  0.24190  1.0000 -0.2294574351
N   N45       1.0  0.81330  0.97460  0.75810  1.0000 -0.2294574351
N   N46       1.0  0.18670  0.02540  0.25810  1.0000 -0.2294574351
N   N47       1.0  0.47460  0.68670  0.50810  1.0000 -0.2294574351
N   N48       1.0  0.52540  0.31330  0.00810  1.0000 -0.2294574351
Cl  Cl1       1.0  0.88070  0.88070  0.50000  1.0000 0.8219065397
Cl  Cl2       1.0  0.11930  0.11930  0.00000  1.0000 0.8219065397
Cl  Cl3       1.0  0.38070  0.61930  0.25000  1.0000 0.8219065397
Cl  Cl4       1.0  0.61930  0.38070  0.75000  1.0000 0.8219065397
O   O1        1.0  0.89190  0.81890  0.45730  1.0000 -0.3216657275
O   O2        1.0  0.81890  0.89190  0.54270  1.0000 -0.3216657275
O   O3        1.0  0.83200  0.92520  0.46850  1.0000 -0.2596514494
O   O4        1.0  0.92520  0.83200  0.53150  1.0000 -0.2596514494
O   O5        1.0  0.10810  0.18110  0.95730  1.0000 -0.3216657275
O   O6        1.0  0.18110  0.10810  0.04270  1.0000 -0.3216657275
O   O7        1.0  0.16800  0.07480  0.96850  1.0000 -0.2596514494
O   O8        1.0  0.07480  0.16800  0.03150  1.0000 -0.2596514494
O   O9        1.0  0.31890  0.60810  0.20730  1.0000 -0.3216657275
O   O10       1.0  0.39190  0.68110  0.29270  1.0000 -0.3216657275
O   O11       1.0  0.42520  0.66800  0.21850  1.0000 -0.2596514494
O   O12       1.0  0.33200  0.57480  0.28150  1.0000 -0.2596514494
O   O13       1.0  0.68110  0.39190  0.70730  1.0000 -0.3216657275
O   O14       1.0  0.60810  0.31890  0.79270  1.0000 -0.3216657275
O   O15       1.0  0.57480  0.33200  0.71850  1.0000 -0.2596514494
O   O16       1.0  0.66800  0.42520  0.78150  1.0000 -0.2596514494
