# DDEC6 charges by PACMAN v1.1 (https://github.com/mtap-research/PACMAN-charge/)
data_2010[Cd][nuc]3[ION]12
_chemical_formula_sum              "Cd4 H144 C192 N48 Cl4 O16"
_cell_length_a       15.8725
_cell_length_b       15.8725
_cell_length_c       21.673
_cell_angle_alpha    90
_cell_angle_beta     90
_cell_angle_gamma    90

_symmetry_space_group_name_H-M    "P 1"
_symmetry_Int_Tables_number       1

loop_
  _symmetry_equiv_pos_as_xyz
  'x, y, z'

loop_
  _atom_site_type_symbol
  _atom_site_label
  _atom_site_symmetry_multiplicity
  _atom_site_fract_x
  _atom_site_fract_y
  _atom_site_fract_z
  _atom_site_occupancy
  _atom_site_charge
Cd  Cd1       1.0  0.44092  0.44092  0.50000  1.0000 0.6467421915
Cd  Cd2       1.0  0.55908  0.55908  0.00000  1.0000 0.6467421915
Cd  Cd3       1.0  0.05908  0.94092  0.75000  1.0000 0.6467421915
Cd  Cd4       1.0  0.94092  0.05908  0.25000  1.0000 0.6467421915
H   H1        1.0  0.99520  0.75890  0.82360  1.0000 0.0932369385
H   H2        1.0  0.00480  0.24110  0.32360  1.0000 0.0932369385
H   H3        1.0  0.74110  0.49520  0.07360  1.0000 0.0932369385
H   H4        1.0  0.25890  0.50480  0.57360  1.0000 0.0932369385
H   H5        1.0  0.50480  0.25890  0.42640  1.0000 0.0932369385
H   H6        1.0  0.49520  0.74110  0.92640  1.0000 0.0932369385
H   H7        1.0  0.75890  0.99520  0.17640  1.0000 0.0932369385
H   H8        1.0  0.24110  0.00480  0.67640  1.0000 0.0932369385
H   H9        1.0  0.90180  0.64790  0.81180  1.0000 0.1272770165
H   H10       1.0  0.09820  0.35210  0.31180  1.0000 0.1272770165
H   H11       1.0  0.85210  0.40180  0.06180  1.0000 0.1272770165
H   H12       1.0  0.14790  0.59820  0.56180  1.0000 0.1272770165
H   H13       1.0  0.59820  0.14790  0.43820  1.0000 0.1272770165
H   H14       1.0  0.40180  0.85210  0.93820  1.0000 0.1272770165
H   H15       1.0  0.64790  0.90180  0.18820  1.0000 0.1272770165
H   H16       1.0  0.35210  0.09820  0.68820  1.0000 0.1272770165
H   H17       1.0  0.84350  0.73840  0.64310  1.0000 0.1272770165
H   H18       1.0  0.15650  0.26160  0.14310  1.0000 0.1272770165
H   H19       1.0  0.76160  0.34350  0.89310  1.0000 0.1272770165
H   H20       1.0  0.23840  0.65650  0.39310  1.0000 0.1272770165
H   H21       1.0  0.65650  0.23840  0.60690  1.0000 0.1272770165
H   H22       1.0  0.34350  0.76160  0.10690  1.0000 0.1272770165
H   H23       1.0  0.73840  0.84350  0.35690  1.0000 0.1272770165
H   H24       1.0  0.26160  0.15650  0.85690  1.0000 0.1272770165
H   H25       1.0  0.93840  0.84490  0.65910  1.0000 0.0999973978
H   H26       1.0  0.06160  0.15510  0.15910  1.0000 0.0999973978
H   H27       1.0  0.65510  0.43840  0.90910  1.0000 0.0999973978
H   H28       1.0  0.34490  0.56160  0.40910  1.0000 0.0999973978
H   H29       1.0  0.56160  0.34490  0.59090  1.0000 0.0999973978
H   H30       1.0  0.43840  0.65510  0.09090  1.0000 0.0999973978
H   H31       1.0  0.84490  0.93840  0.34090  1.0000 0.0999973978
H   H32       1.0  0.15510  0.06160  0.84090  1.0000 0.0999973978
H   H33       1.0  0.83860  0.53450  0.78590  1.0000 0.1091694101
H   H34       1.0  0.16140  0.46550  0.28590  1.0000 0.1091694101
H   H35       1.0  0.96550  0.33860  0.03590  1.0000 0.1091694101
H   H36       1.0  0.03450  0.66140  0.53590  1.0000 0.1091694101
H   H37       1.0  0.66140  0.03450  0.46410  1.0000 0.1091694101
H   H38       1.0  0.33860  0.96550  0.96410  1.0000 0.1091694101
H   H39       1.0  0.53450  0.83860  0.21410  1.0000 0.1091694101
H   H40       1.0  0.46550  0.16140  0.71410  1.0000 0.1091694101
H   H41       1.0  0.73390  0.43330  0.77560  1.0000 0.1091694101
H   H42       1.0  0.26610  0.56670  0.27560  1.0000 0.1091694101
H   H43       1.0  0.06670  0.23390  0.02560  1.0000 0.1091694101
H   H44       1.0  0.93330  0.76610  0.52560  1.0000 0.1091694101
H   H45       1.0  0.76610  0.93330  0.47440  1.0000 0.1091694101
H   H46       1.0  0.23390  0.06670  0.97440  1.0000 0.1091694101
H   H47       1.0  0.43330  0.73390  0.22440  1.0000 0.1091694101
H   H48       1.0  0.56670  0.26610  0.72440  1.0000 0.1091694101
H   H49       1.0  0.62180  0.45300  0.70900  1.0000 0.1091694101
H   H50       1.0  0.37820  0.54700  0.20900  1.0000 0.1091694101
H   H51       1.0  0.04700  0.12180  0.95900  1.0000 0.1091694101
H   H52       1.0  0.95300  0.87820  0.45900  1.0000 0.1091694101
H   H53       1.0  0.87820  0.95300  0.54100  1.0000 0.1091694101
H   H54       1.0  0.12180  0.04700  0.04100  1.0000 0.1091694101
H   H55       1.0  0.45300  0.62180  0.29100  1.0000 0.1091694101
H   H56       1.0  0.54700  0.37820  0.79100  1.0000 0.1091694101
H   H57       1.0  0.72400  0.67590  0.65520  1.0000 0.0999973978
H   H58       1.0  0.27600  0.32410  0.15520  1.0000 0.0999973978
H   H59       1.0  0.82410  0.22400  0.90520  1.0000 0.0999973978
H   H60       1.0  0.17590  0.77600  0.40520  1.0000 0.0999973978
H   H61       1.0  0.77600  0.17590  0.59480  1.0000 0.0999973978
H   H62       1.0  0.22400  0.82410  0.09480  1.0000 0.0999973978
H   H63       1.0  0.67590  0.72400  0.34480  1.0000 0.0999973978
H   H64       1.0  0.32410  0.27600  0.84480  1.0000 0.0999973978
H   H65       1.0  0.50310  0.69840  0.45870  1.0000 0.1091694101
H   H66       1.0  0.49690  0.30160  0.95870  1.0000 0.1091694101
H   H67       1.0  0.80160  0.00310  0.70870  1.0000 0.1091694101
H   H68       1.0  0.19840  0.99690  0.20870  1.0000 0.1091694101
H   H69       1.0  0.99690  0.19840  0.79130  1.0000 0.1091694101
H   H70       1.0  0.00310  0.80160  0.29130  1.0000 0.1091694101
H   H71       1.0  0.69840  0.50310  0.54130  1.0000 0.1091694101
H   H72       1.0  0.30160  0.49690  0.04130  1.0000 0.1091694101
H   H73       1.0  0.41090  0.79640  0.41430  1.0000 0.0999973978
H   H74       1.0  0.58910  0.20360  0.91430  1.0000 0.0999973978
H   H75       1.0  0.70360  0.91090  0.66430  1.0000 0.0999973978
H   H76       1.0  0.29640  0.08910  0.16430  1.0000 0.0999973978
H   H77       1.0  0.08910  0.29640  0.83570  1.0000 0.0999973978
H   H78       1.0  0.91090  0.70360  0.33570  1.0000 0.0999973978
H   H79       1.0  0.79640  0.41090  0.58570  1.0000 0.0999973978
H   H80       1.0  0.20360  0.58910  0.08570  1.0000 0.0999973978
H   H81       1.0  0.29520  0.84650  0.46940  1.0000 0.0932369385
H   H82       1.0  0.70480  0.15350  0.96940  1.0000 0.0932369385
H   H83       1.0  0.65350  0.79520  0.71940  1.0000 0.0932369385
H   H84       1.0  0.34650  0.20480  0.21940  1.0000 0.0932369385
H   H85       1.0  0.20480  0.34650  0.78060  1.0000 0.0932369385
H   H86       1.0  0.79520  0.65350  0.28060  1.0000 0.0932369385
H   H87       1.0  0.84650  0.29520  0.53060  1.0000 0.0932369385
H   H88       1.0  0.15350  0.70480  0.03060  1.0000 0.0932369385
H   H89       1.0  0.35920  0.69600  0.61230  1.0000 0.1091694101
H   H90       1.0  0.64080  0.30400  0.11230  1.0000 0.1091694101
H   H91       1.0  0.80400  0.85920  0.86230  1.0000 0.1091694101
H   H92       1.0  0.19600  0.14080  0.36230  1.0000 0.1091694101
H   H93       1.0  0.14080  0.19600  0.63770  1.0000 0.1091694101
H   H94       1.0  0.85920  0.80400  0.13770  1.0000 0.1091694101
H   H95       1.0  0.69600  0.35920  0.38770  1.0000 0.1091694101
H   H96       1.0  0.30400  0.64080  0.88770  1.0000 0.1091694101
H   H97       1.0  0.23570  0.70920  0.64450  1.0000 0.1272770165
H   H98       1.0  0.76430  0.29080  0.14450  1.0000 0.1272770165
H   H99       1.0  0.79080  0.73570  0.89450  1.0000 0.1272770165
H   H100      1.0  0.20920  0.26430  0.39450  1.0000 0.1272770165
H   H101      1.0  0.26430  0.20920  0.60550  1.0000 0.1272770165
H   H102      1.0  0.73570  0.79080  0.10550  1.0000 0.1272770165
H   H103      1.0  0.70920  0.23570  0.35550  1.0000 0.1272770165
H   H104      1.0  0.29080  0.76430  0.85550  1.0000 0.1272770165
H   H105      1.0  0.13890  0.76900  0.70880  1.0000 0.0999973978
H   H106      1.0  0.86110  0.23100  0.20880  1.0000 0.0999973978
H   H107      1.0  0.73100  0.63890  0.95880  1.0000 0.0999973978
H   H108      1.0  0.26900  0.36110  0.45880  1.0000 0.0999973978
H   H109      1.0  0.36110  0.26900  0.54120  1.0000 0.0999973978
H   H110      1.0  0.63890  0.73100  0.04120  1.0000 0.0999973978
H   H111      1.0  0.76900  0.13890  0.29120  1.0000 0.0999973978
H   H112      1.0  0.23100  0.86110  0.79120  1.0000 0.0999973978
H   H113      1.0  0.11240  0.96330  0.60040  1.0000 0.0999973978
H   H114      1.0  0.88760  0.03670  0.10040  1.0000 0.0999973978
H   H115      1.0  0.53670  0.61240  0.85040  1.0000 0.0999973978
H   H116      1.0  0.46330  0.38760  0.35040  1.0000 0.0999973978
H   H117      1.0  0.38760  0.46330  0.64960  1.0000 0.0999973978
H   H118      1.0  0.61240  0.53670  0.14960  1.0000 0.0999973978
H   H119      1.0  0.96330  0.11240  0.39960  1.0000 0.0999973978
H   H120      1.0  0.03670  0.88760  0.89960  1.0000 0.0999973978
H   H121      1.0  0.21430  0.91250  0.53360  1.0000 0.1272770165
H   H122      1.0  0.78570  0.08750  0.03360  1.0000 0.1272770165
H   H123      1.0  0.58750  0.71430  0.78360  1.0000 0.1272770165
H   H124      1.0  0.41250  0.28570  0.28360  1.0000 0.1272770165
H   H125      1.0  0.28570  0.41250  0.71640  1.0000 0.1272770165
H   H126      1.0  0.71430  0.58750  0.21640  1.0000 0.1272770165
H   H127      1.0  0.91250  0.21430  0.46640  1.0000 0.1272770165
H   H128      1.0  0.08750  0.78570  0.96640  1.0000 0.1272770165
H   H129      1.0  0.59070  0.76240  0.60020  1.0000 0.2612429134
H   H130      1.0  0.40930  0.23760  0.10020  1.0000 0.2612429134
H   H131      1.0  0.73760  0.09070  0.85020  1.0000 0.2612429134
H   H132      1.0  0.26240  0.90930  0.35020  1.0000 0.2612429134
H   H133      1.0  0.90930  0.26240  0.64980  1.0000 0.2612429134
H   H134      1.0  0.09070  0.73760  0.14980  1.0000 0.2612429134
H   H135      1.0  0.76240  0.59070  0.39980  1.0000 0.2612429134
H   H136      1.0  0.23760  0.40930  0.89980  1.0000 0.2612429134
H   H137      1.0  0.52720  0.75270  0.64990  1.0000 0.2612429134
H   H138      1.0  0.47280  0.24730  0.14990  1.0000 0.2612429134
H   H139      1.0  0.74730  0.02720  0.89990  1.0000 0.2612429134
H   H140      1.0  0.25270  0.97280  0.39990  1.0000 0.2612429134
H   H141      1.0  0.97280  0.25270  0.60010  1.0000 0.2612429134
H   H142      1.0  0.02720  0.74730  0.10010  1.0000 0.2612429134
H   H143      1.0  0.75270  0.52720  0.35010  1.0000 0.2612429134
H   H144      1.0  0.24730  0.47280  0.85010  1.0000 0.2612429134
C   C1        1.0  0.96370  0.75470  0.78640  1.0000 0.0693169219
C   C2        1.0  0.03630  0.24530  0.28640  1.0000 0.0753329362
C   C3        1.0  0.74530  0.46370  0.03640  1.0000 0.0693169219
C   C4        1.0  0.25470  0.53630  0.53640  1.0000 0.0753329362
C   C5        1.0  0.53630  0.25470  0.46360  1.0000 0.0753329362
C   C6        1.0  0.46370  0.74530  0.96360  1.0000 0.0753329362
C   C7        1.0  0.75470  0.96370  0.21360  1.0000 0.0693169219
C   C8        1.0  0.24530  0.03630  0.71360  1.0000 0.0753329362
C   C9        1.0  0.90710  0.68850  0.77980  1.0000 -0.1996438605
C   C10       1.0  0.09290  0.31150  0.27980  1.0000 -0.1996438605
C   C11       1.0  0.81150  0.40710  0.02980  1.0000 -0.1996438605
C   C12       1.0  0.18850  0.59290  0.52980  1.0000 -0.1996438605
C   C13       1.0  0.59290  0.18850  0.47020  1.0000 -0.1996438605
C   C14       1.0  0.40710  0.81150  0.97020  1.0000 -0.1996438605
C   C15       1.0  0.68850  0.90710  0.22020  1.0000 -0.1996438605
C   C16       1.0  0.31150  0.09290  0.72020  1.0000 -0.1996438605
C   C17       1.0  0.85860  0.68120  0.72750  1.0000 0.1091694101
C   C18       1.0  0.14140  0.31880  0.22750  1.0000 0.1164863031
C   C19       1.0  0.81880  0.35860  0.97750  1.0000 0.1091694101
C   C20       1.0  0.18120  0.64140  0.47750  1.0000 0.1091694101
C   C21       1.0  0.64140  0.18120  0.52250  1.0000 0.1091694101
C   C22       1.0  0.35860  0.81880  0.02250  1.0000 0.1091694101
C   C23       1.0  0.68120  0.85860  0.27250  1.0000 0.1091694101
C   C24       1.0  0.31880  0.14140  0.77250  1.0000 0.1164863031
C   C25       1.0  0.87320  0.74150  0.68110  1.0000 -0.1996438605
C   C26       1.0  0.12680  0.25850  0.18110  1.0000 -0.1996438605
C   C27       1.0  0.75850  0.37320  0.93110  1.0000 -0.1996438605
C   C28       1.0  0.24150  0.62680  0.43110  1.0000 -0.1996438605
C   C29       1.0  0.62680  0.24150  0.56890  1.0000 -0.1996438605
C   C30       1.0  0.37320  0.75850  0.06890  1.0000 -0.1996438605
C   C31       1.0  0.74150  0.87320  0.31890  1.0000 -0.1996438605
C   C32       1.0  0.25850  0.12680  0.81890  1.0000 -0.1996438605
C   C33       1.0  0.93040  0.80450  0.69090  1.0000 0.0693169219
C   C34       1.0  0.06960  0.19550  0.19090  1.0000 0.0693169219
C   C35       1.0  0.69550  0.43040  0.94090  1.0000 0.0693169219
C   C36       1.0  0.30450  0.56960  0.44090  1.0000 0.0693169219
C   C37       1.0  0.56960  0.30450  0.55910  1.0000 0.0693169219
C   C38       1.0  0.43040  0.69550  0.05910  1.0000 0.0693169219
C   C39       1.0  0.80450  0.93040  0.30910  1.0000 0.0693169219
C   C40       1.0  0.19550  0.06960  0.80910  1.0000 0.0693169219
C   C41       1.0  0.79180  0.61530  0.72130  1.0000 0.0693169219
C   C42       1.0  0.20820  0.38470  0.22130  1.0000 0.0693169219
C   C43       1.0  0.88470  0.29180  0.97130  1.0000 0.0693169219
C   C44       1.0  0.11530  0.70820  0.47130  1.0000 0.0693169219
C   C45       1.0  0.70820  0.11530  0.52870  1.0000 0.0693169219
C   C46       1.0  0.29180  0.88470  0.02870  1.0000 0.0693169219
C   C47       1.0  0.61530  0.79180  0.27870  1.0000 0.0693169219
C   C48       1.0  0.38470  0.20820  0.77870  1.0000 0.0693169219
C   C49       1.0  0.79400  0.54290  0.75730  1.0000 -0.158434454
C   C50       1.0  0.20600  0.45710  0.25730  1.0000 -0.158434454
C   C51       1.0  0.95710  0.29400  0.00730  1.0000 -0.158434454
C   C52       1.0  0.04290  0.70600  0.50730  1.0000 -0.158434454
C   C53       1.0  0.70600  0.04290  0.49270  1.0000 -0.158434454
C   C54       1.0  0.29400  0.95710  0.99270  1.0000 -0.158434454
C   C55       1.0  0.54290  0.79400  0.24270  1.0000 -0.158434454
C   C56       1.0  0.45710  0.20600  0.74270  1.0000 -0.158434454
C   C57       1.0  0.73110  0.48320  0.75150  1.0000 -0.1061793833
C   C58       1.0  0.26890  0.51680  0.25150  1.0000 -0.1061793833
C   C59       1.0  0.01680  0.23110  0.00150  1.0000 -0.1061793833
C   C60       1.0  0.98320  0.76890  0.50150  1.0000 -0.1061793833
C   C61       1.0  0.76890  0.98320  0.49850  1.0000 -0.1061793833
C   C62       1.0  0.23110  0.01680  0.99850  1.0000 -0.1061793833
C   C63       1.0  0.48320  0.73110  0.24850  1.0000 -0.1061793833
C   C64       1.0  0.51680  0.26890  0.74850  1.0000 -0.1061793833
C   C65       1.0  0.66490  0.49430  0.71190  1.0000 -0.158434454
C   C66       1.0  0.33510  0.50570  0.21190  1.0000 -0.158434454
C   C67       1.0  0.00570  0.16490  0.96190  1.0000 -0.158434454
C   C68       1.0  0.99430  0.83510  0.46190  1.0000 -0.158434454
C   C69       1.0  0.83510  0.99430  0.53810  1.0000 -0.158434454
C   C70       1.0  0.16490  0.00570  0.03810  1.0000 -0.158434454
C   C71       1.0  0.49430  0.66490  0.28810  1.0000 -0.158434454
C   C72       1.0  0.50570  0.33510  0.78810  1.0000 -0.158434454
C   C73       1.0  0.66140  0.56700  0.67580  1.0000 0.0407013002
C   C74       1.0  0.33860  0.43300  0.17580  1.0000 0.0407013002
C   C75       1.0  0.93300  0.16140  0.92580  1.0000 0.0407013002
C   C76       1.0  0.06700  0.83860  0.42580  1.0000 0.0407013002
C   C77       1.0  0.83860  0.06700  0.57420  1.0000 0.0407013002
C   C78       1.0  0.16140  0.93300  0.07420  1.0000 0.0407013002
C   C79       1.0  0.56700  0.66140  0.32420  1.0000 0.0407013002
C   C80       1.0  0.43300  0.33860  0.82420  1.0000 0.0407013002
C   C81       1.0  0.72570  0.62690  0.68040  1.0000 -0.1996438605
C   C82       1.0  0.27430  0.37310  0.18040  1.0000 -0.1996438605
C   C83       1.0  0.87310  0.22570  0.93040  1.0000 -0.1996438605
C   C84       1.0  0.12690  0.77430  0.43040  1.0000 -0.1996438605
C   C85       1.0  0.77430  0.12690  0.56960  1.0000 -0.1996438605
C   C86       1.0  0.22570  0.87310  0.06960  1.0000 -0.1996438605
C   C87       1.0  0.62690  0.72570  0.31960  1.0000 -0.1996438605
C   C88       1.0  0.37310  0.27430  0.81960  1.0000 -0.1996438605
C   C89       1.0  0.59160  0.57500  0.63170  1.0000 0.1833178609
C   C90       1.0  0.40840  0.42500  0.13170  1.0000 0.1833178609
C   C91       1.0  0.92500  0.09160  0.88170  1.0000 0.1833178609
C   C92       1.0  0.07500  0.90840  0.38170  1.0000 0.1833178609
C   C93       1.0  0.90840  0.07500  0.61830  1.0000 0.1833178609
C   C94       1.0  0.09160  0.92500  0.11830  1.0000 0.1833178609
C   C95       1.0  0.57500  0.59160  0.36830  1.0000 0.1833178609
C   C96       1.0  0.42500  0.40840  0.86830  1.0000 0.1833178609
C   C97       1.0  0.49500  0.62600  0.57030  1.0000 0.1833178609
C   C98       1.0  0.50500  0.37400  0.07030  1.0000 0.1833178609
C   C99       1.0  0.87400  0.99500  0.82030  1.0000 0.1833178609
C   C100      1.0  0.12600  0.00500  0.32030  1.0000 0.1833178609
C   C101      1.0  0.00500  0.12600  0.67970  1.0000 0.1833178609
C   C102      1.0  0.99500  0.87400  0.17970  1.0000 0.1833178609
C   C103      1.0  0.62600  0.49500  0.42970  1.0000 0.1833178609
C   C104      1.0  0.37400  0.50500  0.92970  1.0000 0.1833178609
C   C105      1.0  0.43910  0.68790  0.54030  1.0000 0.0146579201
C   C106      1.0  0.56090  0.31210  0.04030  1.0000 0.0146579201
C   C107      1.0  0.81210  0.93910  0.79030  1.0000 0.0146579201
C   C108      1.0  0.18790  0.06090  0.29030  1.0000 0.0146579201
C   C109      1.0  0.06090  0.18790  0.70970  1.0000 0.0146579201
C   C110      1.0  0.93910  0.81210  0.20970  1.0000 0.0146579201
C   C111      1.0  0.68790  0.43910  0.45970  1.0000 0.0146579201
C   C112      1.0  0.31210  0.56090  0.95970  1.0000 0.0146579201
C   C113      1.0  0.45540  0.71780  0.48100  1.0000 -0.158434454
C   C114      1.0  0.54460  0.28220  0.98100  1.0000 -0.158434454
C   C115      1.0  0.78220  0.95540  0.73100  1.0000 -0.158434454
C   C116      1.0  0.21780  0.04460  0.23100  1.0000 -0.158434454
C   C117      1.0  0.04460  0.21780  0.76900  1.0000 -0.158434454
C   C118      1.0  0.95540  0.78220  0.26900  1.0000 -0.158434454
C   C119      1.0  0.71780  0.45540  0.51900  1.0000 -0.158434454
C   C120      1.0  0.28220  0.54460  0.01900  1.0000 -0.158434454
C   C121      1.0  0.40080  0.77640  0.45490  1.0000 -0.1061793833
C   C122      1.0  0.59920  0.22360  0.95490  1.0000 -0.1061793833
C   C123      1.0  0.72360  0.90080  0.70490  1.0000 -0.1061793833
C   C124      1.0  0.27640  0.09920  0.20490  1.0000 -0.1061793833
C   C125      1.0  0.09920  0.27640  0.79510  1.0000 -0.1061793833
C   C126      1.0  0.90080  0.72360  0.29510  1.0000 -0.1061793833
C   C127      1.0  0.77640  0.40080  0.54510  1.0000 -0.1061793833
C   C128      1.0  0.22360  0.59920  0.04510  1.0000 -0.1061793833
C   C129      1.0  0.33180  0.80610  0.48750  1.0000 -0.1678982113
C   C130      1.0  0.66820  0.19390  0.98750  1.0000 -0.1678982113
C   C131      1.0  0.69390  0.83180  0.73750  1.0000 -0.1678982113
C   C132      1.0  0.30610  0.16820  0.23750  1.0000 -0.1678982113
C   C133      1.0  0.16820  0.30610  0.76250  1.0000 -0.1678982113
C   C134      1.0  0.83180  0.69390  0.26250  1.0000 -0.1678982113
C   C135      1.0  0.80610  0.33180  0.51250  1.0000 -0.1678982113
C   C136      1.0  0.19390  0.66820  0.01250  1.0000 -0.1678982113
C   C137      1.0  0.31600  0.77660  0.54700  1.0000 0.0693169219
C   C138      1.0  0.68400  0.22340  0.04700  1.0000 0.0693169219
C   C139      1.0  0.72340  0.81600  0.79700  1.0000 0.0693169219
C   C140      1.0  0.27660  0.18400  0.29700  1.0000 0.0693169219
C   C141      1.0  0.18400  0.27660  0.70300  1.0000 0.0693169219
C   C142      1.0  0.81600  0.72340  0.20300  1.0000 0.0693169219
C   C143      1.0  0.77660  0.31600  0.45300  1.0000 0.0693169219
C   C144      1.0  0.22340  0.68400  0.95300  1.0000 0.0693169219
C   C145      1.0  0.37010  0.71710  0.57210  1.0000 -0.1873292957
C   C146      1.0  0.62990  0.28290  0.07210  1.0000 -0.1873292957
C   C147      1.0  0.78290  0.87010  0.82210  1.0000 -0.1873292957
C   C148      1.0  0.21710  0.12990  0.32210  1.0000 -0.1873292957
C   C149      1.0  0.12990  0.21710  0.67790  1.0000 -0.1873292957
C   C150      1.0  0.87010  0.78290  0.17790  1.0000 -0.1873292957
C   C151      1.0  0.71710  0.37010  0.42790  1.0000 -0.1873292957
C   C152      1.0  0.28290  0.62990  0.92790  1.0000 -0.1873292957
C   C153      1.0  0.24350  0.80850  0.58460  1.0000 0.1164863031
C   C154      1.0  0.75650  0.19150  0.08460  1.0000 0.1164863031
C   C155      1.0  0.69150  0.74350  0.83460  1.0000 0.1164863031
C   C156      1.0  0.30850  0.25650  0.33460  1.0000 0.1164863031
C   C157      1.0  0.25650  0.30850  0.66540  1.0000 0.1164863031
C   C158      1.0  0.74350  0.69150  0.16540  1.0000 0.1164863031
C   C159      1.0  0.80850  0.24350  0.41540  1.0000 0.1164863031
C   C160      1.0  0.19150  0.75650  0.91540  1.0000 0.1164863031
C   C161      1.0  0.21450  0.76390  0.63580  1.0000 -0.1996438605
C   C162      1.0  0.78550  0.23610  0.13580  1.0000 -0.1996438605
C   C163      1.0  0.73610  0.71450  0.88580  1.0000 -0.1996438605
C   C164      1.0  0.26390  0.28550  0.38580  1.0000 -0.1996438605
C   C165      1.0  0.28550  0.26390  0.61420  1.0000 -0.1996438605
C   C166      1.0  0.71450  0.73610  0.11420  1.0000 -0.1996438605
C   C167      1.0  0.76390  0.21450  0.36420  1.0000 -0.1996438605
C   C168      1.0  0.23610  0.78550  0.86420  1.0000 -0.1996438605
C   C169      1.0  0.15560  0.79940  0.67310  1.0000 0.0323476012
C   C170      1.0  0.84440  0.20060  0.17310  1.0000 0.0323476012
C   C171      1.0  0.70060  0.65560  0.92310  1.0000 0.0323476012
C   C172      1.0  0.29940  0.34440  0.42310  1.0000 0.0323476012
C   C173      1.0  0.34440  0.29940  0.57690  1.0000 0.0323476012
C   C174      1.0  0.65560  0.70060  0.07690  1.0000 0.0323476012
C   C175      1.0  0.79940  0.15560  0.32690  1.0000 0.0323476012
C   C176      1.0  0.20060  0.84440  0.82690  1.0000 0.0323476012
C   C177      1.0  0.14060  0.91240  0.61080  1.0000 0.0693169219
C   C178      1.0  0.85940  0.08760  0.11080  1.0000 0.0693169219
C   C179      1.0  0.58760  0.64060  0.86080  1.0000 0.0693169219
C   C180      1.0  0.41240  0.35940  0.36080  1.0000 0.0693169219
C   C181      1.0  0.35940  0.41240  0.63920  1.0000 0.0693169219
C   C182      1.0  0.64060  0.58760  0.13920  1.0000 0.0693169219
C   C183      1.0  0.91240  0.14060  0.38920  1.0000 0.0693169219
C   C184      1.0  0.08760  0.85940  0.88920  1.0000 0.0693169219
C   C185      1.0  0.20160  0.88260  0.57040  1.0000 -0.1996438605
C   C186      1.0  0.79840  0.11740  0.07040  1.0000 -0.1996438605
C   C187      1.0  0.61740  0.70160  0.82040  1.0000 -0.1996438605
C   C188      1.0  0.38260  0.29840  0.32040  1.0000 -0.1996438605
C   C189      1.0  0.29840  0.38260  0.67960  1.0000 -0.1996438605
C   C190      1.0  0.70160  0.61740  0.17960  1.0000 -0.1996438605
C   C191      1.0  0.88260  0.20160  0.42960  1.0000 -0.1996438605
C   C192      1.0  0.11740  0.79840  0.92960  1.0000 -0.1996438605
N   N1        1.0  0.97570  0.81250  0.74260  1.0000 -0.2351620381
N   N2        1.0  0.02430  0.18750  0.24260  1.0000 -0.2351620381
N   N3        1.0  0.68750  0.47570  0.99260  1.0000 -0.2286365426
N   N4        1.0  0.31250  0.52430  0.49260  1.0000 -0.2351620381
N   N5        1.0  0.52430  0.31250  0.50740  1.0000 -0.2351620381
N   N6        1.0  0.47570  0.68750  0.00740  1.0000 -0.2351620381
N   N7        1.0  0.81250  0.97570  0.25740  1.0000 -0.2351620381
N   N8        1.0  0.18750  0.02430  0.75740  1.0000 -0.2351620381
N   N9        1.0  0.55480  0.51200  0.60500  1.0000 -0.2661249151
N   N10       1.0  0.44520  0.48800  0.10500  1.0000 -0.2661249151
N   N11       1.0  0.98800  0.05480  0.85500  1.0000 -0.2661249151
N   N12       1.0  0.01200  0.94520  0.35500  1.0000 -0.2661249151
N   N13       1.0  0.94520  0.01200  0.64500  1.0000 -0.2661249151
N   N14       1.0  0.05480  0.98800  0.14500  1.0000 -0.2661249151
N   N15       1.0  0.51200  0.55480  0.39500  1.0000 -0.2661249151
N   N16       1.0  0.48800  0.44520  0.89500  1.0000 -0.2661249151
N   N17       1.0  0.49370  0.54390  0.56660  1.0000 -0.2286365426
N   N18       1.0  0.50630  0.45610  0.06660  1.0000 -0.2286365426
N   N19       1.0  0.95610  0.99370  0.81660  1.0000 -0.2286365426
N   N20       1.0  0.04390  0.00630  0.31660  1.0000 -0.2286365426
N   N21       1.0  0.00630  0.04390  0.68340  1.0000 -0.2286365426
N   N22       1.0  0.99370  0.95610  0.18340  1.0000 -0.2286365426
N   N23       1.0  0.54390  0.49370  0.43340  1.0000 -0.2286365426
N   N24       1.0  0.45610  0.50630  0.93340  1.0000 -0.2286365426
N   N25       1.0  0.55540  0.64870  0.61100  1.0000 0.0693169219
N   N26       1.0  0.44460  0.35130  0.11100  1.0000 0.0693169219
N   N27       1.0  0.85130  0.05540  0.86100  1.0000 0.0693169219
N   N28       1.0  0.14870  0.94460  0.36100  1.0000 0.0693169219
N   N29       1.0  0.94460  0.14870  0.63900  1.0000 0.0693169219
N   N30       1.0  0.05540  0.85130  0.13900  1.0000 0.0693169219
N   N31       1.0  0.64870  0.55540  0.38900  1.0000 0.0693169219
N   N32       1.0  0.35130  0.44460  0.88900  1.0000 0.0693169219
N   N33       1.0  0.57400  0.72990  0.63250  1.0000 -0.4959208254
N   N34       1.0  0.42600  0.27010  0.13250  1.0000 -0.4959208254
N   N35       1.0  0.77010  0.07400  0.88250  1.0000 -0.4959208254
N   N36       1.0  0.22990  0.92600  0.38250  1.0000 -0.4959208254
N   N37       1.0  0.92600  0.22990  0.61750  1.0000 -0.4959208254
N   N38       1.0  0.07400  0.77010  0.11750  1.0000 -0.4959208254
N   N39       1.0  0.72990  0.57400  0.36750  1.0000 -0.4959208254
N   N40       1.0  0.27010  0.42600  0.86750  1.0000 -0.4959208254
N   N41       1.0  0.11940  0.87440  0.66280  1.0000 -0.2286365426
N   N42       1.0  0.88060  0.12560  0.16280  1.0000 -0.2286365426
N   N43       1.0  0.62560  0.61940  0.91280  1.0000 -0.2286365426
N   N44       1.0  0.37440  0.38060  0.41280  1.0000 -0.2286365426
N   N45       1.0  0.38060  0.37440  0.58720  1.0000 -0.2286365426
N   N46       1.0  0.61940  0.62560  0.08720  1.0000 -0.2286365426
N   N47       1.0  0.87440  0.11940  0.33720  1.0000 -0.2286365426
N   N48       1.0  0.12560  0.88060  0.83720  1.0000 -0.2286365426
Cl  Cl1       1.0  0.37816  0.62184  0.75000  1.0000 1.0361274149
Cl  Cl2       1.0  0.62184  0.37816  0.25000  1.0000 1.0361274149
Cl  Cl3       1.0  0.12184  0.12184  0.50000  1.0000 1.0361274149
Cl  Cl4       1.0  0.87816  0.87816  0.00000  1.0000 1.0361274149
O   O1        1.0  0.32270  0.61100  0.70460  1.0000 -0.3722306971
O   O2        1.0  0.38900  0.67730  0.79540  1.0000 -0.3722306971
O   O3        1.0  0.44120  0.63550  0.71550  1.0000 -0.3398208205
O   O4        1.0  0.36450  0.55880  0.78450  1.0000 -0.3398208205
O   O5        1.0  0.67730  0.38900  0.20460  1.0000 -0.3722306971
O   O6        1.0  0.61100  0.32270  0.29540  1.0000 -0.3722306971
O   O7        1.0  0.55880  0.36450  0.21550  1.0000 -0.3398208205
O   O8        1.0  0.63550  0.44120  0.28450  1.0000 -0.3398208205
O   O9        1.0  0.11100  0.17730  0.45460  1.0000 -0.3722306971
O   O10       1.0  0.17730  0.11100  0.54540  1.0000 -0.3722306971
O   O11       1.0  0.13550  0.05880  0.46550  1.0000 -0.3398208205
O   O12       1.0  0.05880  0.13550  0.53450  1.0000 -0.3398208205
O   O13       1.0  0.88900  0.82270  0.95460  1.0000 -0.3722306971
O   O14       1.0  0.82270  0.88900  0.04540  1.0000 -0.3722306971
O   O15       1.0  0.86450  0.94120  0.96550  1.0000 -0.3398208205
O   O16       1.0  0.94120  0.86450  0.03450  1.0000 -0.3398208205
